REMARK  Name = ZINC36618848
REMARK  11 active torsions:
REMARK  status: ('A' for Active; 'I' for Inactive)
REMARK    1  A    between atoms: C_1  and  C_2
REMARK    2  A    between atoms: C_2  and  C_3
REMARK    3  A    between atoms: C_2  and  C_4
REMARK    4  A    between atoms: C_4  and  C_5
REMARK    5  A    between atoms: C_8  and  C_11
REMARK    6  A    between atoms: C_18  and  N_38
REMARK    7  A    between atoms: C_19  and  C_36
REMARK    8  A    between atoms: C_20  and  C_22
REMARK    9  A    between atoms: C_27  and  O_28
REMARK   10  A    between atoms: O_28  and  C_29
REMARK   11  A    between atoms: C_29  and  C_31
REMARK                            x       y       z     vdW  Elec       q    Type
REMARK                         _______ _______ _______ _____ _____    ______ ____
ROOT
ATOM      1  C   UNL     1      -1.906   1.136   5.647  0.00  0.00    +0.100 A 
ATOM      2  C   UNL     1      -3.200   0.817   6.070  0.00  0.00    +0.054 A 
ATOM      3  C   UNL     1      -3.399   1.394   7.291  0.00  0.00    +0.223 A 
ATOM      4  N   UNL     1      -2.270   2.054   7.622  0.00  0.00    -0.246 N 
ATOM      5  H   UNL     1      -2.123   2.559   8.437  0.00  0.00    +0.192 HD
ATOM      6  N   UNL     1      -1.343   1.876   6.583  0.00  0.00    -0.171 NA
ATOM      7  O   UNL     1      -4.562   1.271   7.978  0.00  0.00    -0.423 OA
ATOM      8  C   UNL     1      -5.438   0.334   7.561  0.00  0.00    +0.200 C 
ATOM      9  C   UNL     1      -5.353  -0.297   6.368  0.00  0.00    +0.098 C 
ATOM     10  C   UNL     1      -4.255  -0.004   5.376  0.00  0.00    +0.105 C 
ENDROOT
BRANCH   1  14
ATOM     11  C   UNL     1      -0.096  -0.083   1.996  0.00  0.00    -0.047 A 
ATOM     12  C   UNL     1       0.195   1.160   2.529  0.00  0.00    +0.004 A 
ATOM     13  C   UNL     1      -0.390   1.561   3.713  0.00  0.00    +0.010 A 
ATOM     14  C   UNL     1      -1.275   0.711   4.373  0.00  0.00    +0.003 A 
ATOM     15  C   UNL     1      -1.565  -0.540   3.832  0.00  0.00    +0.010 A 
ATOM     16  C   UNL     1      -0.978  -0.929   2.644  0.00  0.00    +0.004 A 
BRANCH  11  17
ATOM     17  C   UNL     1       0.545  -0.514   0.703  0.00  0.00    +0.038 C 
BRANCH  17  19
ATOM     18  C   UNL     1      -0.385   1.447  -0.535  0.00  0.00    +0.007 C 
ATOM     19  C   UNL     1      -0.335  -0.081  -0.472  0.00  0.00    -0.013 C 
ATOM     20  C   UNL     1       0.251  -0.626  -1.776  0.00  0.00    +0.007 C 
ENDBRANCH  17  19
ENDBRANCH  11  17
ENDBRANCH   1  14
BRANCH  10  21
ATOM     21  C   UNL     1      -4.816   0.768   4.210  0.00  0.00    +0.008 A 
ATOM     22  C   UNL     1      -5.428   1.989   4.420  0.00  0.00    +0.008 A 
ATOM     23  C   UNL     1      -5.942   2.699   3.351  0.00  0.00    +0.001 A 
ATOM     24  C   UNL     1      -5.847   2.188   2.069  0.00  0.00    +0.004 A 
ATOM     25  C   UNL     1      -5.237   0.968   1.854  0.00  0.00    +0.047 A 
ATOM     26  C   UNL     1      -4.714   0.257   2.924  0.00  0.00    +0.136 A 
BRANCH  26  27
ATOM     27  O   UNL     1      -4.108  -0.941   2.715  0.00  0.00    -0.420 OA
BRANCH  27  28
ATOM     28  C   UNL     1      -4.857  -2.058   2.826  0.00  0.00    +0.380 C 
ATOM     29  O   UNL     1      -6.056  -1.970   3.011  0.00  0.00    -0.241 OA
BRANCH  28  30
ATOM     30  C   UNL     1      -4.226  -3.376   2.725  0.00  0.00    +0.212 A 
ATOM     31  C   UNL     1      -4.864  -4.581   2.814  0.00  0.00    +0.056 A 
ATOM     32  C   UNL     1      -3.881  -5.570   2.663  0.00  0.00    +0.042 A 
ATOM     33  C   UNL     1      -2.701  -4.935   2.490  0.00  0.00    +0.196 A 
ATOM     34  O   UNL     1      -2.913  -3.613   2.523  0.00  0.00    -0.456 OA
ENDBRANCH  28  30
ENDBRANCH  27  28
ENDBRANCH  26  27
ENDBRANCH  10  21
BRANCH   8  35
ATOM     35  N   UNL     1      -6.476   0.003   8.395  0.00  0.00    -0.328 N 
ATOM     36  H   UNL     1      -6.564   0.438   9.257  0.00  0.00    +0.145 HD
ATOM     37  H   UNL     1      -7.123  -0.668   8.122  0.00  0.00    +0.145 HD
ENDBRANCH   8  35
BRANCH   9  38
ATOM     38  C   UNL     1      -6.340  -1.279   6.036  0.00  0.00    +0.101 C 
ATOM     39  N   UNL     1      -7.123  -2.058   5.772  0.00  0.00    -0.191 NA
ENDBRANCH   9  38
TORSDOF 9
