REMARK  Name = ZINC00889678
REMARK  8 active torsions:
REMARK  status: ('A' for Active; 'I' for Inactive)
REMARK    1  A    between atoms: C_1  and  C_2
REMARK    2  A    between atoms: C_7  and  C_15
REMARK    3  A    between atoms: C_13  and  C_14
REMARK    4  A    between atoms: C_15  and  C_17
REMARK    5  A    between atoms: C_15  and  N_29
REMARK    6  A    between atoms: N_21  and  C_22
REMARK    7  A    between atoms: C_22  and  C_23
REMARK    8  A    between atoms: C_33  and  C_36
REMARK                            x       y       z     vdW  Elec       q    Type
REMARK                         _______ _______ _______ _____ _____    ______ ____
ROOT
ATOM      1  C   UNL     1       0.096  -6.383   1.200  0.00  0.00    +0.039 C 
ENDROOT
BRANCH   1   8
ATOM      2  C   UNL     1      -0.018   1.503   0.010  0.00  0.00    +0.044 C 
ATOM      3  C   UNL     1       0.002  -0.004   0.002  0.00  0.00    -0.046 A 
ATOM      4  C   UNL     1       0.006  -0.684  -1.208  0.00  0.00    +0.004 A 
ATOM      5  C   UNL     1       0.024  -2.050  -1.238  0.00  0.00    +0.010 A 
ATOM      6  C   UNL     1       0.040  -2.769  -0.039  0.00  0.00    -0.001 A 
ATOM      7  C   UNL     1       0.060  -4.233  -0.034  0.00  0.00    +0.017 A 
ATOM      8  C   UNL     1       0.075  -4.877   1.159  0.00  0.00    +0.011 A 
ATOM      9  C   UNL     1       0.070  -4.142   2.364  0.00  0.00    +0.251 A 
ATOM     10  O   UNL     1       0.084  -4.740   3.426  0.00  0.00    -0.268 OA
ATOM     11  N   UNL     1       0.052  -2.797   2.370  0.00  0.00    -0.322 N 
ATOM     12  H   UNL     1       0.050  -2.323   3.216  0.00  0.00    +0.169 HD
ATOM     13  C   UNL     1       0.036  -2.083   1.190  0.00  0.00    +0.052 A 
ATOM     14  C   UNL     1       0.023  -0.692   1.196  0.00  0.00    -0.024 A 
ATOM     15  C   UNL     1       0.025   0.059   2.502  0.00  0.00    +0.046 C 
ENDBRANCH   1   8
BRANCH   1  16
ATOM     16  N   UNL     1       1.240  -6.836   2.001  0.00  0.00    +0.389 N 
ATOM     17  C   UNL     1       1.254  -8.303   2.047  0.00  0.00    -0.077 C 
ATOM     18  C   UNL     1       2.397  -8.779   2.947  0.00  0.00    -0.018 C 
ATOM     19  C   UNL     1       3.728  -8.271   2.384  0.00  0.00    -0.001 C 
ATOM     20  C   UNL     1       3.674  -6.745   2.271  0.00  0.00    -0.031 C 
ATOM     21  C   UNL     1       2.484  -6.345   1.396  0.00  0.00    -0.074 C 
ATOM     22  C   UNL     1       4.970  -6.234   1.637  0.00  0.00    +0.005 C 
ATOM     23  H   UNL     1       1.158  -6.473   2.939  0.00  0.00    -0.080 HD
ENDBRANCH   1  16
BRANCH   1  24
ATOM     24  C   UNL     1      -1.182  -6.887   1.820  0.00  0.00    +0.143 A 
ATOM     25  N   UNL     1      -1.500  -6.857   3.091  0.00  0.00    -0.115 NA
ATOM     26  N   UNL     1      -2.671  -7.379   3.221  0.00  0.00    -0.023 NA
ATOM     27  N   UNL     1      -3.108  -7.741   2.066  0.00  0.00    -0.044 NA
ATOM     28  N   UNL     1      -2.221  -7.450   1.175  0.00  0.00    -0.226 N 
BRANCH  28  29
ATOM     29  C   UNL     1      -2.324  -7.691  -0.266  0.00  0.00    +0.182 C 
BRANCH  29  30
ATOM     30  C   UNL     1      -1.770  -9.055  -0.589  0.00  0.00    -0.026 A 
ATOM     31  C   UNL     1      -0.429  -9.204  -0.888  0.00  0.00    +0.005 A 
ATOM     32  C   UNL     1       0.078 -10.456  -1.183  0.00  0.00    +0.000 A 
ATOM     33  C   UNL     1      -0.756 -11.558  -1.179  0.00  0.00    +0.000 A 
ATOM     34  C   UNL     1      -2.097 -11.409  -0.879  0.00  0.00    +0.000 A 
ATOM     35  C   UNL     1      -2.603 -10.158  -0.580  0.00  0.00    +0.005 A 
ENDBRANCH  29  30
ENDBRANCH  28  29
ENDBRANCH   1  24
TORSDOF 5
