REMARK  Name = ZINC38534680
REMARK  10 active torsions:
REMARK  status: ('A' for Active; 'I' for Inactive)
REMARK    1  A    between atoms: C_1  and  C_2
REMARK    2  A    between atoms: C_2  and  C_3
REMARK    3  A    between atoms: C_6  and  O_9
REMARK    4  A    between atoms: O_9  and  C_10
REMARK    5  A    between atoms: C_10  and  C_12
REMARK    6  A    between atoms: C_10  and  C_13
REMARK    7  A    between atoms: C_17  and  S_21
REMARK    8  A    between atoms: N_19  and  C_20
REMARK    9  A    between atoms: S_21  and  C_22
REMARK   10  A    between atoms: C_22  and  C_23
REMARK                            x       y       z     vdW  Elec       q    Type
REMARK                         _______ _______ _______ _____ _____    ______ ____
ROOT
ATOM      1  C   UNL     1      -7.425  -1.753  -1.055  0.00  0.00    +0.181 C 
ATOM      2  N   UNL     1      -8.011  -2.559   0.049  0.00  0.00    -0.234 NA
ATOM      3  N   UNL     1      -9.179  -1.763   0.457  0.00  0.00    -0.229 NA
ATOM      4  C   UNL     1      -8.726  -0.357   0.348  0.00  0.00    +0.200 C 
ATOM      5  N   UNL     1      -7.607  -0.349  -0.621  0.00  0.00    -0.261 NA
ATOM      6  C   UNL     1      -6.381   0.174  -0.004  0.00  0.00    +0.109 C 
ATOM      7  H   UNL     1      -8.292  -3.471  -0.279  0.00  0.00    +0.143 HD
ATOM      8  H   UNL     1      -9.966  -1.937  -0.151  0.00  0.00    +0.143 HD
ENDROOT
BRANCH   1   9
ATOM      9  C   UNL     1      -5.939  -2.074  -1.221  0.00  0.00    +0.203 C 
ATOM     10  C   UNL     1      -5.781  -3.503  -1.746  0.00  0.00    +0.055 C 
BRANCH   9  11
ATOM     11  O   UNL     1      -5.282  -1.955   0.042  0.00  0.00    -0.486 OA
BRANCH  11  15
ATOM     12  C   UNL     1      -1.224  -1.213  -0.020  0.00  0.00    -0.047 A 
ATOM     13  C   UNL     1      -1.901  -1.448  -1.203  0.00  0.00    +0.007 A 
ATOM     14  C   UNL     1      -3.260  -1.697  -1.185  0.00  0.00    +0.046 A 
ATOM     15  C   UNL     1      -3.945  -1.711   0.021  0.00  0.00    +0.121 A 
ATOM     16  C   UNL     1      -3.263  -1.475   1.207  0.00  0.00    +0.046 A 
ATOM     17  C   UNL     1      -1.903  -1.232   1.184  0.00  0.00    +0.007 A 
BRANCH  12  19
ATOM     18  C   UNL     1       1.021  -2.263   0.074  0.00  0.00    +0.009 C 
ATOM     19  C   UNL     1       0.258  -0.942  -0.043  0.00  0.00    +0.032 C 
ENDBRANCH  12  19
ENDBRANCH  11  15
ENDBRANCH   9  11
ENDBRANCH   1   9
BRANCH   4  20
ATOM     20  S   UNL     1     -10.079   0.688  -0.258  0.00  0.00    -0.117 S 
BRANCH  20  21
ATOM     21  C   UNL     1     -10.517  -0.045  -1.858  0.00  0.00    +0.146 C 
BRANCH  21  22
ATOM     22  C   UNL     1     -11.645   0.739  -2.478  0.00  0.00    +0.120 A 
ATOM     23  N   UNL     1     -12.120   0.338  -3.686  0.00  0.00    -0.310 N 
ATOM     24  H   UNL     1     -11.731  -0.435  -4.123  0.00  0.00    +0.170 HD
ATOM     25  C   UNL     1     -13.133   1.008  -4.284  0.00  0.00    +0.259 A 
ATOM     26  O   UNL     1     -13.569   0.660  -5.366  0.00  0.00    -0.267 OA
ATOM     27  C   UNL     1     -13.685   2.173  -3.577  0.00  0.00    +0.065 A 
ATOM     28  C   UNL     1     -14.727   2.931  -4.106  0.00  0.00    +0.015 A 
ATOM     29  C   UNL     1     -15.207   4.013  -3.401  0.00  0.00    +0.001 A 
ATOM     30  C   UNL     1     -14.659   4.352  -2.170  0.00  0.00    +0.002 A 
ATOM     31  C   UNL     1     -13.629   3.616  -1.630  0.00  0.00    +0.028 A 
ATOM     32  C   UNL     1     -13.126   2.515  -2.325  0.00  0.00    +0.078 A 
ATOM     33  N   UNL     1     -12.116   1.759  -1.828  0.00  0.00    -0.233 NA
ENDBRANCH  21  22
ENDBRANCH  20  21
ENDBRANCH   4  20
TORSDOF 7
