REMARK  Name = ZINC55112436
REMARK  8 active torsions:
REMARK  status: ('A' for Active; 'I' for Inactive)
REMARK    1  A    between atoms: C_1  and  C_2
REMARK    2  A    between atoms: C_2  and  N_3
REMARK    3  A    between atoms: N_3  and  C_4
REMARK    4  A    between atoms: N_3  and  C_6
REMARK    5  A    between atoms: C_4  and  C_5
REMARK    6  A    between atoms: C_9  and  C_12
REMARK    7  A    between atoms: C_17  and  C_19
REMARK    8  A    between atoms: C_23  and  N_25
REMARK                            x       y       z     vdW  Elec       q    Type
REMARK                         _______ _______ _______ _____ _____    ______ ____
ROOT
ATOM      1  C   UNL     1       0.147  -6.150  -1.673  0.00  0.00    +0.041 C 
ATOM      2  C   UNL     1       0.516  -6.978  -0.636  0.00  0.00    +0.128 C 
ATOM      3  C   UNL     1       0.538  -8.454  -0.642  0.00  0.00    +0.268 C 
ATOM      4  O   UNL     1       0.235  -9.192  -1.561  0.00  0.00    -0.268 OA
ATOM      5  N   UNL     1       0.965  -8.812   0.589  0.00  0.00    -0.265 N 
ATOM      6  C   UNL     1       1.195  -7.667   1.315  0.00  0.00    +0.133 C 
ATOM      7  N   UNL     1       0.939  -6.602   0.603  0.00  0.00    -0.227 NA
ATOM      8  H   UNL     1       1.089  -9.721   0.906  0.00  0.00    +0.157 HD
ENDROOT
BRANCH   1  12
ATOM      9  C   UNL     1       0.665  -1.959  -1.325  0.00  0.00    +0.013 A 
ATOM     10  C   UNL     1       1.157  -2.797  -0.339  0.00  0.00    +0.022 A 
ATOM     11  C   UNL     1       0.993  -4.162  -0.444  0.00  0.00    +0.010 A 
ATOM     12  C   UNL     1       0.326  -4.700  -1.552  0.00  0.00    -0.023 A 
ATOM     13  C   UNL     1      -0.169  -3.844  -2.545  0.00  0.00    +0.010 A 
ATOM     14  C   UNL     1      -0.000  -2.482  -2.421  0.00  0.00    +0.022 A 
BRANCH   9  15
ATOM     15  N   UNL     1       0.836  -0.576  -1.210  0.00  0.00    -0.394 NA
ATOM     16  H   UNL     1       0.417  -0.118  -2.006  0.00  0.00    +0.126 HD
BRANCH  15  18
ATOM     17  C   UNL     1      -1.322  -0.293  -0.089  0.00  0.00    +0.022 C 
ATOM     18  C   UNL     1       0.192  -0.104   0.022  0.00  0.00    +0.081 C 
ENDBRANCH  15  18
BRANCH  15  19
ATOM     19  C   UNL     1       2.271  -0.263  -1.164  0.00  0.00    +0.081 C 
ATOM     20  C   UNL     1       2.918  -0.640  -2.498  0.00  0.00    +0.022 C 
ENDBRANCH  15  19
ENDBRANCH   9  15
ENDBRANCH   1  12
BRANCH   6  21
ATOM     21  C   UNL     1       1.673  -7.645   2.713  0.00  0.00    +0.017 A 
ATOM     22  C   UNL     1       1.929  -8.841   3.386  0.00  0.00    +0.011 A 
ATOM     23  C   UNL     1       2.375  -8.813   4.691  0.00  0.00    +0.003 A 
ATOM     24  C   UNL     1       2.569  -7.603   5.333  0.00  0.00    +0.033 A 
ATOM     25  C   UNL     1       2.317  -6.413   4.672  0.00  0.00    +0.127 A 
ATOM     26  C   UNL     1       1.876  -6.427   3.365  0.00  0.00    +0.044 A 
BRANCH  25  27
ATOM     27  N   UNL     1       2.527  -5.124   5.367  0.00  0.00    +0.056 N 
ATOM     28  O   UNL     1       2.919  -5.110   6.511  0.00  0.00    -0.126 OA
ATOM     29  O   UNL     1       2.307  -4.084   4.791  0.00  0.00    -0.126 OA
ENDBRANCH  25  27
ENDBRANCH   6  21
TORSDOF 6
