REMARK  Name = ZINC50420091
REMARK  4 active torsions:
REMARK  status: ('A' for Active; 'I' for Inactive)
REMARK    1  A    between atoms: C_1  and  C_2
REMARK    2  A    between atoms: C_2  and  C_4
REMARK    3  A    between atoms: C_2  and  N_10
REMARK    4  A    between atoms: N_8  and  C_9
REMARK                            x       y       z     vdW  Elec       q    Type
REMARK                         _______ _______ _______ _____ _____    ______ ____
ROOT
ATOM      1  N   UNL     1       0.688  -0.476  -1.203  0.00  0.00    -0.318 N 
ATOM      2  C   UNL     1      -0.016  -0.612  -2.396  0.00  0.00    +0.138 A 
ATOM      3  C   UNL     1       0.641  -1.067  -3.536  0.00  0.00    +0.082 A 
ATOM      4  C   UNL     1      -0.071  -1.198  -4.716  0.00  0.00    +0.045 A 
ATOM      5  C   UNL     1      -1.421  -0.868  -4.715  0.00  0.00    +0.061 A 
ATOM      6  C   UNL     1      -2.008  -0.422  -3.546  0.00  0.00    +0.133 A 
ATOM      7  N   UNL     1      -1.304  -0.313  -2.435  0.00  0.00    -0.238 NA
ATOM      8 CL   UNL     1      -2.360  -1.012  -6.168  0.00  0.00    -0.082 Cl
ATOM      9 CL   UNL     1       2.330  -1.465  -3.479  0.00  0.00    -0.080 Cl
ATOM     10  H   UNL     1       1.632  -0.695  -1.170  0.00  0.00    +0.148 HD
ENDROOT
BRANCH   1  12
ATOM     11  C   UNL     1      -0.019   1.526   0.010  0.00  0.00    +0.036 C 
ATOM     12  C   UNL     1       0.002  -0.004   0.002  0.00  0.00    +0.137 C 
BRANCH  12  13
ATOM     13  C   UNL     1       0.731  -0.503   1.223  0.00  0.00    +0.153 A 
ATOM     14  N   UNL     1       2.022  -0.483   1.415  0.00  0.00    -0.133 NA
ATOM     15  N   UNL     1       2.296  -0.987   2.566  0.00  0.00    -0.138 NA
ATOM     16  C   UNL     1       1.192  -1.353   3.160  0.00  0.00    +0.224 A 
ATOM     17  N   UNL     1       0.167  -1.051   2.327  0.00  0.00    -0.319 N 
ATOM     18  C   UNL     1      -1.260  -1.275   2.568  0.00  0.00    +0.151 C 
ENDBRANCH  12  13
ENDBRANCH   1  12
TORSDOF 2
