REMARK  Name = ZINC48376272
REMARK  10 active torsions:
REMARK  status: ('A' for Active; 'I' for Inactive)
REMARK    1  A    between atoms: C_1  and  C_2
REMARK    2  A    between atoms: C_2  and  C_3
REMARK    3  A    between atoms: C_2  and  C_4
REMARK    4  A    between atoms: C_2  and  C_5
REMARK    5  A    between atoms: C_8  and  C_11
REMARK    6  A    between atoms: C_16  and  N_19
REMARK    7  A    between atoms: C_21  and  C_24
REMARK    8  A    between atoms: C_24  and  C_25
REMARK    9  A    between atoms: C_24  and  C_26
REMARK   10  A    between atoms: C_24  and  N_27
REMARK                            x       y       z     vdW  Elec       q    Type
REMARK                         _______ _______ _______ _____ _____    ______ ____
ROOT
ATOM      1  C   UNL     1       2.835  -0.441  -5.006  0.00  0.00    +0.219 C 
ATOM      2  O   UNL     1       2.282  -1.220  -5.752  0.00  0.00    -0.275 OA
ATOM      3  N   UNL     1       4.084  -0.015  -5.281  0.00  0.00    -0.301 N 
ATOM      4  C   UNL     1       4.815   0.829  -4.326  0.00  0.00    +0.110 C 
ATOM      5  C   UNL     1       6.171   0.180  -4.031  0.00  0.00    +0.046 C 
ATOM      6  C   UNL     1       6.911  -0.066  -5.347  0.00  0.00    +0.112 C 
ATOM      7  C   UNL     1       6.098  -1.023  -6.221  0.00  0.00    +0.046 C 
ATOM      8  C   UNL     1       4.743  -0.393  -6.539  0.00  0.00    +0.110 C 
ENDROOT
BRANCH   1  12
ATOM      9  C   UNL     1       0.117  -0.307  -1.669  0.00  0.00    -0.006 C 
ATOM     10  C   UNL     1      -0.089   0.693  -2.809  0.00  0.00    +0.005 C 
ATOM     11  C   UNL     1       0.631   0.193  -4.063  0.00  0.00    +0.013 C 
ATOM     12  C   UNL     1       2.126   0.053  -3.771  0.00  0.00    +0.075 C 
ATOM     13  C   UNL     1       2.332  -0.948  -2.631  0.00  0.00    +0.013 C 
ATOM     14  C   UNL     1       1.612  -0.447  -1.377  0.00  0.00    +0.005 C 
BRANCH   9  16
ATOM     15  C   UNL     1      -0.033   1.554  -0.009  0.00  0.00    +0.011 C 
ATOM     16  C   UNL     1      -0.603   0.194  -0.415  0.00  0.00    -0.035 C 
ATOM     17  C   UNL     1      -0.397  -0.806   0.724  0.00  0.00    +0.011 C 
ATOM     18  C   UNL     1      -2.098   0.334  -0.707  0.00  0.00    +0.011 C 
ENDBRANCH   9  16
ENDBRANCH   1  12
BRANCH   6  19
ATOM     19  N   UNL     1       8.223  -0.656  -5.067  0.00  0.00    -0.248 N 
ATOM     20  C   UNL     1       8.477  -1.973  -4.886  0.00  0.00    +0.132 A 
ATOM     21  C   UNL     1       9.807  -2.071  -4.654  0.00  0.00    +0.071 A 
ATOM     22  N   UNL     1      10.294  -0.827  -4.704  0.00  0.00    -0.136 NA
ATOM     23  N   UNL     1       9.331  -0.012  -4.955  0.00  0.00    -0.065 NA
BRANCH  21  24
ATOM     24  C   UNL     1      10.585  -3.335  -4.391  0.00  0.00    -0.030 C 
ATOM     25  C   UNL     1      12.061  -2.990  -4.181  0.00  0.00    -0.004 C 
ATOM     26  C   UNL     1      10.038  -4.019  -3.136  0.00  0.00    -0.004 C 
BRANCH  24  27
ATOM     27  N   UNL     1      10.452  -4.240  -5.540  0.00  0.00    +0.385 N 
ATOM     28  H   UNL     1      10.813  -3.789  -6.367  0.00  0.00    -0.089 HD
ATOM     29  H   UNL     1      10.973  -5.086  -5.364  0.00  0.00    -0.089 HD
ATOM     30  H   UNL     1       9.478  -4.467  -5.678  0.00  0.00    -0.089 HD
ENDBRANCH  24  27
ENDBRANCH  21  24
ENDBRANCH   6  19
TORSDOF 5
