REMARK  Name = ZINC64965879
REMARK  5 active torsions:
REMARK  status: ('A' for Active; 'I' for Inactive)
REMARK    1  A    between atoms: C_4  and  C_7
REMARK    2  A    between atoms: C_7  and  N_8
REMARK    3  A    between atoms: C_10  and  C_33
REMARK    4  A    between atoms: C_12  and  C_25
REMARK    5  A    between atoms: N_15  and  C_18
REMARK                            x       y       z     vdW  Elec       q    Type
REMARK                         _______ _______ _______ _____ _____    ______ ____
ROOT
ATOM      1  N   UNL     1       5.469  -1.313   1.044  0.00  0.00    -0.284 N 
ATOM      2  C   UNL     1       5.466  -0.380   2.065  0.00  0.00    +0.120 A 
ATOM      3  C   UNL     1       5.385   1.012   2.119  0.00  0.00    +0.155 A 
ATOM      4  N   UNL     1       5.411   1.607   3.312  0.00  0.00    -0.220 NA
ATOM      5  C   UNL     1       5.511   0.897   4.424  0.00  0.00    +0.166 A 
ATOM      6  N   UNL     1       5.590  -0.429   4.413  0.00  0.00    -0.207 NA
ATOM      7  C   UNL     1       5.571  -1.095   3.272  0.00  0.00    +0.170 A 
ATOM      8  N   UNL     1       5.634  -2.435   2.934  0.00  0.00    -0.245 N 
ATOM      9  C   UNL     1       5.566  -2.540   1.593  0.00  0.00    +0.336 A 
ATOM     10  O   UNL     1       5.591  -3.585   0.970  0.00  0.00    -0.246 OA
ENDROOT
BRANCH   5  11
ATOM     11  C   UNL     1       5.536   1.605   5.727  0.00  0.00    +0.057 A 
ATOM     12  C   UNL     1       5.646   0.883   6.914  0.00  0.00    +0.052 A 
ATOM     13  C   UNL     1       5.669   1.549   8.125  0.00  0.00    +0.124 A 
ATOM     14  C   UNL     1       5.582   2.931   8.160  0.00  0.00    +0.041 A 
ATOM     15  C   UNL     1       5.472   3.653   6.986  0.00  0.00    +0.042 A 
ATOM     16  C   UNL     1       5.455   2.998   5.768  0.00  0.00    +0.134 A 
ATOM     17  F   UNL     1       5.354   3.705   4.621  0.00  0.00    -0.205 F 
ATOM     18  F   UNL     1       5.776   0.850   9.276  0.00  0.00    -0.205 F 
ENDBRANCH   5  11
BRANCH   8  19
ATOM     19  C   UNL     1       5.745  -3.504   3.835  0.00  0.00    +0.053 A 
ATOM     20  C   UNL     1       5.795  -3.259   5.201  0.00  0.00    +0.029 A 
ATOM     21  C   UNL     1       5.904  -4.313   6.087  0.00  0.00    +0.040 A 
ATOM     22  C   UNL     1       5.963  -5.613   5.614  0.00  0.00    +0.124 A 
ATOM     23  C   UNL     1       5.913  -5.859   4.252  0.00  0.00    +0.040 A 
ATOM     24  C   UNL     1       5.799  -4.808   3.363  0.00  0.00    +0.029 A 
ATOM     25  F   UNL     1       6.069  -6.643   6.482  0.00  0.00    -0.205 F 
ENDBRANCH   8  19
BRANCH   3  26
ATOM     26  C   UNL     1       5.274   1.812   0.877  0.00  0.00    +0.262 C 
ATOM     27  O   UNL     1       4.604   1.403  -0.051  0.00  0.00    -0.269 OA
ATOM     28  N   UNL     1       5.916   2.993   0.776  0.00  0.00    -0.324 N 
ATOM     29  H   UNL     1       6.450   3.319   1.517  0.00  0.00    +0.145 HD
ATOM     30  H   UNL     1       5.843   3.517  -0.037  0.00  0.00    +0.145 HD
ENDBRANCH   3  26
BRANCH   1  31
ATOM     31  C   UNL     1       5.377  -1.019  -0.388  0.00  0.00    +0.162 C 
BRANCH  31  35
ATOM     32  C   UNL     1       9.219   0.135  -1.857  0.00  0.00    +0.000 A 
ATOM     33  C   UNL     1       8.922  -1.203  -1.673  0.00  0.00    +0.000 A 
ATOM     34  C   UNL     1       7.679  -1.576  -1.198  0.00  0.00    +0.005 A 
ATOM     35  C   UNL     1       6.733  -0.612  -0.905  0.00  0.00    -0.028 A 
ATOM     36  C   UNL     1       7.030   0.726  -1.088  0.00  0.00    +0.005 A 
ATOM     37  C   UNL     1       8.272   1.099  -1.565  0.00  0.00    +0.000 A 
ENDBRANCH  31  35
ENDBRANCH   1  31
TORSDOF 5
