REMARK  Name = ZINC22357109
REMARK  5 active torsions:
REMARK  status: ('A' for Active; 'I' for Inactive)
REMARK    1  A    between atoms: C_4  and  O_27
REMARK    2  A    between atoms: C_5  and  N_7
REMARK    3  A    between atoms: C_8  and  C_10
REMARK    4  A    between atoms: N_16  and  S_17
REMARK    5  A    between atoms: S_17  and  C_20
REMARK                            x       y       z     vdW  Elec       q    Type
REMARK                         _______ _______ _______ _____ _____    ______ ____
ROOT
ATOM      1  C   UNL     1      -0.018  -0.066  -0.264  0.00  0.00    +0.166 C 
ATOM      2  C   UNL     1       0.978  -0.598   0.771  0.00  0.00    +0.030 C 
ATOM      3  C   UNL     1       0.867  -2.123   0.844  0.00  0.00    +0.003 C 
ATOM      4  C   UNL     1      -0.546  -2.515   1.283  0.00  0.00    +0.017 C 
ATOM      5  C   UNL     1      -1.557  -2.006   0.251  0.00  0.00    +0.110 C 
ATOM      6  N   UNL     1      -1.361  -0.561   0.071  0.00  0.00    -0.165 NA
ENDROOT
BRANCH   1   8
ATOM      7  N   UNL     1      -0.246   2.132  -1.375  0.00  0.00    -0.281 N 
ATOM      8  C   UNL     1      -0.015   1.440  -0.242  0.00  0.00    +0.236 C 
ATOM      9  O   UNL     1       0.192   2.031   0.797  0.00  0.00    -0.274 OA
ATOM     10  H   UNL     1      -0.520   1.599  -2.298  0.00  0.00    +0.155 HD
BRANCH   7  15
ATOM     11  C   UNL     1       0.764   5.545  -0.445  0.00  0.00    +0.002 A 
ATOM     12  C   UNL     1       0.075   6.291  -1.383  0.00  0.00    +0.004 A 
ATOM     13  C   UNL     1      -0.722   5.662  -2.322  0.00  0.00    +0.047 A 
ATOM     14  C   UNL     1      -0.827   4.280  -2.328  0.00  0.00    +0.138 A 
ATOM     15  C   UNL     1      -0.138   3.529  -1.378  0.00  0.00    +0.075 A 
ATOM     16  C   UNL     1       0.659   4.167  -0.440  0.00  0.00    +0.027 A 
BRANCH  14  17
ATOM     17  O   UNL     1      -1.605   3.660  -3.254  0.00  0.00    -0.505 OA
ATOM     18  H   UNL     1      -1.688   2.563  -3.257  0.00  0.00    +0.292 HD
ENDBRANCH  14  17
ENDBRANCH   7  15
ENDBRANCH   1   8
BRANCH   6  19
ATOM     19  S   UNL     1      -2.629   0.491   0.241  0.00  0.00    +0.062 S 
ATOM     20  O   UNL     1      -2.296   1.653  -0.505  0.00  0.00    -0.153 OA
ATOM     21  O   UNL     1      -3.812  -0.257  -0.002  0.00  0.00    -0.153 OA
BRANCH  19  22
ATOM     22  C   UNL     1      -2.679   0.976   1.935  0.00  0.00    +0.106 A 
ATOM     23  C   UNL     1      -3.432   0.251   2.839  0.00  0.00    +0.029 A 
ATOM     24  C   UNL     1      -3.467   0.629   4.168  0.00  0.00    +0.017 A 
ATOM     25  C   UNL     1      -2.757   1.738   4.591  0.00  0.00    +0.018 A 
ATOM     26  C   UNL     1      -2.008   2.466   3.685  0.00  0.00    +0.017 A 
ATOM     27  C   UNL     1      -1.969   2.085   2.357  0.00  0.00    +0.029 A 
ATOM     28 BR   UNL     1      -2.811   2.260   6.408  0.00  0.00    -0.050 Br
ENDBRANCH  19  22
ENDBRANCH   6  19
TORSDOF 5
