REMARK  Name = ZINC17031372
REMARK  5 active torsions:
REMARK  status: ('A' for Active; 'I' for Inactive)
REMARK    1  A    between atoms: C_1  and  C_2
REMARK    2  A    between atoms: C_3  and  C_21
REMARK    3  A    between atoms: N_9  and  C_14
REMARK    4  A    between atoms: C_14  and  C_15
REMARK    5  A    between atoms: N_18  and  C_20
REMARK                            x       y       z     vdW  Elec       q    Type
REMARK                         _______ _______ _______ _____ _____    ______ ____
ROOT
ATOM      1  C   UNL     1      -5.136   2.761   1.475  0.00  0.00    +0.045 C 
ATOM      2  C   UNL     1      -4.140   2.938   2.592  0.00  0.00    -0.026 A 
ATOM      3  C   UNL     1      -4.528   3.365   3.804  0.00  0.00    -0.008 A 
ATOM      4  S   UNL     1      -3.007   3.401   4.731  0.00  0.00    -0.075 S 
ATOM      5  C   UNL     1      -1.919   2.860   3.510  0.00  0.00    +0.092 A 
ATOM      6  C   UNL     1      -2.729   2.652   2.391  0.00  0.00    +0.073 A 
ATOM      7  C   UNL     1      -2.033   2.180   1.174  0.00  0.00    +0.263 A 
ATOM      8  O   UNL     1      -2.655   1.976   0.148  0.00  0.00    -0.267 OA
ATOM      9  N   UNL     1      -0.704   1.975   1.216  0.00  0.00    -0.284 N 
ATOM     10  C   UNL     1       0.012   2.196   2.330  0.00  0.00    +0.162 A 
ATOM     11  S   UNL     1       1.702   1.920   2.309  0.00  0.00    -0.013 S 
ATOM     12  N   UNL     1      -0.571   2.631   3.463  0.00  0.00    -0.329 N 
ATOM     13  H   UNL     1       0.047   2.802   4.357  0.00  0.00    +0.168 HD
ATOM     14  C   UNL     1      -5.915   3.727   4.269  0.00  0.00    +0.052 C 
ENDROOT
BRANCH   9  15
ATOM     15  C   UNL     1      -0.018   1.503   0.010  0.00  0.00    +0.165 C 
BRANCH  15  16
ATOM     16  C   UNL     1       0.002  -0.004   0.002  0.00  0.00    +0.010 A 
ATOM     17  C   UNL     1      -0.971  -0.837  -0.559  0.00  0.00    +0.139 A 
ATOM     18  N   UNL     1      -0.605  -2.079  -0.369  0.00  0.00    -0.180 NA
ATOM     19  N   UNL     1       0.614  -2.075   0.320  0.00  0.00    -0.274 N 
ATOM     20  C   UNL     1       0.968  -0.790   0.531  0.00  0.00    +0.113 A 
ATOM     21  C   UNL     1       1.374  -3.257   0.733  0.00  0.00    +0.172 C 
ENDBRANCH  15  16
ENDBRANCH   9  15
TORSDOF 2
