REMARK  Name = ZINC14017509
REMARK  6 active torsions:
REMARK  status: ('A' for Active; 'I' for Inactive)
REMARK    1  A    between atoms: C_1  and  C_2
REMARK    2  A    between atoms: C_10  and  N_15
REMARK    3  A    between atoms: C_11  and  C_12
REMARK    4  A    between atoms: C_16  and  C_18
REMARK    5  A    between atoms: N_23  and  S_25
REMARK    6  A    between atoms: S_25  and  C_28
REMARK                            x       y       z     vdW  Elec       q    Type
REMARK                         _______ _______ _______ _____ _____    ______ ____
ROOT
ATOM      1  N   UNL     1       4.806   4.120  -0.209  0.00  0.00    -0.279 N 
ATOM      2  C   UNL     1       4.572   5.429  -0.432  0.00  0.00    +0.222 C 
ATOM      3  O   UNL     1       3.433   5.830  -0.550  0.00  0.00    -0.275 OA
ATOM      4  H   UNL     1       5.717   3.800  -0.115  0.00  0.00    +0.155 HD
ENDROOT
BRANCH   1  14
ATOM      5  C   UNL     1      -1.923  -0.001  -1.552  0.00  0.00    +0.109 C 
ATOM      6  C   UNL     1      -0.851  -0.711  -0.766  0.00  0.00    +0.213 C 
ATOM      7  O   UNL     1      -0.757  -1.919  -0.823  0.00  0.00    -0.276 OA
ATOM      8  N   UNL     1       0.004  -0.004  -0.000  0.00  0.00    -0.297 N 
ATOM      9  C   UNL     1       0.983  -0.674   0.870  0.00  0.00    +0.113 C 
ATOM     10  C   UNL     1       2.399  -0.347   0.394  0.00  0.00    +0.056 C 
ATOM     11  C   UNL     1       2.517   1.154   0.162  0.00  0.00    -0.020 A 
ATOM     12  C   UNL     1       1.421   1.925  -0.012  0.00  0.00    +0.013 A 
ATOM     13  S   UNL     1       2.050   3.562  -0.249  0.00  0.00    -0.076 S 
ATOM     14  C   UNL     1       3.745   3.232  -0.116  0.00  0.00    +0.084 A 
ATOM     15  C   UNL     1       3.784   1.864   0.109  0.00  0.00    +0.068 A 
ATOM     16  C   UNL     1      -0.008   1.472  -0.002  0.00  0.00    +0.150 C 
BRANCH  15  17
ATOM     17  C   UNL     1       5.058   1.158   0.284  0.00  0.00    +0.244 C 
ATOM     18  O   UNL     1       5.637   0.698  -0.682  0.00  0.00    -0.270 OA
ATOM     19  N   UNL     1       5.587   1.020   1.516  0.00  0.00    -0.325 N 
ATOM     20  H   UNL     1       5.126   1.387   2.286  0.00  0.00    +0.145 HD
ATOM     21  H   UNL     1       6.429   0.554   1.632  0.00  0.00    +0.145 HD
ENDBRANCH  15  17
ENDBRANCH   1  14
BRANCH   2  22
ATOM     22  C   UNL     1       5.725   6.394  -0.534  0.00  0.00    +0.091 C 
ATOM     23  C   UNL     1       6.519   6.382   0.774  0.00  0.00    +0.015 C 
ATOM     24  C   UNL     1       7.709   7.337   0.660  0.00  0.00    +0.018 C 
ATOM     25  C   UNL     1       7.195   8.760   0.420  0.00  0.00    +0.109 C 
ATOM     26  N   UNL     1       6.312   8.752  -0.755  0.00  0.00    -0.176 NA
ATOM     27  C   UNL     1       5.188   7.806  -0.787  0.00  0.00    +0.122 C 
BRANCH  26  28
ATOM     28  S   UNL     1       6.579   9.790  -2.017  0.00  0.00    +0.061 S 
ATOM     29  O   UNL     1       7.955  10.139  -1.973  0.00  0.00    -0.153 OA
ATOM     30  O   UNL     1       5.979   9.200  -3.162  0.00  0.00    -0.153 OA
BRANCH  28  31
ATOM     31  C   UNL     1       5.675  11.264  -1.679  0.00  0.00    +0.106 A 
ATOM     32  C   UNL     1       4.372  11.393  -2.123  0.00  0.00    +0.030 A 
ATOM     33  C   UNL     1       3.661  12.547  -1.854  0.00  0.00    +0.022 A 
ATOM     34  C   UNL     1       4.257  13.578  -1.149  0.00  0.00    +0.041 A 
ATOM     35  C   UNL     1       5.562  13.451  -0.710  0.00  0.00    +0.022 A 
ATOM     36  C   UNL     1       6.271  12.294  -0.975  0.00  0.00    +0.030 A 
ATOM     37 CL   UNL     1       3.366  15.031  -0.816  0.00  0.00    -0.084 Cl
ENDBRANCH  28  31
ENDBRANCH  26  28
ENDBRANCH   2  22
TORSDOF 5
