REMARK  Name = ZINC61443394
REMARK  5 active torsions:
REMARK  status: ('A' for Active; 'I' for Inactive)
REMARK    1  A    between atoms: C_1  and  O_2
REMARK    2  A    between atoms: O_2  and  C_3
REMARK    3  A    between atoms: C_4  and  C_9
REMARK    4  A    between atoms: C_9  and  C_11
REMARK    5  A    between atoms: C_9  and  N_22
REMARK                            x       y       z     vdW  Elec       q    Type
REMARK                         _______ _______ _______ _____ _____    ______ ____
ROOT
ATOM      1  C   UNL     1       0.056  -2.831  -0.009  0.00  0.00    -0.007 C 
ENDROOT
BRANCH   1   2
ATOM      2  C   UNL     1      -1.408  -3.029   0.286  0.00  0.00    -0.040 A 
ATOM      3  C   UNL     1      -1.821  -4.117   1.034  0.00  0.00    +0.052 A 
ATOM      4  C   UNL     1      -3.167  -4.301   1.308  0.00  0.00    +0.162 A 
ATOM      5  C   UNL     1      -4.101  -3.389   0.831  0.00  0.00    +0.163 A 
ATOM      6  C   UNL     1      -3.682  -2.301   0.080  0.00  0.00    +0.065 A 
ATOM      7  C   UNL     1      -2.337  -2.120  -0.186  0.00  0.00    +0.023 A 
ATOM      8 BR   UNL     1      -1.768  -0.631  -1.203  0.00  0.00    -0.050 Br
ATOM      9  O   UNL     1      -5.427  -3.547   1.095  0.00  0.00    -0.485 OA
ATOM     10  C   UNL     1      -5.846  -4.845   1.532  0.00  0.00    +0.270 C 
ATOM     11  C   UNL     1      -4.870  -5.326   2.614  0.00  0.00    +0.270 C 
ATOM     12  O   UNL     1      -3.558  -5.378   2.042  0.00  0.00    -0.485 OA
ENDBRANCH   1   2
BRANCH   1  14
ATOM     13  C   UNL     1       1.883  -1.306   0.802  0.00  0.00    +0.216 A 
ATOM     14  C   UNL     1       0.659  -1.921   1.030  0.00  0.00    +0.004 A 
ATOM     15  C   UNL     1       0.001  -1.688   2.225  0.00  0.00    +0.009 A 
ATOM     16  C   UNL     1       0.594  -0.843   3.154  0.00  0.00    +0.020 A 
ATOM     17  C   UNL     1       1.812  -0.265   2.859  0.00  0.00    +0.114 A 
ATOM     18  N   UNL     1       2.418  -0.511   1.713  0.00  0.00    -0.221 NA
BRANCH  13  20
ATOM     19  C   UNL     1       3.796  -0.870  -0.538  0.00  0.00    +0.279 C 
ATOM     20  O   UNL     1       2.539  -1.527  -0.365  0.00  0.00    -0.480 OA
ENDBRANCH  13  20
ENDBRANCH   1  14
BRANCH   1  21
ATOM     21  N   UNL     1       0.742  -4.130   0.020  0.00  0.00    +0.385 N 
ATOM     22  H   UNL     1       0.338  -4.739  -0.676  0.00  0.00    -0.089 HD
ATOM     23  H   UNL     1       1.722  -3.997  -0.178  0.00  0.00    -0.089 HD
ATOM     24  H   UNL     1       0.636  -4.546   0.933  0.00  0.00    -0.089 HD
ENDBRANCH   1  21
TORSDOF 4
