REMARK  Name = ZINC35587059
REMARK  9 active torsions:
REMARK  status: ('A' for Active; 'I' for Inactive)
REMARK    1  A    between atoms: C_1  and  C_2
REMARK    2  A    between atoms: C_2  and  C_3
REMARK    3  A    between atoms: C_3  and  N_4
REMARK    4  A    between atoms: N_4  and  C_5
REMARK    5  A    between atoms: C_5  and  C_7
REMARK    6  A    between atoms: C_5  and  C_18
REMARK    7  A    between atoms: C_18  and  C_19
REMARK    8  A    between atoms: C_18  and  C_20
REMARK    9  A    between atoms: C_18  and  C_21
REMARK                            x       y       z     vdW  Elec       q    Type
REMARK                         _______ _______ _______ _____ _____    ______ ____
ROOT
ATOM      1  C   UNL     1      -2.779  -3.907  -0.007  0.00  0.00    -0.042 A 
ATOM      2  C   UNL     1      -1.639  -4.541   0.457  0.00  0.00    +0.009 A 
ATOM      3  C   UNL     1      -1.579  -5.916   0.480  0.00  0.00    -0.017 A 
ATOM      4  C   UNL     1      -2.651  -6.683   0.043  0.00  0.00    +0.038 A 
ATOM      5  C   UNL     1      -3.795  -6.039  -0.423  0.00  0.00    +0.043 A 
ATOM      6  C   UNL     1      -3.856  -4.660  -0.441  0.00  0.00    +0.044 A 
ATOM      7 CL   UNL     1      -5.288  -3.866  -1.016  0.00  0.00    -0.083 Cl
ATOM      8  N   UNL     1      -2.354  -8.041   0.164  0.00  0.00    -0.285 N 
ATOM      9  C   UNL     1      -1.125  -8.250   0.665  0.00  0.00    +0.222 C 
ATOM     10  O   UNL     1      -0.606  -9.326   0.876  0.00  0.00    -0.275 OA
ATOM     11  C   UNL     1      -0.509  -6.890   0.916  0.00  0.00    +0.133 C 
ATOM     12  H   UNL     1      -2.965  -8.752  -0.085  0.00  0.00    +0.155 HD
ENDROOT
BRANCH   1  13
ATOM     13  C   UNL     1      -2.848  -2.402  -0.035  0.00  0.00    -0.034 C 
BRANCH  13  14
ATOM     14  C   UNL     1      -3.524  -1.899   1.242  0.00  0.00    -0.046 C 
ATOM     15  C   UNL     1      -3.536  -0.369   1.245  0.00  0.00    +0.009 C 
ATOM     16  C   UNL     1      -4.962  -2.421   1.297  0.00  0.00    +0.009 C 
ATOM     17  C   UNL     1      -2.751  -2.405   2.462  0.00  0.00    +0.009 C 
ENDBRANCH  13  14
BRANCH  13  18
ATOM     18  N   UNL     1      -1.489  -1.851  -0.119  0.00  0.00    +0.384 N 
ATOM     19  H   UNL     1      -0.927  -2.224   0.631  0.00  0.00    -0.085 HD
ATOM     20  H   UNL     1      -1.529  -0.845  -0.041  0.00  0.00    -0.085 HD
BRANCH  18  21
ATOM     21  C   UNL     1      -0.891  -2.218  -1.410  0.00  0.00    -0.082 C 
BRANCH  21  23
ATOM     22  C   UNL     1       1.096  -1.922  -2.895  0.00  0.00    +0.002 C 
ATOM     23  C   UNL     1       0.473  -1.539  -1.552  0.00  0.00    -0.022 C 
ENDBRANCH  21  23
ENDBRANCH  18  21
ENDBRANCH  13  18
ENDBRANCH   1  13
TORSDOF 5
