REMARK  Name = ZINC39982502
REMARK  7 active torsions:
REMARK  status: ('A' for Active; 'I' for Inactive)
REMARK    1  A    between atoms: C_1  and  C_2
REMARK    2  A    between atoms: C_4  and  C_12
REMARK    3  A    between atoms: C_12  and  C_14
REMARK    4  A    between atoms: C_14  and  C_16
REMARK    5  A    between atoms: C_14  and  O_17
REMARK    6  A    between atoms: O_17  and  C_18
REMARK    7  A    between atoms: C_18  and  C_20
REMARK                            x       y       z     vdW  Elec       q    Type
REMARK                         _______ _______ _______ _____ _____    ______ ____
ROOT
ATOM      1  C   UNL     1      -3.791  -0.970  -0.729  0.00  0.00    +0.244 C 
ATOM      2  C   UNL     1      -3.735  -2.471  -1.020  0.00  0.00    +0.061 C 
ENDROOT
BRANCH   1   3
ATOM      3  C   UNL     1      -2.427  -0.365  -0.944  0.00  0.00    +0.202 C 
ATOM      4  O   UNL     1      -2.208   0.303  -1.934  0.00  0.00    -0.288 OA
BRANCH   3   7
ATOM      5  C   UNL     1       0.007   1.480  -0.055  0.00  0.00    +0.035 C 
ATOM      6  C   UNL     1       0.013  -0.050  -0.045  0.00  0.00    +0.111 C 
ATOM      7  C   UNL     1      -1.405  -0.576   0.006  0.00  0.00    +0.030 C 
ATOM      8  C   UNL     1      -1.489  -1.306   1.178  0.00  0.00    +0.007 A 
ATOM      9  C   UNL     1      -2.539  -2.034   1.784  0.00  0.00    +0.010 A 
ATOM     10  C   UNL     1      -2.337  -2.667   2.962  0.00  0.00    +0.001 A 
ATOM     11  C   UNL     1      -1.104  -2.637   3.632  0.00  0.00    +0.002 A 
ATOM     12  C   UNL     1      -0.038  -1.970   3.139  0.00  0.00    +0.026 A 
ATOM     13  C   UNL     1      -0.172  -1.254   1.860  0.00  0.00    +0.043 A 
ATOM     14  N   UNL     1       0.674  -0.544   1.167  0.00  0.00    -0.377 N 
ATOM     15  H   UNL     1       1.596  -0.371   1.413  0.00  0.00    +0.160 HD
ENDBRANCH   3   7
ENDBRANCH   1   3
BRANCH   1  16
ATOM     16  O   UNL     1      -4.731  -0.349  -1.608  0.00  0.00    -0.450 OA
BRANCH  16  17
ATOM     17  C   UNL     1      -6.006  -0.271  -1.183  0.00  0.00    +0.341 C 
ATOM     18  O   UNL     1      -6.312  -0.718  -0.097  0.00  0.00    -0.245 OA
BRANCH  17  19
ATOM     19  C   UNL     1      -7.037   0.360  -2.042  0.00  0.00    +0.073 A 
ATOM     20  C   UNL     1      -8.354   0.339  -1.682  0.00  0.00    +0.085 A 
ATOM     21  C   UNL     1      -9.346   0.970  -2.550  0.00  0.00    +0.250 A 
ATOM     22  N   UNL     1      -8.982   1.569  -3.696  0.00  0.00    -0.322 N 
ATOM     23  C   UNL     1      -7.663   1.611  -4.096  0.00  0.00    +0.050 A 
ATOM     24  C   UNL     1      -6.662   1.027  -3.298  0.00  0.00    +0.012 A 
ATOM     25  C   UNL     1      -5.327   1.080  -3.708  0.00  0.00    +0.011 A 
ATOM     26  C   UNL     1      -4.999   1.704  -4.878  0.00  0.00    +0.001 A 
ATOM     27  C   UNL     1      -5.982   2.288  -5.665  0.00  0.00    +0.002 A 
ATOM     28  C   UNL     1      -7.307   2.236  -5.288  0.00  0.00    +0.026 A 
ATOM     29  O   UNL     1     -10.521   0.952  -2.229  0.00  0.00    -0.268 OA
ATOM     30  H   UNL     1      -9.660   1.980  -4.255  0.00  0.00    +0.169 HD
ENDBRANCH  17  19
ENDBRANCH  16  17
ENDBRANCH   1  16
TORSDOF 5
