REMARK  Name = ZINC35747262
REMARK  15 active torsions:
REMARK  status: ('A' for Active; 'I' for Inactive)
REMARK    1  A    between atoms: C_1  and  C_2
REMARK    2  A    between atoms: C_7  and  C_8
REMARK    3  A    between atoms: C_17  and  C_19
REMARK    4  A    between atoms: C_19  and  N_20
REMARK    5  A    between atoms: N_20  and  C_21
REMARK    6  A    between atoms: N_20  and  C_26
REMARK    7  A    between atoms: C_21  and  C_22
REMARK    8  A    between atoms: C_22  and  C_23
REMARK    9  A    between atoms: C_23  and  C_24
REMARK   10  A    between atoms: C_23  and  C_25
REMARK   11  A    between atoms: C_26  and  C_27
REMARK   12  A    between atoms: C_27  and  C_29
REMARK   13  A    between atoms: C_27  and  O_38
REMARK   14  A    between atoms: C_29  and  O_30
REMARK   15  A    between atoms: O_30  and  C_31
REMARK                            x       y       z     vdW  Elec       q    Type
REMARK                         _______ _______ _______ _____ _____    ______ ____
ROOT
ATOM      1  N   UNL     1      -3.530   3.651   5.893  0.00  0.00    +0.386 N 
ATOM      2  H   UNL     1      -3.111   3.003   6.544  0.00  0.00    -0.081 HD
ENDROOT
BRANCH   1   3
ATOM      3  C   UNL     1      -3.834   2.954   4.636  0.00  0.00    -0.003 C 
BRANCH   3  13
ATOM      4  C   UNL     1       1.005   0.554   2.816  0.00  0.00    +0.004 A 
ATOM      5  C   UNL     1       2.049   0.798   3.645  0.00  0.00    +0.056 A 
ATOM      6  S   UNL     1       1.325   1.786   4.940  0.00  0.00    -0.076 S 
ATOM      7  C   UNL     1      -0.345   1.849   4.344  0.00  0.00    +0.116 A 
ATOM      8  C   UNL     1      -0.301   1.107   3.152  0.00  0.00    +0.080 A 
ATOM      9  C   UNL     1      -1.541   0.996   2.445  0.00  0.00    +0.260 A 
ATOM     10  O   UNL     1      -1.605   0.368   1.403  0.00  0.00    -0.267 OA
ATOM     11  N   UNL     1      -2.635   1.596   2.949  0.00  0.00    -0.312 N 
ATOM     12  H   UNL     1      -3.478   1.525   2.474  0.00  0.00    +0.170 HD
ATOM     13  C   UNL     1      -2.583   2.299   4.110  0.00  0.00    +0.094 A 
ATOM     14  N   UNL     1      -1.469   2.411   4.782  0.00  0.00    -0.229 NA
BRANCH   4  21
ATOM     15  C   UNL     1       0.655   1.790   0.223  0.00  0.00    +0.044 C 
ATOM     16  C   UNL     1       1.023   0.332   0.333  0.00  0.00    -0.043 A 
ATOM     17  C   UNL     1       1.202  -0.423  -0.808  0.00  0.00    +0.004 A 
ATOM     18  C   UNL     1       1.540  -1.761  -0.709  0.00  0.00    +0.000 A 
ATOM     19  C   UNL     1       1.701  -2.349   0.533  0.00  0.00    +0.001 A 
ATOM     20  C   UNL     1       1.524  -1.604   1.680  0.00  0.00    +0.009 A 
ATOM     21  C   UNL     1       1.190  -0.254   1.587  0.00  0.00    -0.014 A 
ENDBRANCH   4  21
ENDBRANCH   3  13
ENDBRANCH   1   3
BRANCH   1  22
ATOM     22  C   UNL     1      -2.596   4.753   5.629  0.00  0.00    -0.078 C 
BRANCH  22  23
ATOM     23  C   UNL     1      -2.163   5.383   6.954  0.00  0.00    -0.016 C 
BRANCH  23  24
ATOM     24  C   UNL     1      -1.088   6.439   6.689  0.00  0.00    -0.019 C 
ATOM     25  C   UNL     1      -1.689   7.585   5.873  0.00  0.00    +0.007 C 
ATOM     26  C   UNL     1      -0.566   6.981   8.022  0.00  0.00    +0.007 C 
ENDBRANCH  23  24
ENDBRANCH  22  23
ENDBRANCH   1  22
BRANCH   1  27
ATOM     27  C   UNL     1      -4.771   4.187   6.468  0.00  0.00    -0.043 C 
BRANCH  27  28
ATOM     28  C   UNL     1      -5.690   3.031   6.868  0.00  0.00    +0.135 C 
BRANCH  28  29
ATOM     29  O   UNL     1      -5.033   2.216   7.841  0.00  0.00    -0.390 OA
ATOM     30  H   UNL     1      -4.859   2.666   8.679  0.00  0.00    +0.210 HD
ENDBRANCH  28  29
BRANCH  28  31
ATOM     31  C   UNL     1      -6.985   3.590   7.461  0.00  0.00    +0.258 C 
BRANCH  31  32
ATOM     32  O   UNL     1      -7.889   2.516   7.727  0.00  0.00    -0.489 OA
BRANCH  32  33
ATOM     33  C   UNL     1      -9.096   2.843   8.260  0.00  0.00    +0.121 A 
ATOM     34  C   UNL     1      -9.405   4.171   8.516  0.00  0.00    +0.047 A 
ATOM     35  C   UNL     1     -10.632   4.502   9.058  0.00  0.00    +0.023 A 
ATOM     36  C   UNL     1     -11.552   3.509   9.345  0.00  0.00    +0.041 A 
ATOM     37  C   UNL     1     -11.246   2.184   9.091  0.00  0.00    +0.023 A 
ATOM     38  C   UNL     1     -10.023   1.850   8.543  0.00  0.00    +0.047 A 
ATOM     39 CL   UNL     1     -13.093   3.927  10.027  0.00  0.00    -0.084 Cl
ENDBRANCH  32  33
ENDBRANCH  31  32
ENDBRANCH  28  31
ENDBRANCH  27  28
ENDBRANCH   1  27
TORSDOF 12
