REMARK  Name = ZINC39693546
REMARK  12 active torsions:
REMARK  status: ('A' for Active; 'I' for Inactive)
REMARK    1  A    between atoms: C_1  and  C_2
REMARK    2  A    between atoms: C_2  and  C_3
REMARK    3  A    between atoms: C_2  and  C_4
REMARK    4  A    between atoms: C_2  and  O_5
REMARK    5  A    between atoms: O_5  and  C_6
REMARK    6  A    between atoms: N_8  and  C_9
REMARK    7  A    between atoms: C_9  and  C_10
REMARK    8  A    between atoms: C_10  and  N_11
REMARK    9  A    between atoms: C_12  and  C_14
REMARK   10  A    between atoms: C_25  and  C_27
REMARK   11  A    between atoms: C_30  and  O_34
REMARK   12  A    between atoms: O_34  and  C_35
REMARK                            x       y       z     vdW  Elec       q    Type
REMARK                         _______ _______ _______ _____ _____    ______ ____
ROOT
ATOM      1  C   UNL     1       7.595   0.092  -5.718  0.00  0.00    +0.100 C 
ATOM      2  C   UNL     1       7.973   1.590  -5.773  0.00  0.00    +0.121 C 
ATOM      3  N   UNL     1       9.096   1.658  -6.737  0.00  0.00    -0.296 N 
ATOM      4  C   UNL     1       8.724   0.699  -7.805  0.00  0.00    +0.115 C 
ATOM      5  C   UNL     1       8.089  -0.488  -7.054  0.00  0.00    -0.004 C 
ATOM      6  C   UNL     1       6.917  -1.050  -7.852  0.00  0.00    -0.010 C 
ATOM      7  C   UNL     1       7.440  -1.674  -9.149  0.00  0.00    -0.082 C 
ATOM      8  N   UNL     1       8.396  -2.741  -8.830  0.00  0.00    +0.379 N 
ATOM      9  C   UNL     1       9.565  -2.177  -8.144  0.00  0.00    -0.082 C 
ATOM     10  C   UNL     1       9.132  -1.574  -6.804  0.00  0.00    -0.010 C 
ATOM     11  C   UNL     1      10.206   2.419  -6.660  0.00  0.00    +0.247 C 
ATOM     12  O   UNL     1      10.432   3.064  -5.654  0.00  0.00    -0.270 OA
ATOM     13  H   UNL     1       7.953  -3.421  -8.231  0.00  0.00    -0.086 HD
ATOM     14  H   UNL     1       8.693  -3.191  -9.683  0.00  0.00    -0.086 HD
ENDROOT
BRANCH  11  15
ATOM     15  C   UNL     1      11.146   2.469  -7.796  0.00  0.00    +0.040 A 
ATOM     16  C   UNL     1      10.717   2.112  -9.077  0.00  0.00    +0.036 A 
ATOM     17  C   UNL     1      11.599   2.160 -10.135  0.00  0.00    +0.085 A 
ATOM     18  C   UNL     1      12.914   2.563  -9.930  0.00  0.00    +0.157 A 
ATOM     19  C   UNL     1      13.344   2.919  -8.656  0.00  0.00    +0.085 A 
ATOM     20  C   UNL     1      12.467   2.880  -7.594  0.00  0.00    +0.036 A 
ATOM     21 CL   UNL     1      14.987   3.421  -8.406  0.00  0.00    -0.080 Cl
ATOM     22 CL   UNL     1      11.067   1.717 -11.727  0.00  0.00    -0.080 Cl
BRANCH  18  23
ATOM     23  O   UNL     1      13.779   2.609 -10.975  0.00  0.00    -0.492 OA
ATOM     24  C   UNL     1      13.858   3.838 -11.699  0.00  0.00    +0.277 C 
ENDBRANCH  18  23
ENDBRANCH  11  15
BRANCH   1  26
ATOM     25  N   UNL     1       5.589  -1.136  -4.953  0.00  0.00    -0.314 N 
ATOM     26  C   UNL     1       6.102  -0.068  -5.597  0.00  0.00    +0.218 C 
ATOM     27  O   UNL     1       5.361   0.763  -6.078  0.00  0.00    -0.275 OA
ATOM     28  H   UNL     1       6.181  -1.800  -4.568  0.00  0.00    +0.149 HD
BRANCH  25  29
ATOM     29  C   UNL     1       4.137  -1.292  -4.835  0.00  0.00    +0.123 C 
BRANCH  29  30
ATOM     30  C   UNL     1       3.823  -2.576  -4.066  0.00  0.00    +0.126 C 
BRANCH  30  33
ATOM     31  C   UNL     1       1.858  -3.800  -3.304  0.00  0.00    +0.401 C 
ATOM     32  O   UNL     1       2.600  -4.633  -2.821  0.00  0.00    -0.226 OA
ATOM     33  N   UNL     1       2.371  -2.732  -3.947  0.00  0.00    -0.280 N 
ATOM     34  H   UNL     1       1.779  -2.068  -4.333  0.00  0.00    +0.152 HD
BRANCH  31  35
ATOM     35  O   UNL     1       0.524  -3.943  -3.195  0.00  0.00    -0.445 OA
BRANCH  35  37
ATOM     36  C   UNL     1       0.580  -5.083  -1.065  0.00  0.00    +0.055 C 
ATOM     37  C   UNL     1       0.050  -5.098  -2.500  0.00  0.00    +0.107 C 
ATOM     38  C   UNL     1       0.543  -6.360  -3.212  0.00  0.00    +0.055 C 
ATOM     39  C   UNL     1      -1.480  -5.089  -2.479  0.00  0.00    +0.055 C 
ENDBRANCH  35  37
ENDBRANCH  31  35
ENDBRANCH  30  33
ENDBRANCH  29  30
ENDBRANCH  25  29
ENDBRANCH   1  26
TORSDOF 8
