REMARK  Name = ZINC59942070
REMARK  11 active torsions:
REMARK  status: ('A' for Active; 'I' for Inactive)
REMARK    1  A    between atoms: C_1  and  C_2
REMARK    2  A    between atoms: C_2  and  O_3
REMARK    3  A    between atoms: O_3  and  C_4
REMARK    4  A    between atoms: C_4  and  C_6
REMARK    5  A    between atoms: C_10  and  N_11
REMARK    6  A    between atoms: C_12  and  C_14
REMARK    7  A    between atoms: C_14  and  S_15
REMARK    8  A    between atoms: S_15  and  C_16
REMARK    9  A    between atoms: C_21  and  N_30
REMARK   10  A    between atoms: N_22  and  C_23
REMARK   11  A    between atoms: C_27  and  C_29
REMARK                            x       y       z     vdW  Elec       q    Type
REMARK                         _______ _______ _______ _____ _____    ______ ____
ROOT
ATOM      1  N   UNL     1       4.703   0.109   1.933  0.00  0.00    -0.279 N 
ATOM      2  C   UNL     1       5.827  -0.633   1.986  0.00  0.00    +0.228 C 
ATOM      3  O   UNL     1       6.225  -1.055   3.051  0.00  0.00    -0.275 OA
ATOM      4  H   UNL     1       4.384   0.446   1.081  0.00  0.00    +0.155 HD
ENDROOT
BRANCH   1   9
ATOM      5  C   UNL     1       2.842   1.125   3.233  0.00  0.00    +0.091 A 
ATOM      6  C   UNL     1       2.282   1.284   4.581  0.00  0.00    -0.021 A 
ATOM      7  C   UNL     1       3.029   0.691   5.529  0.00  0.00    -0.004 A 
ATOM      8  S   UNL     1       4.367  -0.084   4.663  0.00  0.00    -0.077 S 
ATOM      9  C   UNL     1       4.002   0.389   3.096  0.00  0.00    +0.086 A 
ATOM     10  C   UNL     1       2.835   0.717   7.019  0.00  0.00    +0.043 C 
ATOM     11  C   UNL     1       3.356   2.075   7.523  0.00  0.00    +0.005 C 
ATOM     12  C   UNL     1       2.654   3.181   6.729  0.00  0.00    +0.000 C 
ATOM     13  C   UNL     1       1.179   3.038   7.046  0.00  0.00    +0.000 C 
ATOM     14  C   UNL     1       0.469   1.996   6.201  0.00  0.00    +0.005 C 
ATOM     15  C   UNL     1       0.950   2.006   4.755  0.00  0.00    +0.037 C 
BRANCH   5  16
ATOM     16  C   UNL     1       2.186   1.724   2.069  0.00  0.00    +0.342 C 
ATOM     17  O   UNL     1       1.343   1.097   1.456  0.00  0.00    -0.245 OA
BRANCH  16  18
ATOM     18  O   UNL     1       2.517   2.972   1.676  0.00  0.00    -0.461 OA
BRANCH  18  20
ATOM     19  C   UNL     1       2.342   4.908   0.241  0.00  0.00    +0.048 C 
ATOM     20  C   UNL     1       1.838   3.493   0.532  0.00  0.00    +0.229 C 
ENDBRANCH  18  20
ENDBRANCH  16  18
ENDBRANCH   5  16
ENDBRANCH   1   9
BRANCH   2  21
ATOM     21  C   UNL     1       6.589  -0.938   0.723  0.00  0.00    +0.173 C 
BRANCH  21  22
ATOM     22  S   UNL     1       8.043  -1.947   1.122  0.00  0.00    -0.078 S 
BRANCH  22  23
ATOM     23  C   UNL     1       8.817  -2.215  -0.438  0.00  0.00    +0.179 A 
ATOM     24  N   UNL     1       8.283  -1.695  -1.523  0.00  0.00    -0.185 NA
ATOM     25  C   UNL     1       8.846  -1.880  -2.727  0.00  0.00    +0.276 A 
ATOM     26  O   UNL     1       8.337  -1.389  -3.725  0.00  0.00    -0.266 OA
ATOM     27  C   UNL     1      10.028  -2.640  -2.837  0.00  0.00    +0.114 A 
ATOM     28  C   UNL     1      10.575  -3.176  -1.708  0.00  0.00    +0.108 A 
ATOM     29  N   UNL     1       9.963  -2.954  -0.500  0.00  0.00    -0.277 N 
BRANCH  29  30
ATOM     30  C   UNL     1      10.512  -3.490   0.672  0.00  0.00    +0.050 A 
ATOM     31  C   UNL     1      10.139  -4.758   1.099  0.00  0.00    +0.026 A 
ATOM     32  C   UNL     1      10.683  -5.284   2.254  0.00  0.00    +0.002 A 
ATOM     33  C   UNL     1      11.599  -4.550   2.985  0.00  0.00    +0.003 A 
ATOM     34  C   UNL     1      11.973  -3.288   2.563  0.00  0.00    -0.048 A 
ATOM     35  C   UNL     1      11.436  -2.758   1.405  0.00  0.00    +0.029 A 
ATOM     36  C   UNL     1      12.970  -2.491   3.363  0.00  0.00    +0.044 C 
ENDBRANCH  29  30
BRANCH  28  37
ATOM     37  N   UNL     1      11.727  -3.925  -1.779  0.00  0.00    -0.344 N 
ATOM     38  H   UNL     1      12.112  -4.144  -2.642  0.00  0.00    +0.144 HD
ATOM     39  H   UNL     1      12.156  -4.234  -0.965  0.00  0.00    +0.144 HD
ENDBRANCH  28  37
ENDBRANCH  22  23
ENDBRANCH  21  22
ENDBRANCH   2  21
TORSDOF 9
