REMARK  Name = ZINC20098183
REMARK  9 active torsions:
REMARK  status: ('A' for Active; 'I' for Inactive)
REMARK    1  A    between atoms: C_1  and  C_2
REMARK    2  A    between atoms: C_7  and  C_15
REMARK    3  A    between atoms: C_13  and  C_14
REMARK    4  A    between atoms: C_15  and  C_17
REMARK    5  A    between atoms: C_15  and  N_30
REMARK    6  A    between atoms: N_21  and  C_22
REMARK    7  A    between atoms: C_22  and  C_23
REMARK    8  A    between atoms: C_23  and  C_24
REMARK    9  A    between atoms: N_33  and  C_36
REMARK                            x       y       z     vdW  Elec       q    Type
REMARK                         _______ _______ _______ _____ _____    ______ ____
ROOT
ATOM      1  C   UNL     1       4.503  -4.043  -1.510  0.00  0.00    +0.162 C 
ENDROOT
BRANCH   1   8
ATOM      2  C   UNL     1       2.968  -6.854  -8.815  0.00  0.00    +0.044 C 
ATOM      3  C   UNL     1       3.045  -6.229  -7.446  0.00  0.00    -0.046 A 
ATOM      4  C   UNL     1       1.966  -5.500  -6.962  0.00  0.00    +0.004 A 
ATOM      5  C   UNL     1       2.015  -4.925  -5.724  0.00  0.00    +0.010 A 
ATOM      6  C   UNL     1       3.161  -5.073  -4.936  0.00  0.00    -0.001 A 
ATOM      7  C   UNL     1       3.245  -4.476  -3.601  0.00  0.00    +0.021 A 
ATOM      8  C   UNL     1       4.383  -4.648  -2.885  0.00  0.00    +0.042 A 
ATOM      9  C   UNL     1       5.452  -5.398  -3.419  0.00  0.00    +0.254 A 
ATOM     10  O   UNL     1       6.465  -5.544  -2.756  0.00  0.00    -0.268 OA
ATOM     11  N   UNL     1       5.383  -5.954  -4.641  0.00  0.00    -0.322 N 
ATOM     12  H   UNL     1       6.233  -6.533  -5.031  0.00  0.00    +0.169 HD
ATOM     13  C   UNL     1       4.256  -5.811  -5.422  0.00  0.00    +0.052 A 
ATOM     14  C   UNL     1       4.184  -6.386  -6.687  0.00  0.00    -0.024 A 
ATOM     15  C   UNL     1       5.347  -7.180  -7.224  0.00  0.00    +0.046 C 
ENDBRANCH   1   8
BRANCH   1  16
ATOM     16  N   UNL     1       4.838  -5.094  -0.539  0.00  0.00    -0.292 NA
ATOM     17  C   UNL     1       3.845  -6.177  -0.572  0.00  0.00    +0.067 C 
ATOM     18  C   UNL     1       4.272  -7.286   0.393  0.00  0.00    -0.063 C 
ATOM     19  N   UNL     1       4.397  -6.731   1.748  0.00  0.00    +0.383 N 
ATOM     20  C   UNL     1       5.390  -5.648   1.780  0.00  0.00    -0.063 C 
ATOM     21  C   UNL     1       4.964  -4.539   0.816  0.00  0.00    +0.067 C 
ATOM     22  H   UNL     1       3.423  -6.307   2.033  0.00  0.00    -0.081 HD
BRANCH  19  23
ATOM     23  C   UNL     1       4.732  -7.782   2.718  0.00  0.00    -0.068 C 
ATOM     24  C   UNL     1       6.106  -8.366   2.383  0.00  0.00    -0.015 C 
ATOM     25  C   UNL     1       6.455  -9.460   3.393  0.00  0.00    -0.002 C 
ATOM     26  C   UNL     1       5.401 -10.568   3.330  0.00  0.00    -0.000 C 
ATOM     27  C   UNL     1       4.027  -9.984   3.665  0.00  0.00    -0.002 C 
ATOM     28  C   UNL     1       3.678  -8.889   2.655  0.00  0.00    -0.015 C 
ENDBRANCH  19  23
ENDBRANCH   1  16
BRANCH   1  29
ATOM     29  C   UNL     1       5.589  -2.998  -1.514  0.00  0.00    +0.173 A 
ATOM     30  N   UNL     1       6.882  -3.214  -1.528  0.00  0.00    -0.111 NA
ATOM     31  N   UNL     1       7.476  -2.070  -1.528  0.00  0.00    -0.023 NA
ATOM     32  N   UNL     1       6.595  -1.131  -1.519  0.00  0.00    -0.044 NA
ATOM     33  N   UNL     1       5.420  -1.663  -1.505  0.00  0.00    -0.227 N 
BRANCH  33  34
ATOM     34  C   UNL     1       4.142  -0.948  -1.488  0.00  0.00    +0.152 C 
BRANCH  34  35
ATOM     35  C   UNL     1       3.711  -0.707  -0.039  0.00  0.00    +0.058 C 
BRANCH  35  36
ATOM     36  C   UNL     1       2.396   0.029  -0.022  0.00  0.00    -0.046 A 
ATOM     37  C   UNL     1       1.208  -0.679  -0.014  0.00  0.00    +0.004 A 
ATOM     38  C   UNL     1       0.002  -0.004   0.002  0.00  0.00    +0.000 A 
ATOM     39  C   UNL     1      -0.017   1.378   0.010  0.00  0.00    +0.000 A 
ATOM     40  C   UNL     1       1.171   2.086   0.002  0.00  0.00    +0.000 A 
ATOM     41  C   UNL     1       2.377   1.411  -0.014  0.00  0.00    +0.004 A 
ENDBRANCH  35  36
ENDBRANCH  34  35
ENDBRANCH  33  34
ENDBRANCH   1  29
TORSDOF 7
