REMARK  Name = ZINC09686486
REMARK  7 active torsions:
REMARK  status: ('A' for Active; 'I' for Inactive)
REMARK    1  A    between atoms: C_1  and  C_2
REMARK    2  A    between atoms: C_5  and  N_9
REMARK    3  A    between atoms: C_6  and  C_8
REMARK    4  A    between atoms: N_9  and  S_10
REMARK    5  A    between atoms: S_10  and  C_13
REMARK    6  A    between atoms: C_16  and  C_18
REMARK    7  A    between atoms: C_20  and  C_24
REMARK                            x       y       z     vdW  Elec       q    Type
REMARK                         _______ _______ _______ _____ _____    ______ ____
ROOT
ATOM      1  S   UNL     1       2.471   4.414   0.027  0.00  0.00    +0.079 S 
ATOM      2  O   UNL     1       2.027   5.665   0.535  0.00  0.00    -0.149 OA
ATOM      3  O   UNL     1       3.590   3.726   0.568  0.00  0.00    -0.149 OA
ENDROOT
BRANCH   1   4
ATOM      4  C   UNL     1       1.101   3.311   0.137  0.00  0.00    +0.146 A 
ATOM      5  C   UNL     1       1.101   1.955   0.204  0.00  0.00    +0.037 A 
ATOM      6  C   UNL     1      -0.101   1.287   0.285  0.00  0.00    +0.019 A 
ATOM      7  C   UNL     1      -1.261   2.017   0.289  0.00  0.00    +0.039 A 
ATOM      8  S   UNL     1      -0.643   3.689   0.188  0.00  0.00    -0.067 S 
BRANCH   7   9
ATOM      9  C   UNL     1      -2.655   1.546   0.361  0.00  0.00    +0.073 A 
ATOM     10  C   UNL     1      -3.788   2.333   0.367  0.00  0.00    +0.053 A 
ATOM     11  C   UNL     1      -4.892   1.485   0.442  0.00  0.00    +0.060 A 
ATOM     12  N   UNL     1      -4.468   0.247   0.489  0.00  0.00    -0.179 NA
ATOM     13  N   UNL     1      -3.069   0.248   0.440  0.00  0.00    -0.276 N 
ATOM     14  H   UNL     1      -2.478  -0.559   0.460  0.00  0.00    +0.189 HD
ATOM     15  C   UNL     1      -6.334   1.921   0.471  0.00  0.00    +0.067 C 
ENDBRANCH   7   9
ENDBRANCH   1   4
BRANCH   1  16
ATOM     16  N   UNL     1       2.788   4.643  -1.582  0.00  0.00    -0.216 N 
ATOM     17  H   UNL     1       3.652   4.396  -1.946  0.00  0.00    +0.174 HD
BRANCH  16  22
ATOM     18  C   UNL     1      -1.180   6.870  -4.966  0.00  0.00    +0.044 C 
ATOM     19  C   UNL     1      -0.126   6.278  -4.067  0.00  0.00    -0.050 A 
ATOM     20  C   UNL     1      -0.013   6.711  -2.758  0.00  0.00    +0.005 A 
ATOM     21  C   UNL     1       0.952   6.171  -1.932  0.00  0.00    +0.025 A 
ATOM     22  C   UNL     1       1.810   5.191  -2.416  0.00  0.00    +0.051 A 
ATOM     23  C   UNL     1       1.696   4.761  -3.732  0.00  0.00    -0.028 A 
ATOM     24  C   UNL     1       0.726   5.303  -4.552  0.00  0.00    +0.008 A 
ATOM     25  C   UNL     1       2.628   3.703  -4.263  0.00  0.00    +0.046 C 
ENDBRANCH  16  22
ENDBRANCH   1  16
TORSDOF 4
