REMARK  Name = ZINC00035020
REMARK  6 active torsions:
REMARK  status: ('A' for Active; 'I' for Inactive)
REMARK    1  A    between atoms: C_1  and  O_2
REMARK    2  A    between atoms: O_2  and  C_3
REMARK    3  A    between atoms: C_5  and  C_12
REMARK    4  A    between atoms: C_7  and  O_10
REMARK    5  A    between atoms: C_8  and  O_9
REMARK    6  A    between atoms: O_10  and  C_11
REMARK                            x       y       z     vdW  Elec       q    Type
REMARK                         _______ _______ _______ _____ _____    ______ ____
ROOT
ATOM      1  C   UNL     1       3.668   3.197   0.050  0.00  0.00    +0.060 C 
ATOM      2  C   UNL     1       4.708   4.001  -0.732  0.00  0.00    +0.109 C 
ATOM      3  C   UNL     1       4.650   5.446  -0.310  0.00  0.00    +0.218 C 
ATOM      4  O   UNL     1       5.675   6.089  -0.225  0.00  0.00    -0.275 OA
ATOM      5  N   UNL     1       3.473   6.028  -0.026  0.00  0.00    -0.285 N 
ATOM      6  C   UNL     1       2.288   5.285  -0.008  0.00  0.00    +0.038 A 
ATOM      7  C   UNL     1       2.340   3.908   0.009  0.00  0.00    -0.011 A 
ATOM      8  C   UNL     1       1.147   3.168   0.008  0.00  0.00    -0.012 A 
ATOM      9  C   UNL     1       1.163   1.762   0.000  0.00  0.00    +0.009 A 
ATOM     10  C   UNL     1      -0.013   1.076   0.008  0.00  0.00    +0.001 A 
ATOM     11  C   UNL     1      -1.235   1.746   0.017  0.00  0.00    +0.001 A 
ATOM     12  C   UNL     1      -1.289   3.106   0.029  0.00  0.00    +0.008 A 
ATOM     13  C   UNL     1      -0.096   3.849   0.019  0.00  0.00    -0.017 A 
ATOM     14  C   UNL     1      -0.114   5.255   0.021  0.00  0.00    +0.010 A 
ATOM     15  C   UNL     1       1.054   5.947   0.004  0.00  0.00    +0.024 A 
ATOM     16  H   UNL     1       3.443   6.978   0.168  0.00  0.00    +0.155 HD
ENDROOT
BRANCH   1  19
ATOM     17  C   UNL     1       4.740   1.663   3.333  0.00  0.00    +0.165 A 
ATOM     18  C   UNL     1       4.328   1.798   2.016  0.00  0.00    +0.054 A 
ATOM     19  C   UNL     1       4.116   3.055   1.481  0.00  0.00    -0.032 A 
ATOM     20  C   UNL     1       4.320   4.182   2.255  0.00  0.00    +0.054 A 
ATOM     21  C   UNL     1       4.727   4.056   3.574  0.00  0.00    +0.165 A 
ATOM     22  C   UNL     1       4.941   2.793   4.115  0.00  0.00    +0.201 A 
BRANCH  17  24
ATOM     23  C   UNL     1       4.720  -0.692   2.995  0.00  0.00    +0.277 C 
ATOM     24  O   UNL     1       4.947   0.425   3.858  0.00  0.00    -0.491 OA
ENDBRANCH  17  24
BRANCH  22  25
ATOM     25  O   UNL     1       5.345   2.665   5.409  0.00  0.00    -0.501 OA
ATOM     26  H   UNL     1       6.305   2.658   5.522  0.00  0.00    +0.292 HD
ENDBRANCH  22  25
BRANCH  21  27
ATOM     27  O   UNL     1       4.922   5.165   4.336  0.00  0.00    -0.491 OA
ATOM     28  C   UNL     1       4.684   6.429   3.715  0.00  0.00    +0.277 C 
ENDBRANCH  21  27
ENDBRANCH   1  19
TORSDOF 4
