REMARK  Name = ZINC32957291
REMARK  7 active torsions:
REMARK  status: ('A' for Active; 'I' for Inactive)
REMARK    1  A    between atoms: C_6  and  C_7
REMARK    2  A    between atoms: C_7  and  C_8
REMARK    3  A    between atoms: C_11  and  S_14
REMARK    4  A    between atoms: N_12  and  N_13
REMARK    5  A    between atoms: S_14  and  C_15
REMARK    6  A    between atoms: C_15  and  C_16
REMARK    7  A    between atoms: N_18  and  C_19
REMARK                            x       y       z     vdW  Elec       q    Type
REMARK                         _______ _______ _______ _____ _____    ______ ____
ROOT
ATOM      1  C   UNL     1       3.901  10.188   0.645  0.00  0.00    +0.155 A 
ATOM      2  N   UNL     1       2.636   9.882   0.578  0.00  0.00    -0.132 NA
ATOM      3  N   UNL     1       2.496   8.609   0.470  0.00  0.00    -0.121 NA
ATOM      4  C   UNL     1       3.674   8.030   0.462  0.00  0.00    +0.209 A 
ATOM      5  N   UNL     1       4.607   9.019   0.579  0.00  0.00    -0.228 N 
ENDROOT
BRANCH   5   6
ATOM      6  N   UNL     1       5.965   8.873   0.619  0.00  0.00    -0.295 N 
ATOM      7  H   UNL     1       6.412   7.869   0.557  0.00  0.00    +0.163 HD
ATOM      8  H   UNL     1       6.611   9.758   0.714  0.00  0.00    +0.163 HD
ENDBRANCH   5   6
BRANCH   1   9
ATOM      9  C   UNL     1       4.478  11.574   0.776  0.00  0.00    +0.113 C 
BRANCH   9  15
ATOM     10  C   UNL     1       3.587  12.546   2.904  0.00  0.00    +0.005 A 
ATOM     11  C   UNL     1       3.717  12.861   4.243  0.00  0.00    +0.015 A 
ATOM     12  C   UNL     1       4.890  12.560   4.913  0.00  0.00    +0.018 A 
ATOM     13  C   UNL     1       5.929  11.939   4.243  0.00  0.00    +0.015 A 
ATOM     14  C   UNL     1       5.795  11.621   2.904  0.00  0.00    +0.005 A 
ATOM     15  C   UNL     1       4.623  11.922   2.236  0.00  0.00    -0.040 A 
ATOM     16 BR   UNL     1       5.072  12.995   6.744  0.00  0.00    -0.050 Br
ENDBRANCH   9  15
ENDBRANCH   1   9
BRANCH   4  17
ATOM     17  S   UNL     1       3.991   6.301   0.332  0.00  0.00    -0.075 S 
BRANCH  17  18
ATOM     18  C   UNL     1       2.295   5.678   0.225  0.00  0.00    +0.173 C 
BRANCH  18  19
ATOM     19  C   UNL     1       2.319   4.176   0.104  0.00  0.00    +0.228 C 
ATOM     20  O   UNL     1       3.378   3.585   0.091  0.00  0.00    -0.275 OA
ATOM     21  N   UNL     1       1.163   3.489   0.009  0.00  0.00    -0.282 N 
ATOM     22  H   UNL     1       0.207   4.029  -0.071  0.00  0.00    +0.155 HD
BRANCH  21  23
ATOM     23  C   UNL     1       1.178   2.089   0.013  0.00  0.00    +0.072 A 
ATOM     24  C   UNL     1       2.230   1.407   0.608  0.00  0.00    +0.064 A 
ATOM     25  C   UNL     1       2.243   0.023   0.609  0.00  0.00    +0.125 A 
ATOM     26  C   UNL     1       1.206  -0.680   0.019  0.00  0.00    +0.041 A 
ATOM     27  C   UNL     1       0.157  -0.003  -0.574  0.00  0.00    +0.043 A 
ATOM     28  C   UNL     1       0.139   1.380  -0.579  0.00  0.00    +0.145 A 
ATOM     29  F   UNL     1      -0.884   2.041  -1.164  0.00  0.00    -0.204 F 
ATOM     30  F   UNL     1       3.267  -0.642   1.187  0.00  0.00    -0.205 F 
ENDBRANCH  21  23
ENDBRANCH  18  19
ENDBRANCH  17  18
ENDBRANCH   4  17
TORSDOF 7
