REMARK  Name = ZINC09312478
REMARK  17 active torsions:
REMARK  status: ('A' for Active; 'I' for Inactive)
REMARK    1  A    between atoms: C_1  and  C_2
REMARK    2  A    between atoms: C_2  and  N_78
REMARK    3  A    between atoms: C_3  and  C_4
REMARK    4  A    between atoms: C_3  and  N_78
REMARK    5  A    between atoms: C_5  and  C_6
REMARK    6  A    between atoms: C_5  and  N_78
REMARK    7  A    between atoms: C_6  and  N_7
REMARK    8  A    between atoms: C_8  and  C_28
REMARK    9  A    between atoms: C_11  and  C_12
REMARK   10  A    between atoms: C_11  and  O_23
REMARK   11  A    between atoms: C_19  and  C_22
REMARK   12  A    between atoms: C_32  and  O_34
REMARK   13  A    between atoms: O_34  and  C_35
REMARK   14  A    between atoms: C_35  and  C_36
REMARK   15  A    between atoms: C_36  and  C_37
REMARK   16  A    between atoms: C_37  and  C_38
REMARK   17  A    between atoms: C_37  and  C_39
REMARK                            x       y       z     vdW  Elec       q    Type
REMARK                         _______ _______ _______ _____ _____    ______ ____
ROOT
ATOM      1  N   UNL     1      -3.010   3.967   7.586  0.00  0.00    -0.285 N 
ATOM      2  C   UNL     1      -1.792   3.310   7.103  0.00  0.00    +0.144 C 
ATOM      3  C   UNL     1      -2.031   2.971   5.650  0.00  0.00    +0.071 C 
ATOM      4  C   UNL     1      -1.151   2.343   4.789  0.00  0.00    +0.133 C 
ATOM      5  C   UNL     1      -3.327   3.416   5.353  0.00  0.00    +0.249 C 
ATOM      6  O   UNL     1      -3.887   3.317   4.276  0.00  0.00    -0.282 OA
ATOM      7  C   UNL     1      -3.901   4.028   6.581  0.00  0.00    +0.288 C 
ATOM      8  O   UNL     1      -5.011   4.513   6.664  0.00  0.00    -0.266 OA
ENDROOT
BRANCH   4   9
ATOM      9  C   UNL     1      -1.546   2.079   3.397  0.00  0.00    +0.017 A 
ATOM     10  C   UNL     1      -1.990   3.125   2.578  0.00  0.00    +0.015 A 
ATOM     11  C   UNL     1      -2.363   2.876   1.277  0.00  0.00    +0.046 A 
ATOM     12  C   UNL     1      -2.304   1.579   0.762  0.00  0.00    +0.124 A 
ATOM     13  C   UNL     1      -1.855   0.543   1.579  0.00  0.00    -0.002 A 
ATOM     14  C   UNL     1      -1.483   0.779   2.879  0.00  0.00    +0.019 A 
ATOM     15  C   UNL     1      -1.890  -0.724   0.747  0.00  0.00    +0.083 C 
ATOM     16  C   UNL     1      -2.012  -0.160  -0.689  0.00  0.00    +0.175 C 
ATOM     17  O   UNL     1      -2.630   1.121  -0.477  0.00  0.00    -0.488 OA
ATOM     18  C   UNL     1      -0.631   0.004  -1.327  0.00  0.00    +0.052 C 
ENDBRANCH   4   9
BRANCH   2  19
ATOM     19  C   UNL     1      -1.534   2.052   7.891  0.00  0.00    -0.019 A 
ATOM     20  C   UNL     1      -2.591   1.243   8.267  0.00  0.00    +0.006 A 
ATOM     21  C   UNL     1      -2.358   0.088   8.990  0.00  0.00    +0.004 A 
ATOM     22  C   UNL     1      -1.067  -0.261   9.338  0.00  0.00    +0.045 A 
ATOM     23  C   UNL     1      -0.005   0.548   8.962  0.00  0.00    +0.121 A 
ATOM     24  C   UNL     1      -0.242   1.704   8.233  0.00  0.00    +0.051 A 
BRANCH  23  25
ATOM     25  O   UNL     1       1.265   0.207   9.304  0.00  0.00    -0.492 OA
BRANCH  25  26
ATOM     26  C   UNL     1       1.434  -1.000  10.051  0.00  0.00    +0.229 C 
BRANCH  26  27
ATOM     27  C   UNL     1       2.921  -1.216  10.340  0.00  0.00    +0.044 C 
BRANCH  27  28
ATOM     28  C   UNL     1       3.101  -2.508  11.140  0.00  0.00    -0.014 C 
ATOM     29  C   UNL     1       2.677  -3.702  10.284  0.00  0.00    +0.007 C 
ATOM     30  C   UNL     1       4.571  -2.661  11.537  0.00  0.00    +0.007 C 
ENDBRANCH  27  28
ENDBRANCH  26  27
ENDBRANCH  25  26
ENDBRANCH  23  25
ENDBRANCH   2  19
BRANCH   4  31
ATOM     31  O   UNL     1       0.072   1.973   5.225  0.00  0.00    -0.506 OA
ATOM     32  H   UNL     1       0.574   1.536   4.479  0.00  0.00    +0.292 HD
ENDBRANCH   4  31
BRANCH   1  33
ATOM     33  C   UNL     1      -3.224   4.471   8.945  0.00  0.00    +0.090 C 
BRANCH  33  34
ATOM     34  C   UNL     1      -3.828   3.364   9.810  0.00  0.00    -0.060 C 
BRANCH  34  35
ATOM     35  N   UNL     1      -4.018   3.880  11.182  0.00  0.00    +0.380 N 
ATOM     36  H   UNL     1      -3.136   4.293  11.508  0.00  0.00    -0.082 HD
BRANCH  35  38
ATOM     37  C   UNL     1      -6.413   4.330  10.767  0.00  0.00    -0.017 C 
ATOM     38  C   UNL     1      -5.066   4.922  11.189  0.00  0.00    -0.082 C 
ENDBRANCH  35  38
BRANCH  35  39
ATOM     39  C   UNL     1      -4.396   2.777  12.089  0.00  0.00    -0.082 C 
ATOM     40  C   UNL     1      -4.244   3.255  13.535  0.00  0.00    -0.017 C 
ENDBRANCH  35  39
ENDBRANCH  34  35
ENDBRANCH  33  34
ENDBRANCH   1  33
TORSDOF 12
