REMARK  Name = ZINC66205464
REMARK  4 active torsions:
REMARK  status: ('A' for Active; 'I' for Inactive)
REMARK    1  A    between atoms: C_1  and  C_2
REMARK    2  A    between atoms: C_4  and  C_7
REMARK    3  A    between atoms: C_7  and  N_8
REMARK    4  A    between atoms: C_15  and  C_17
REMARK                            x       y       z     vdW  Elec       q    Type
REMARK                         _______ _______ _______ _____ _____    ______ ____
ROOT
ATOM      1  N   UNL     1       1.331  -3.579  -2.092  0.00  0.00    -0.290 N 
ATOM      2  C   UNL     1       1.627  -4.609  -2.909  0.00  0.00    +0.303 C 
ATOM      3  O   UNL     1       0.732  -5.253  -3.423  0.00  0.00    -0.253 OA
ATOM      4  N   UNL     1       2.913  -4.925  -3.158  0.00  0.00    -0.282 N 
ATOM      5  C   UNL     1       4.089  -4.172  -2.685  0.00  0.00    +0.110 C 
ATOM      6  C   UNL     1       5.215  -4.523  -3.689  0.00  0.00    +0.021 C 
ATOM      7  C   UNL     1       4.918  -6.018  -3.980  0.00  0.00    +0.024 C 
ATOM      8  C   UNL     1       3.376  -6.080  -3.940  0.00  0.00    +0.081 C 
ATOM      9  H   UNL     1       2.044  -3.065  -1.682  0.00  0.00    +0.151 HD
ENDROOT
BRANCH   8  10
ATOM     10  C   UNL     1       2.923  -7.378  -3.268  0.00  0.00    +0.010 C 
ATOM     11  C   UNL     1       3.503  -7.466  -1.842  0.00  0.00    +0.005 C 
ATOM     12  C   UNL     1       3.836  -8.968  -1.659  0.00  0.00    +0.000 C 
ATOM     13  C   UNL     1       4.364  -9.373  -3.058  0.00  0.00    +0.000 C 
ATOM     14  C   UNL     1       3.470  -8.591  -4.041  0.00  0.00    +0.005 C 
ENDBRANCH   8  10
BRANCH   1  15
ATOM     15  C   UNL     1      -0.068  -3.236  -1.822  0.00  0.00    +0.204 C 
BRANCH  15  19
ATOM     16  C   UNL     1      -0.241   1.486  -0.158  0.00  0.00    +0.091 C 
ATOM     17  C   UNL     1      -0.199  -0.021  -0.152  0.00  0.00    +0.169 A 
ATOM     18  N   UNL     1      -0.150  -0.801  -1.238  0.00  0.00    -0.195 NA
ATOM     19  C   UNL     1      -0.124  -2.057  -0.885  0.00  0.00    +0.245 A 
ATOM     20  O   UNL     1      -0.155  -2.118   0.452  0.00  0.00    -0.336 OA
ATOM     21  N   UNL     1      -0.198  -0.774   0.909  0.00  0.00    -0.062 NA
ENDBRANCH  15  19
ENDBRANCH   1  15
TORSDOF 3
