REMARK  Name = ZINC08789050
REMARK  13 active torsions:
REMARK  status: ('A' for Active; 'I' for Inactive)
REMARK    1  A    between atoms: CG1_1  and  CB_2
REMARK    2  A    between atoms: CB_2  and  CG2_3
REMARK    3  A    between atoms: CB_2  and  CA_4
REMARK    4  A    between atoms: CA_4  and  C_6
REMARK    5  A    between atoms: CA_4  and  N_8
REMARK    6  A    between atoms: C_9  and  C_11
REMARK    7  A    between atoms: C_11  and  O_12
REMARK    8  A    between atoms: O_12  and  N_13
REMARK    9  A    between atoms: C_17  and  C_39
REMARK   10  A    between atoms: C_22  and  C_38
REMARK   11  A    between atoms: C_33  and  C_34
REMARK   12  A    between atoms: C_33  and  O_37
REMARK   13  A    between atoms: C_34  and  C_36
REMARK                            x       y       z     vdW  Elec       q    Type
REMARK                         _______ _______ _______ _____ _____    ______ ____
ROOT
ATOM      1  N   UNK A   0      -0.912   2.103   0.380  0.00  0.00    -0.089 NA
ATOM      2  C   UNK A   0       0.155   1.370   0.329  0.00  0.00    +0.080 C 
ATOM      3  C   UNK A   0       1.544   1.977   0.372  0.00  0.00    +0.059 C 
ATOM      4  C   UNK A   0       2.341   1.375  -0.784  0.00  0.00    +0.017 C 
ATOM      5  C   UNK A   0       2.401  -0.140  -0.697  0.00  0.00    -0.007 C 
ATOM      6  C   UNK A   0       2.824  -0.706  -2.058  0.00  0.00    +0.002 C 
ATOM      7  C   UNK A   0       4.184  -0.133  -2.448  0.00  0.00    +0.005 C 
ATOM      8  C   UNK A   0       4.729  -0.763  -3.739  0.00  0.00    +0.010 C 
ATOM      9  C   UNK A   0       4.801  -2.261  -3.510  0.00  0.00    +0.007 C 
ATOM     10  C   UNK A   0       3.345  -2.765  -3.323  0.00  0.00    +0.002 C 
ATOM     11  C   UNK A   0       2.857  -2.239  -1.986  0.00  0.00    -0.003 C 
ATOM     12  C   UNK A   0       1.442  -2.756  -1.712  0.00  0.00    +0.008 C 
ATOM     13  C   UNK A   0       0.997  -2.290  -0.324  0.00  0.00    +0.031 C 
ATOM     14  C   UNK A   0       1.122  -0.779  -0.251  0.00  0.00    -0.062 C 
ATOM     15  C   UNK A   0       0.084  -0.097   0.220  0.00  0.00    +0.026 C 
ATOM     16  C   UNK A   0       3.509  -4.286  -3.422  0.00  0.00    +0.008 C 
ATOM     17  C   UNK A   0       4.541  -4.442  -4.582  0.00  0.00    +0.043 C 
ATOM     18  C   UNK A   0       5.319  -3.106  -4.669  0.00  0.00    +0.129 C 
ATOM     19  C   UNK A   0       5.617  -2.554  -2.249  0.00  0.00    +0.015 C 
ATOM     20  C   UNK A   0       3.488  -0.497   0.320  0.00  0.00    +0.016 C 
ENDROOT
BRANCH  18  21
ATOM     21  C   UNK A   0       6.798  -3.352  -4.516  0.00  0.00    +0.162 C 
ATOM     22  O   UNK A   0       7.190  -4.351  -3.961  0.00  0.00    -0.295 OA
ATOM     23  C   UNK A   0       7.788  -2.352  -5.055  0.00  0.00    +0.089 C 
ENDBRANCH  18  21
BRANCH  18  24
ATOM     24  O   UNK A   0       5.053  -2.456  -5.914  0.00  0.00    -0.381 OA
ATOM     25  H   UNK A   0       5.360  -2.947  -6.688  0.00  0.00    +0.211 HD
ENDBRANCH  18  24
BRANCH   1  26
ATOM     26  O   UNK A   0      -0.799   3.511   0.485  0.00  0.00    -0.384 OA
BRANCH  26  27
ATOM     27  C   UNK A   0      -2.054   4.192   0.532  0.00  0.00    +0.358 C 
BRANCH  27  29
ATOM     28  N   VAL A   1      -2.863   6.524   0.703  0.00  0.00    -0.299 N 
ATOM     29  C   UNK A   0      -1.816   5.676   0.643  0.00  0.00    +0.254 C 
ATOM     30  O   UNK A   0      -0.683   6.108   0.679  0.00  0.00    -0.272 OA
ATOM     31  H   VAL A   1      -3.769   6.179   0.674  0.00  0.00    +0.150 HD
BRANCH  28  32
ATOM     32  CA  VAL A   1      -2.631   7.967   0.811  0.00  0.00    +0.189 C 
BRANCH  32  34
ATOM     33  CG1 VAL A   1      -3.602  10.136   1.580  0.00  0.00    +0.009 C 
ATOM     34  CB  VAL A   1      -3.844   8.630   1.468  0.00  0.00    +0.014 C 
ATOM     35  CG2 VAL A   1      -5.088   8.375   0.615  0.00  0.00    +0.009 C 
ENDBRANCH  32  34
BRANCH  32  36
ATOM     36  C   VAL A   1      -2.425   8.547  -0.565  0.00  0.00    +0.376 C 
ATOM     37  O   VAL A   1      -2.467   7.829  -1.536  0.00  0.00    -0.244 OA
ATOM     38  OXT VAL A   1      -2.195   9.861  -0.711  0.00  0.00    -0.244 OA
ENDBRANCH  32  36
ENDBRANCH  28  32
ENDBRANCH  27  29
ENDBRANCH  26  27
ENDBRANCH   1  26
TORSDOF 8
