REMARK  Name = ZINC09381937
REMARK  5 active torsions:
REMARK  status: ('A' for Active; 'I' for Inactive)
REMARK    1  A    between atoms: C_1  and  C_2
REMARK    2  A    between atoms: N_5  and  S_8
REMARK    3  A    between atoms: S_8  and  C_11
REMARK    4  A    between atoms: C_14  and  C_17
REMARK    5  A    between atoms: N_19  and  N_20
REMARK                            x       y       z     vdW  Elec       q    Type
REMARK                         _______ _______ _______ _____ _____    ______ ____
ROOT
ATOM      1  C   UNL     1       3.721   2.134  -6.629  0.00  0.00    +0.260 C 
ATOM      2  O   UNL     1       3.064   1.815  -7.601  0.00  0.00    -0.269 OA
ATOM      3  N   UNL     1       5.026   1.802  -6.559  0.00  0.00    -0.231 N 
ATOM      4  H   UNL     1       5.550   2.057  -5.784  0.00  0.00    +0.173 HD
ENDROOT
BRANCH   3   5
ATOM      5  N   UNL     1       5.624   1.090  -7.607  0.00  0.00    -0.242 N 
ATOM      6  C   UNL     1       6.961   0.750  -7.535  0.00  0.00    +0.176 A 
ATOM      7  N   UNL     1       7.826   1.008  -6.582  0.00  0.00    -0.221 NA
ATOM      8  C   UNL     1       9.116   0.606  -6.645  0.00  0.00    +0.116 A 
ATOM      9  C   UNL     1      10.142   0.812  -5.692  0.00  0.00    +0.152 A 
ATOM     10  C   UNL     1      11.411   0.339  -5.915  0.00  0.00    +0.079 A 
ATOM     11  C   UNL     1      11.733  -0.355  -7.075  0.00  0.00    +0.127 A 
ATOM     12  C   UNL     1      10.752  -0.573  -8.027  0.00  0.00    +0.055 A 
ATOM     13  C   UNL     1       9.480  -0.103  -7.811  0.00  0.00    +0.046 A 
ATOM     14  S   UNL     1       7.954  -0.146  -8.720  0.00  0.00    -0.051 S 
ATOM     15  F   UNL     1      12.989  -0.811  -7.271  0.00  0.00    -0.205 F 
ATOM     16  F   UNL     1       9.870   1.482  -4.551  0.00  0.00    -0.203 F 
ATOM     17  H   UNL     1       5.099   0.835  -8.382  0.00  0.00    +0.172 HD
ENDBRANCH   3   5
BRANCH   1  21
ATOM     18  C   UNL     1       1.907   4.294  -3.454  0.00  0.00    +0.106 A 
ATOM     19  C   UNL     1       3.247   3.960  -3.381  0.00  0.00    +0.029 A 
ATOM     20  C   UNL     1       3.841   3.254  -4.407  0.00  0.00    +0.015 A 
ATOM     21  C   UNL     1       3.090   2.886  -5.524  0.00  0.00    +0.038 A 
ATOM     22  C   UNL     1       1.739   3.231  -5.593  0.00  0.00    +0.015 A 
ATOM     23  C   UNL     1       1.156   3.933  -4.558  0.00  0.00    +0.029 A 
BRANCH  18  24
ATOM     24  S   UNL     1       1.154   5.191  -2.136  0.00  0.00    +0.061 S 
ATOM     25  O   UNL     1       0.030   5.860  -2.691  0.00  0.00    -0.153 OA
ATOM     26  O   UNL     1       2.199   5.883  -1.467  0.00  0.00    -0.153 OA
BRANCH  24  31
ATOM     27  C   UNL     1       0.002  -0.004   0.002  0.00  0.00    +0.007 C 
ATOM     28  C   UNL     1      -0.019   1.526   0.010  0.00  0.00    -0.012 C 
ATOM     29  C   UNL     1      -0.760   2.032  -1.229  0.00  0.00    +0.020 C 
ATOM     30  C   UNL     1      -0.809   3.563  -1.199  0.00  0.00    +0.110 C 
ATOM     31  N   UNL     1       0.560   4.078  -1.063  0.00  0.00    -0.177 NA
ATOM     32  C   UNL     1       1.393   3.586   0.043  0.00  0.00    +0.110 C 
ATOM     33  C   UNL     1       1.417   2.055  -0.000  0.00  0.00    +0.020 C 
ENDBRANCH  24  31
ENDBRANCH  18  24
ENDBRANCH   1  21
TORSDOF 4
