REMARK  Name = ZINC00622959
REMARK  12 active torsions:
REMARK  status: ('A' for Active; 'I' for Inactive)
REMARK    1  A    between atoms: C_1  and  C_2
REMARK    2  A    between atoms: C_2  and  C_3
REMARK    3  A    between atoms: C_3  and  C_4
REMARK    4  A    between atoms: C_11  and  N_35
REMARK    5  A    between atoms: C_12  and  C_33
REMARK    6  A    between atoms: C_13  and  C_15
REMARK    7  A    between atoms: C_18  and  O_24
REMARK    8  A    between atoms: C_19  and  O_21
REMARK    9  A    between atoms: O_21  and  C_22
REMARK   10  A    between atoms: C_22  and  C_23
REMARK   11  A    between atoms: O_24  and  C_25
REMARK   12  A    between atoms: C_25  and  C_26
REMARK                            x       y       z     vdW  Elec       q    Type
REMARK                         _______ _______ _______ _____ _____    ______ ____
ROOT
ATOM      1  C   UNL     1      -0.017   1.384   0.010  0.00  0.00    +0.071 A 
ATOM      2  C   UNL     1       0.002  -0.004   0.002  0.00  0.00    +0.049 A 
ATOM      3  C   UNL     1       1.307  -0.410  -0.013  0.00  0.00    +0.222 A 
ATOM      4  N   UNL     1       2.075   0.692  -0.014  0.00  0.00    -0.246 N 
ATOM      5  H   UNL     1       3.075   0.713  -0.023  0.00  0.00    +0.192 HD
ATOM      6  N   UNL     1       1.225   1.808   0.000  0.00  0.00    -0.176 NA
ATOM      7  O   UNL     1       1.668  -1.717  -0.025  0.00  0.00    -0.423 OA
ATOM      8  C   UNL     1       0.710  -2.627  -0.298  0.00  0.00    +0.200 C 
ATOM      9  C   UNL     1      -0.613  -2.348  -0.302  0.00  0.00    +0.098 C 
ATOM     10  C   UNL     1      -1.151  -0.974   0.009  0.00  0.00    +0.101 C 
ENDROOT
BRANCH  10  11
ATOM     11  C   UNL     1      -1.804  -0.978   1.367  0.00  0.00    -0.031 A 
ATOM     12  C   UNL     1      -1.069  -1.329   2.485  0.00  0.00    +0.008 A 
ATOM     13  C   UNL     1      -1.663  -1.334   3.733  0.00  0.00    +0.050 A 
ATOM     14  C   UNL     1      -2.998  -0.987   3.866  0.00  0.00    +0.162 A 
ATOM     15  C   UNL     1      -3.738  -0.634   2.742  0.00  0.00    +0.162 A 
ATOM     16  C   UNL     1      -3.135  -0.626   1.494  0.00  0.00    +0.054 A 
BRANCH  15  17
ATOM     17  O   UNL     1      -5.048  -0.293   2.867  0.00  0.00    -0.489 OA
BRANCH  17  18
ATOM     18  C   UNL     1      -5.745   0.058   1.670  0.00  0.00    +0.226 C 
ATOM     19  C   UNL     1      -7.195   0.408   2.008  0.00  0.00    +0.048 C 
ENDBRANCH  17  18
ENDBRANCH  15  17
BRANCH  14  20
ATOM     20  O   UNL     1      -3.584  -0.992   5.093  0.00  0.00    -0.484 OA
BRANCH  20  21
ATOM     21  C   UNL     1      -2.764  -1.366   6.202  0.00  0.00    +0.267 C 
BRANCH  21  22
ATOM     22  C   UNL     1      -3.579  -1.314   7.469  0.00  0.00    +0.025 A 
ATOM     23  C   UNL     1      -4.908  -0.938   7.422  0.00  0.00    +0.010 A 
ATOM     24  C   UNL     1      -5.657  -0.896   8.583  0.00  0.00    +0.001 A 
ATOM     25  C   UNL     1      -5.074  -1.218   9.795  0.00  0.00    +0.003 A 
ATOM     26  C   UNL     1      -3.744  -1.589   9.845  0.00  0.00    +0.039 A 
ATOM     27  C   UNL     1      -2.994  -1.637   8.682  0.00  0.00    +0.130 A 
ATOM     28  F   UNL     1      -1.693  -1.998   8.731  0.00  0.00    -0.205 F 
ENDBRANCH  21  22
ENDBRANCH  20  21
ENDBRANCH  14  20
ENDBRANCH  10  11
BRANCH   8  29
ATOM     29  N   UNL     1       1.101  -3.910  -0.589  0.00  0.00    -0.328 N 
ATOM     30  H   UNL     1       0.435  -4.586  -0.789  0.00  0.00    +0.145 HD
ATOM     31  H   UNL     1       2.043  -4.140  -0.594  0.00  0.00    +0.145 HD
ENDBRANCH   8  29
BRANCH   9  32
ATOM     32  C   UNL     1      -1.537  -3.397  -0.612  0.00  0.00    +0.101 C 
ATOM     33  N   UNL     1      -2.270  -4.229  -0.858  0.00  0.00    -0.191 NA
ENDBRANCH   9  32
BRANCH   1  34
ATOM     34  C   UNL     1      -1.248   2.252   0.021  0.00  0.00    +0.057 C 
BRANCH  34  36
ATOM     35  C   UNL     1      -2.909   3.420   1.478  0.00  0.00    +0.004 C 
ATOM     36  C   UNL     1      -1.658   2.538   1.467  0.00  0.00    +0.003 C 
ENDBRANCH  34  36
ENDBRANCH   1  34
TORSDOF 10
