REMARK  Name = ZINC13940408
REMARK  2 active torsions:
REMARK  status: ('A' for Active; 'I' for Inactive)
REMARK    1  A    between atoms: C_6  and  C_7
REMARK    2  A    between atoms: C_8  and  C_9
REMARK                            x       y       z     vdW  Elec       q    Type
REMARK                         _______ _______ _______ _____ _____    ______ ____
ROOT
ATOM      1  C   UNL     1      -3.681  -2.448   0.817  0.00  0.00    +0.183 C 
ATOM      2  N   UNL     1      -3.384  -1.402  -0.179  0.00  0.00    -0.317 N 
ATOM      3  C   UNL     1      -2.088  -0.959  -0.236  0.00  0.00    +0.080 A 
ATOM      4  C   UNL     1      -1.000  -1.733   0.196  0.00  0.00    +0.068 A 
ATOM      5  C   UNL     1       0.308  -1.110   0.077  0.00  0.00    -0.023 A 
ATOM      6  C   UNL     1       0.316   0.138  -0.442  0.00  0.00    -0.005 A 
ATOM      7  S   UNL     1      -1.388   0.509  -0.769  0.00  0.00    -0.078 S 
ATOM      8  C   UNL     1       1.508   1.012  -0.679  0.00  0.00    +0.043 C 
ATOM      9  C   UNL     1       2.697   0.432   0.101  0.00  0.00    +0.005 C 
ATOM     10  C   UNL     1       2.779  -1.072  -0.173  0.00  0.00    +0.005 C 
ATOM     11  C   UNL     1       1.606  -1.788   0.499  0.00  0.00    +0.037 C 
ATOM     12  C   UNL     1      -1.291  -3.090   0.714  0.00  0.00    +0.248 C 
ATOM     13  O   UNL     1      -0.399  -3.885   0.944  0.00  0.00    -0.270 OA
ATOM     14  N   UNL     1      -2.587  -3.408   0.920  0.00  0.00    -0.290 N 
ATOM     15  H   UNL     1      -4.071  -1.045  -0.764  0.00  0.00    +0.149 HD
ATOM     16  H   UNL     1      -2.802  -4.325   1.150  0.00  0.00    +0.151 HD
ENDROOT
BRANCH   1  18
ATOM     17  C   UNL     1      -5.096  -1.839   2.728  0.00  0.00    +0.007 C 
ATOM     18  C   UNL     1      -3.898  -1.802   2.161  0.00  0.00    +0.015 C 
BRANCH  17  24
ATOM     19  C   UNL     1      -6.402  -2.045   0.619  0.00  0.00    +0.012 A 
ATOM     20  C   UNL     1      -7.483  -2.531  -0.087  0.00  0.00    +0.050 A 
ATOM     21  C   UNL     1      -8.433  -3.318   0.546  0.00  0.00    +0.166 A 
ATOM     22  C   UNL     1      -8.296  -3.627   1.899  0.00  0.00    +0.167 A 
ATOM     23  C   UNL     1      -7.212  -3.147   2.610  0.00  0.00    +0.057 A 
ATOM     24  C   UNL     1      -6.256  -2.354   1.972  0.00  0.00    -0.022 A 
ATOM     25  O   UNL     1      -9.351  -4.406   2.278  0.00  0.00    -0.453 OA
ATOM     26  C   UNL     1     -10.345  -4.233   1.251  0.00  0.00    +0.466 C 
ATOM     27  O   UNL     1      -9.574  -3.906   0.080  0.00  0.00    -0.453 OA
ENDBRANCH  17  24
ENDBRANCH   1  18
TORSDOF 2
