REMARK  Name = ZINC21465571
REMARK  6 active torsions:
REMARK  status: ('A' for Active; 'I' for Inactive)
REMARK    1  A    between atoms: C_3  and  N_8
REMARK    2  A    between atoms: C_12  and  S_13
REMARK    3  A    between atoms: S_13  and  C_14
REMARK    4  A    between atoms: C_14  and  C_15
REMARK    5  A    between atoms: N_17  and  C_18
REMARK    6  A    between atoms: C_19  and  C_28
REMARK                            x       y       z     vdW  Elec       q    Type
REMARK                         _______ _______ _______ _____ _____    ______ ____
ROOT
ATOM      1  C   UNL     1       4.473  -3.782  -3.970  0.00  0.00    +0.228 C 
ATOM      2  O   UNL     1       4.755  -2.660  -4.334  0.00  0.00    -0.275 OA
ATOM      3  N   UNL     1       5.000  -4.849  -4.603  0.00  0.00    -0.278 N 
ATOM      4  H   UNL     1       4.744  -5.866  -4.273  0.00  0.00    +0.155 HD
ENDROOT
BRANCH   3   5
ATOM      5  C   UNL     1       5.868  -4.663  -5.670  0.00  0.00    +0.090 A 
ATOM      6  C   UNL     1       6.509  -5.623  -6.435  0.00  0.00    +0.084 A 
ATOM      7  C   UNL     1       7.372  -5.165  -7.515  0.00  0.00    -0.018 A 
ATOM      8  C   UNL     1       7.464  -3.823  -7.639  0.00  0.00    -0.004 A 
ATOM      9  S   UNL     1       6.417  -3.175  -6.365  0.00  0.00    -0.077 S 
ATOM     10  C   UNL     1       8.281  -3.049  -8.626  0.00  0.00    +0.043 C 
ATOM     11  C   UNL     1       8.044  -3.612 -10.034  0.00  0.00    +0.005 C 
ATOM     12  C   UNL     1       9.059  -4.724 -10.285  0.00  0.00    +0.001 C 
ATOM     13  C   UNL     1       9.371  -5.456  -8.982  0.00  0.00    +0.005 C 
ATOM     14  C   UNL     1       8.115  -6.126  -8.434  0.00  0.00    +0.037 C 
BRANCH   6  15
ATOM     15  C   UNL     1       6.327  -7.019  -6.175  0.00  0.00    +0.102 C 
ATOM     16  N   UNL     1       6.183  -8.127  -5.969  0.00  0.00    -0.191 NA
ENDBRANCH   6  15
ENDBRANCH   3   5
BRANCH   1  17
ATOM     17  C   UNL     1       3.531  -3.984  -2.811  0.00  0.00    +0.173 C 
BRANCH  17  18
ATOM     18  S   UNL     1       2.998  -2.373  -2.180  0.00  0.00    -0.076 S 
BRANCH  18  23
ATOM     19  N   UNL     1       1.237  -2.082  -0.021  0.00  0.00    -0.277 N 
ATOM     20  C   UNL     1       0.556  -2.926   0.816  0.00  0.00    +0.230 A 
ATOM     21  N   UNL     1       0.857  -4.145   0.467  0.00  0.00    -0.137 NA
ATOM     22  N   UNL     1       1.675  -4.132  -0.525  0.00  0.00    -0.122 NA
ATOM     23  C   UNL     1       1.938  -2.893  -0.871  0.00  0.00    +0.196 A 
BRANCH  19  26
ATOM     24  C   UNL     1       2.380   1.415  -0.013  0.00  0.00    +0.003 A 
ATOM     25  C   UNL     1       2.405   0.034  -0.021  0.00  0.00    +0.026 A 
ATOM     26  C   UNL     1       1.214  -0.680  -0.013  0.00  0.00    +0.051 A 
ATOM     27  C   UNL     1       0.002  -0.004   0.002  0.00  0.00    +0.046 A 
ATOM     28  C   UNL     1      -0.017   1.378   0.010  0.00  0.00    +0.043 A 
ATOM     29  C   UNL     1       1.172   2.087   0.002  0.00  0.00    +0.020 A 
ATOM     30 CL   UNL     1      -1.532   2.225   0.021  0.00  0.00    -0.083 Cl
ENDBRANCH  19  26
ENDBRANCH  18  23
ENDBRANCH  17  18
ENDBRANCH   1  17
TORSDOF 6
