REMARK  Name = ZINC67078281
REMARK  9 active torsions:
REMARK  status: ('A' for Active; 'I' for Inactive)
REMARK    1  A    between atoms: C_1  and  C_2
REMARK    2  A    between atoms: C_2  and  N_3
REMARK    3  A    between atoms: C_4  and  C_9
REMARK    4  A    between atoms: C_9  and  C_10
REMARK    5  A    between atoms: C_10  and  N_11
REMARK    6  A    between atoms: C_12  and  C_14
REMARK    7  A    between atoms: C_15  and  C_25
REMARK    8  A    between atoms: C_17  and  C_24
REMARK    9  A    between atoms: C_19  and  C_23
REMARK                            x       y       z     vdW  Elec       q    Type
REMARK                         _______ _______ _______ _____ _____    ______ ____
ROOT
ATOM      1  N   UNL     1      -3.029  -0.905  -4.420  0.00  0.00    -0.310 N 
ATOM      2  C   UNL     1      -3.499  -1.288  -5.624  0.00  0.00    +0.251 C 
ATOM      3  O   UNL     1      -2.731  -1.683  -6.480  0.00  0.00    -0.270 OA
ATOM      4  H   UNL     1      -3.641  -0.590  -3.737  0.00  0.00    +0.149 HD
ENDROOT
BRANCH   2   5
ATOM      5  C   UNL     1      -4.941  -1.227  -5.902  0.00  0.00    +0.079 A 
ATOM      6  C   UNL     1      -5.599  -1.571  -7.041  0.00  0.00    -0.022 A 
ATOM      7  C   UNL     1      -6.996  -1.438  -7.109  0.00  0.00    +0.014 A 
ATOM      8  C   UNL     1      -7.860  -1.738  -8.195  0.00  0.00    -0.039 A 
ATOM      9  C   UNL     1      -9.201  -1.534  -8.052  0.00  0.00    +0.027 A 
ATOM     10  C   UNL     1      -9.719  -1.039  -6.863  0.00  0.00    +0.040 A 
ATOM     11  N   UNL     1      -8.919  -0.758  -5.852  0.00  0.00    -0.245 NA
ATOM     12  C   UNL     1      -7.621  -0.938  -5.940  0.00  0.00    +0.110 A 
ATOM     13  S   UNL     1      -6.259  -0.691  -4.826  0.00  0.00    -0.064 S 
ATOM     14  C   UNL     1     -11.203  -0.820  -6.727  0.00  0.00    +0.065 C 
ATOM     15  C   UNL     1      -7.303  -2.276  -9.488  0.00  0.00    +0.044 C 
ATOM     16  C   UNL     1      -4.831  -2.093  -8.228  0.00  0.00    +0.046 C 
ENDBRANCH   2   5
BRANCH   1  17
ATOM     17  C   UNL     1      -1.591  -0.966  -4.142  0.00  0.00    +0.112 C 
BRANCH  17  18
ATOM     18  C   UNL     1      -1.326  -0.480  -2.716  0.00  0.00    +0.095 C 
BRANCH  18  20
ATOM     19  N   UNL     1       0.754  -0.183  -1.250  0.00  0.00    -0.307 N 
ATOM     20  C   UNL     1       0.152  -0.542  -2.431  0.00  0.00    +0.133 A 
ATOM     21  N   UNL     1       1.062  -0.944  -3.258  0.00  0.00    -0.159 NA
ATOM     22  N   UNL     1       2.306  -0.852  -2.617  0.00  0.00    -0.254 N 
ATOM     23  C   UNL     1       2.083  -0.372  -1.376  0.00  0.00    +0.176 A 
ATOM     24  S   UNL     1       3.268  -0.063  -0.180  0.00  0.00    -0.011 S 
ATOM     25  H   UNL     1       3.167  -1.086  -2.997  0.00  0.00    +0.191 HD
BRANCH  19  27
ATOM     26  C   UNL     1      -0.024   1.850  -0.135  0.00  0.00    +0.027 C 
ATOM     27  C   UNL     1       0.069   0.325  -0.058  0.00  0.00    +0.122 C 
ENDBRANCH  19  27
ENDBRANCH  18  20
ENDBRANCH  17  18
ENDBRANCH   1  17
TORSDOF 5
