REMARK  Name = ZINC22817182
REMARK  7 active torsions:
REMARK  status: ('A' for Active; 'I' for Inactive)
REMARK    1  A    between atoms: C_1  and  C_2
REMARK    2  A    between atoms: C_2  and  C_4
REMARK    3  A    between atoms: C_2  and  S_18
REMARK    4  A    between atoms: N_10  and  C_11
REMARK    5  A    between atoms: S_18  and  C_19
REMARK    6  A    between atoms: C_19  and  C_20
REMARK    7  A    between atoms: C_23  and  C_25
REMARK                            x       y       z     vdW  Elec       q    Type
REMARK                         _______ _______ _______ _____ _____    ______ ____
ROOT
ATOM      1  C   UNL     1       0.754  -0.372  -1.270  0.00  0.00    +0.149 A 
ATOM      2  N   UNL     1       0.056  -0.536  -2.380  0.00  0.00    -0.198 NA
ATOM      3  C   UNL     1       0.599  -1.157  -3.425  0.00  0.00    +0.217 A 
ATOM      4  N   UNL     1       1.845  -1.613  -3.351  0.00  0.00    -0.181 NA
ATOM      5  C   UNL     1       2.544  -1.446  -2.234  0.00  0.00    +0.224 A 
ATOM      6  N   UNL     1       1.995  -0.819  -1.195  0.00  0.00    -0.198 NA
ATOM      7  N   UNL     1       3.839  -1.918  -2.152  0.00  0.00    -0.284 N 
ATOM      8  N   UNL     1      -0.132  -1.329  -4.583  0.00  0.00    -0.327 N 
ATOM      9  H   UNL     1       4.321  -1.869  -1.311  0.00  0.00    +0.155 HD
ATOM     10  H   UNL     1      -1.042  -0.996  -4.636  0.00  0.00    +0.145 HD
ATOM     11  H   UNL     1       0.264  -1.781  -5.344  0.00  0.00    +0.145 HD
ENDROOT
BRANCH   7  12
ATOM     12  C   UNL     1       4.457  -2.465  -3.280  0.00  0.00    +0.034 A 
ATOM     13  C   UNL     1       4.224  -1.918  -4.535  0.00  0.00    +0.023 A 
ATOM     14  C   UNL     1       4.836  -2.461  -5.648  0.00  0.00    +0.002 A 
ATOM     15  C   UNL     1       5.679  -3.549  -5.514  0.00  0.00    +0.000 A 
ATOM     16  C   UNL     1       5.913  -4.096  -4.266  0.00  0.00    +0.002 A 
ATOM     17  C   UNL     1       5.309  -3.554  -3.148  0.00  0.00    +0.023 A 
ENDBRANCH   7  12
BRANCH   1  19
ATOM     18  C   UNL     1       0.079   1.835  -0.366  0.00  0.00    +0.027 C 
ATOM     19  C   UNL     1       0.136   0.332  -0.090  0.00  0.00    +0.112 C 
BRANCH  19  20
ATOM     20  S   UNL     1      -1.544  -0.298   0.177  0.00  0.00    -0.140 S 
BRANCH  20  21
ATOM     21  C   UNL     1      -2.084   0.525   1.701  0.00  0.00    +0.167 C 
BRANCH  21  22
ATOM     22  C   UNL     1      -3.485   0.084   2.041  0.00  0.00    +0.227 A 
ATOM     23  N   UNL     1      -3.811  -0.934   2.787  0.00  0.00    -0.111 NA
ATOM     24  N   UNL     1      -5.092  -1.017   2.865  0.00  0.00    -0.107 NA
ATOM     25  C   UNL     1      -5.632  -0.046   2.165  0.00  0.00    +0.248 A 
ATOM     26  O   UNL     1      -4.623   0.672   1.634  0.00  0.00    -0.419 OA
BRANCH  25  27
ATOM     27  C   UNL     1      -7.077   0.213   1.995  0.00  0.00    +0.039 A 
ATOM     28  C   UNL     1      -7.509   1.284   1.212  0.00  0.00    +0.016 A 
ATOM     29  C   UNL     1      -8.859   1.522   1.057  0.00  0.00    +0.039 A 
ATOM     30  C   UNL     1      -9.786   0.699   1.677  0.00  0.00    +0.123 A 
ATOM     31  C   UNL     1      -9.362  -0.367   2.455  0.00  0.00    +0.039 A 
ATOM     32  C   UNL     1      -8.015  -0.617   2.612  0.00  0.00    +0.016 A 
ATOM     33  F   UNL     1     -11.107   0.936   1.521  0.00  0.00    -0.205 F 
ENDBRANCH  25  27
ENDBRANCH  21  22
ENDBRANCH  20  21
ENDBRANCH  19  20
ENDBRANCH   1  19
TORSDOF 6
