REMARK  Name = ZINC55031567
REMARK  5 active torsions:
REMARK  status: ('A' for Active; 'I' for Inactive)
REMARK    1  A    between atoms: C_2  and  C_12
REMARK    2  A    between atoms: C_12  and  C_14
REMARK    3  A    between atoms: C_12  and  O_22
REMARK    4  A    between atoms: C_14  and  N_15
REMARK    5  A    between atoms: N_15  and  C_16
REMARK                            x       y       z     vdW  Elec       q    Type
REMARK                         _______ _______ _______ _____ _____    ______ ____
ROOT
ATOM      1  C   UNL     1       1.146   3.599   0.010  0.00  0.00    +0.128 C 
ENDROOT
BRANCH   1   3
ATOM      2  C   UNL     1      -0.017   1.383   0.010  0.00  0.00    +0.055 A 
ATOM      3  C   UNL     1       1.170   2.092   0.002  0.00  0.00    -0.016 A 
ATOM      4  C   UNL     1       2.378   1.421  -0.013  0.00  0.00    +0.025 A 
ATOM      5  C   UNL     1       2.405   0.038  -0.023  0.00  0.00    +0.063 A 
ATOM      6  C   UNL     1       1.217  -0.679  -0.016  0.00  0.00    +0.176 A 
ATOM      7  C   UNL     1       0.002  -0.004   0.002  0.00  0.00    +0.164 A 
ATOM      8  O   UNL     1      -1.174  -0.688   0.017  0.00  0.00    -0.485 OA
ATOM      9  C   UNL     1      -1.122  -2.066  -0.368  0.00  0.00    +0.270 C 
ATOM     10  C   UNL     1       0.061  -2.723   0.356  0.00  0.00    +0.270 C 
ATOM     11  O   UNL     1       1.258  -2.039  -0.029  0.00  0.00    -0.484 OA
ATOM     12 BR   UNL     1       4.060  -0.875  -0.046  0.00  0.00    -0.046 Br
ENDBRANCH   1   3
BRANCH   1  13
ATOM     13  O   UNL     1       2.162   4.096  -0.863  0.00  0.00    -0.389 OA
ATOM     14  H   UNL     1       3.057   3.824  -0.620  0.00  0.00    +0.210 HD
ENDBRANCH   1  13
BRANCH   1  15
ATOM     15  C   UNL     1       1.401   4.105   1.431  0.00  0.00    -0.046 C 
BRANCH  15  16
ATOM     16  N   UNL     1       1.260   5.567   1.463  0.00  0.00    +0.383 N 
ATOM     17  H   UNL     1       1.928   5.983   0.832  0.00  0.00    -0.085 HD
ATOM     18  H   UNL     1       0.325   5.820   1.179  0.00  0.00    -0.085 HD
BRANCH  16  19
ATOM     19  C   UNL     1       1.505   6.053   2.827  0.00  0.00    -0.072 C 
ATOM     20  C   UNL     1       0.417   5.520   3.762  0.00  0.00    -0.016 C 
ATOM     21  C   UNL     1       0.673   6.027   5.183  0.00  0.00    -0.002 C 
ATOM     22  C   UNL     1       0.648   7.557   5.191  0.00  0.00    -0.000 C 
ATOM     23  C   UNL     1       1.736   8.089   4.256  0.00  0.00    -0.002 C 
ATOM     24  C   UNL     1       1.480   7.583   2.836  0.00  0.00    -0.016 C 
ENDBRANCH  16  19
ENDBRANCH  15  16
ENDBRANCH   1  15
TORSDOF 5
