REMARK  Name = ZINC35316327
REMARK  9 active torsions:
REMARK  status: ('A' for Active; 'I' for Inactive)
REMARK    1  A    between atoms: C_1  and  C_2
REMARK    2  A    between atoms: C_9  and  N_33
REMARK    3  A    between atoms: C_10  and  C_31
REMARK    4  A    between atoms: C_11  and  C_13
REMARK    5  A    between atoms: C_16  and  O_21
REMARK    6  A    between atoms: C_17  and  O_19
REMARK    7  A    between atoms: O_19  and  C_20
REMARK    8  A    between atoms: O_21  and  C_22
REMARK    9  A    between atoms: C_22  and  C_23
REMARK                            x       y       z     vdW  Elec       q    Type
REMARK                         _______ _______ _______ _____ _____    ______ ____
ROOT
ATOM      1  C   UNL     1       1.341   0.142  -2.966  0.00  0.00    -0.031 A 
ATOM      2  C   UNL     1       2.476  -0.638  -2.846  0.00  0.00    +0.008 A 
ATOM      3  C   UNL     1       3.712  -0.126  -3.197  0.00  0.00    +0.050 A 
ATOM      4  C   UNL     1       3.814   1.172  -3.671  0.00  0.00    +0.162 A 
ATOM      5  C   UNL     1       2.671   1.957  -3.793  0.00  0.00    +0.162 A 
ATOM      6  C   UNL     1       1.436   1.436  -3.443  0.00  0.00    +0.054 A 
ENDROOT
BRANCH   1  17
ATOM      7  C   UNL     1      -0.018   1.503   0.010  0.00  0.00    +0.068 C 
ATOM      8  C   UNL     1       0.002  -0.004   0.002  0.00  0.00    +0.068 A 
ATOM      9  C   UNL     1       0.008  -0.813  -1.126  0.00  0.00    +0.049 A 
ATOM     10  C   UNL     1       0.027  -2.116  -0.713  0.00  0.00    +0.222 A 
ATOM     11  N   UNL     1       0.034  -2.116   0.629  0.00  0.00    -0.246 N 
ATOM     12  H   UNL     1       0.048  -2.900   1.201  0.00  0.00    +0.192 HD
ATOM     13  N   UNL     1       0.023  -0.780   1.060  0.00  0.00    -0.176 NA
ATOM     14  O   UNL     1       0.034  -3.159  -1.580  0.00  0.00    -0.423 OA
ATOM     15  C   UNL     1      -0.255  -2.900  -2.872  0.00  0.00    +0.200 C 
ATOM     16  C   UNL     1      -0.291  -1.656  -3.399  0.00  0.00    +0.098 C 
ATOM     17  C   UNL     1      -0.002  -0.421  -2.581  0.00  0.00    +0.101 C 
BRANCH  15  18
ATOM     18  N   UNL     1      -0.527  -3.961  -3.699  0.00  0.00    -0.328 N 
ATOM     19  H   UNL     1      -0.509  -4.865  -3.349  0.00  0.00    +0.145 HD
ATOM     20  H   UNL     1      -0.738  -3.806  -4.633  0.00  0.00    +0.145 HD
ENDBRANCH  15  18
BRANCH  16  21
ATOM     21  C   UNL     1      -0.615  -1.504  -4.786  0.00  0.00    +0.101 C 
ATOM     22  N   UNL     1      -0.872  -1.384  -5.886  0.00  0.00    -0.191 NA
ENDBRANCH  16  21
ENDBRANCH   1  17
BRANCH   5  23
ATOM     23  O   UNL     1       2.767   3.231  -4.258  0.00  0.00    -0.491 OA
ATOM     24  C   UNL     1       1.553   3.979  -4.356  0.00  0.00    +0.277 C 
ENDBRANCH   5  23
BRANCH   4  25
ATOM     25  O   UNL     1       5.028   1.677  -4.017  0.00  0.00    -0.484 OA
BRANCH  25  26
ATOM     26  C   UNL     1       6.157   0.814  -3.866  0.00  0.00    +0.266 C 
BRANCH  26  27
ATOM     27  C   UNL     1       7.406   1.541  -4.295  0.00  0.00    +0.008 A 
ATOM     28  C   UNL     1       7.327   2.847  -4.741  0.00  0.00    +0.010 A 
ATOM     29  C   UNL     1       8.471   3.514  -5.134  0.00  0.00    +0.020 A 
ATOM     30  C   UNL     1       9.698   2.875  -5.081  0.00  0.00    +0.042 A 
ATOM     31  C   UNL     1       9.777   1.568  -4.635  0.00  0.00    +0.040 A 
ATOM     32  C   UNL     1       8.632   0.902  -4.236  0.00  0.00    +0.049 A 
ATOM     33 CL   UNL     1       8.732  -0.736  -3.670  0.00  0.00    -0.083 Cl
ATOM     34 CL   UNL     1      11.135   3.712  -5.576  0.00  0.00    -0.083 Cl
ENDBRANCH  26  27
ENDBRANCH  25  26
ENDBRANCH   4  25
TORSDOF 7
