REMARK  Name = ZINC01080055
REMARK  10 active torsions:
REMARK  status: ('A' for Active; 'I' for Inactive)
REMARK    1  A    between atoms: C_1  and  C_2
REMARK    2  A    between atoms: C_2  and  C_3
REMARK    3  A    between atoms: C_6  and  C_9
REMARK    4  A    between atoms: C_11  and  C_27
REMARK    5  A    between atoms: C_12  and  N_26
REMARK    6  A    between atoms: N_13  and  N_23
REMARK    7  A    between atoms: C_19  and  C_21
REMARK    8  A    between atoms: C_19  and  C_22
REMARK    9  A    between atoms: N_23  and  C_24
REMARK   10  A    between atoms: N_23  and  C_25
REMARK                            x       y       z     vdW  Elec       q    Type
REMARK                         _______ _______ _______ _____ _____    ______ ____
ROOT
ATOM      1  C   UNL     1       0.471  -4.036  -0.080  0.00  0.00    +0.097 C 
ATOM      2  C   UNL     1      -0.907  -4.109  -0.669  0.00  0.00    +0.078 C 
ATOM      3  C   UNL     1      -1.178  -4.922  -1.723  0.00  0.00    +0.117 C 
ATOM      4  N   UNL     1      -0.184  -5.703  -2.264  0.00  0.00    -0.223 N 
ATOM      5  C   UNL     1       0.947  -5.987  -1.548  0.00  0.00    +0.037 C 
ATOM      6  C   UNL     1       1.300  -5.227  -0.491  0.00  0.00    +0.026 C 
ATOM      7  C   UNL     1       2.451  -5.522   0.262  0.00  0.00    +0.162 C 
ATOM      8  O   UNL     1       2.745  -4.814   1.204  0.00  0.00    -0.292 OA
ATOM      9  C   UNL     1       3.325  -6.698  -0.078  0.00  0.00    +0.086 C 
ATOM     10  C   UNL     1       2.469  -7.779  -0.748  0.00  0.00    -0.023 C 
ATOM     11  C   UNL     1       1.787  -7.166  -1.973  0.00  0.00    +0.059 C 
ATOM     12  C   UNL     1       1.409  -8.278   0.235  0.00  0.00    +0.011 C 
ATOM     13  C   UNL     1       3.357  -8.946  -1.184  0.00  0.00    +0.011 C 
ENDROOT
BRANCH   1  17
ATOM     14  C   UNL     1       2.384  -0.463  -1.428  0.00  0.00    -0.048 A 
ATOM     15  C   UNL     1       1.972  -1.414  -2.343  0.00  0.00    +0.004 A 
ATOM     16  C   UNL     1       1.358  -2.573  -1.906  0.00  0.00    +0.005 A 
ATOM     17  C   UNL     1       1.146  -2.776  -0.555  0.00  0.00    -0.035 A 
ATOM     18  C   UNL     1       1.553  -1.823   0.359  0.00  0.00    +0.005 A 
ATOM     19  C   UNL     1       2.172  -0.666  -0.077  0.00  0.00    +0.004 A 
BRANCH  14  21
ATOM     20  C   UNL     1       4.571   0.577  -1.960  0.00  0.00    +0.009 C 
ATOM     21  C   UNL     1       3.058   0.798  -1.903  0.00  0.00    +0.032 C 
ENDBRANCH  14  21
ENDBRANCH   1  17
BRANCH   4  22
ATOM     22  N   UNL     1      -0.327  -6.199  -3.529  0.00  0.00    -0.227 NA
ATOM     23  C   UNL     1      -1.415  -7.184  -3.588  0.00  0.00    +0.128 C 
ATOM     24  C   UNL     1      -0.544  -5.117  -4.498  0.00  0.00    +0.128 C 
ENDBRANCH   4  22
BRANCH   3  25
ATOM     25  N   UNL     1      -2.447  -4.965  -2.248  0.00  0.00    -0.344 N 
ATOM     26  H   UNL     1      -3.215  -4.820  -1.673  0.00  0.00    +0.144 HD
ATOM     27  H   UNL     1      -2.575  -5.140  -3.193  0.00  0.00    +0.144 HD
ENDBRANCH   3  25
BRANCH   2  28
ATOM     28  C   UNL     1      -1.955  -3.307  -0.111  0.00  0.00    +0.099 C 
ATOM     29  N   UNL     1      -2.785  -2.672   0.332  0.00  0.00    -0.191 NA
ENDBRANCH   2  28
TORSDOF 5
