REMARK  Name = ZINC12491274
REMARK  8 active torsions:
REMARK  status: ('A' for Active; 'I' for Inactive)
REMARK    1  A    between atoms: C_1  and  O_2
REMARK    2  A    between atoms: O_2  and  C_3
REMARK    3  A    between atoms: C_5  and  C_10
REMARK    4  A    between atoms: C_8  and  O_9
REMARK    5  A    between atoms: N_11  and  N_12
REMARK    6  A    between atoms: C_13  and  C_15
REMARK    7  A    between atoms: C_15  and  O_16
REMARK    8  A    between atoms: O_16  and  C_17
REMARK                            x       y       z     vdW  Elec       q    Type
REMARK                         _______ _______ _______ _____ _____    ______ ____
ROOT
ATOM      1  N   UNL     1      -8.451   1.524   0.094  0.00  0.00    -0.204 N 
ATOM      2  C   UNL     1      -7.211   0.996   0.079  0.00  0.00    +0.270 C 
ATOM      3  O   UNL     1      -7.064  -0.208   0.072  0.00  0.00    -0.270 OA
ATOM      4  H   UNL     1      -8.569   2.486   0.100  0.00  0.00    +0.177 HD
ENDROOT
BRANCH   1   6
ATOM      5  C   UNL     1     -10.765   1.189   0.116  0.00  0.00    +0.138 C 
ATOM      6  N   UNL     1      -9.571   0.681   0.102  0.00  0.00    -0.188 NA
BRANCH   5   9
ATOM      7  C   UNL     1     -14.331   0.012   0.147  0.00  0.00    +0.162 A 
ATOM      8  C   UNL     1     -13.230   0.848   0.139  0.00  0.00    +0.058 A 
ATOM      9  C   UNL     1     -11.943   0.303   0.124  0.00  0.00    -0.002 A 
ATOM     10  C   UNL     1     -11.776  -1.084   0.110  0.00  0.00    +0.013 A 
ATOM     11  C   UNL     1     -12.879  -1.911   0.124  0.00  0.00    +0.050 A 
ATOM     12  C   UNL     1     -14.156  -1.370   0.139  0.00  0.00    +0.158 A 
BRANCH   7  14
ATOM     13  C   UNL     1     -15.689   1.964   0.169  0.00  0.00    +0.277 C 
ATOM     14  O   UNL     1     -15.584   0.539   0.162  0.00  0.00    -0.491 OA
ENDBRANCH   7  14
BRANCH  12  15
ATOM     15  O   UNL     1     -15.241  -2.190   0.147  0.00  0.00    -0.503 OA
ATOM     16  H   UNL     1     -15.563  -2.424  -0.734  0.00  0.00    +0.292 HD
ENDBRANCH  12  15
ENDBRANCH   5   9
ENDBRANCH   1   6
BRANCH   2  17
ATOM     17  C   UNL     1      -6.007   1.902   0.071  0.00  0.00    +0.326 C 
BRANCH  17  18
ATOM     18  O   UNL     1      -4.817   1.112   0.056  0.00  0.00    -0.482 OA
BRANCH  18  19
ATOM     19  C   UNL     1      -3.633   1.780   0.047  0.00  0.00    +0.136 A 
ATOM     20  C   UNL     1      -3.629   3.178   0.053  0.00  0.00    +0.047 A 
ATOM     21  C   UNL     1      -2.461   3.874   0.045  0.00  0.00    +0.012 A 
ATOM     22  C   UNL     1      -1.237   3.183   0.030  0.00  0.00    -0.016 A 
ATOM     23  C   UNL     1      -0.012   3.871   0.021  0.00  0.00    +0.023 A 
ATOM     24  C   UNL     1       1.155   3.170   0.007  0.00  0.00    +0.018 A 
ATOM     25  C   UNL     1       1.155   1.776   0.001  0.00  0.00    +0.016 A 
ATOM     26  C   UNL     1      -0.013   1.076   0.008  0.00  0.00    +0.011 A 
ATOM     27  C   UNL     1      -1.237   1.766   0.018  0.00  0.00    -0.000 A 
ATOM     28  C   UNL     1      -2.462   1.076   0.032  0.00  0.00    +0.067 A 
ATOM     29 BR   UNL     1      -2.488  -0.815   0.024  0.00  0.00    -0.046 Br
ATOM     30 BR   UNL     1       2.801   4.101  -0.004  0.00  0.00    -0.050 Br
ENDBRANCH  18  19
ENDBRANCH  17  18
ENDBRANCH   2  17
TORSDOF 7
