REMARK  Name = ZINC67584981
REMARK  8 active torsions:
REMARK  status: ('A' for Active; 'I' for Inactive)
REMARK    1  A    between atoms: C_1  and  C_2
REMARK    2  A    between atoms: C_2  and  C_3
REMARK    3  A    between atoms: C_3  and  C_4
REMARK    4  A    between atoms: N_6  and  C_7
REMARK    5  A    between atoms: C_11  and  N_14
REMARK    6  A    between atoms: C_12  and  C_13
REMARK    7  A    between atoms: C_21  and  C_24
REMARK    8  A    between atoms: C_24  and  C_25
REMARK                            x       y       z     vdW  Elec       q    Type
REMARK                         _______ _______ _______ _____ _____    ______ ____
ROOT
ATOM      1  C   UNL     1       0.913  -4.202  -2.436  0.00  0.00    +0.038 A 
ATOM      2  C   UNL     1       0.772  -4.727  -1.157  0.00  0.00    +0.024 A 
ATOM      3  C   UNL     1       1.309  -5.963  -0.853  0.00  0.00    +0.004 A 
ATOM      4  C   UNL     1       1.990  -6.680  -1.818  0.00  0.00    +0.024 A 
ATOM      5  C   UNL     1       2.135  -6.161  -3.098  0.00  0.00    +0.039 A 
ATOM      6  C   UNL     1       1.591  -4.923  -3.409  0.00  0.00    -0.008 A 
ATOM      7  C   UNL     1       1.741  -4.360  -4.798  0.00  0.00    +0.047 C 
ENDROOT
BRANCH   5   8
ATOM      8  N   UNL     1       2.824  -6.889  -4.075  0.00  0.00    -0.269 N 
ATOM      9  C   UNL     1       2.814  -8.236  -4.044  0.00  0.00    +0.306 C 
ATOM     10  O   UNL     1       2.288  -8.819  -3.115  0.00  0.00    -0.252 OA
ATOM     11  N   UNL     1       3.387  -8.937  -5.043  0.00  0.00    -0.285 N 
ATOM     12  C   UNL     1       4.131  -8.252  -6.107  0.00  0.00    +0.109 C 
ATOM     13  C   UNL     1       3.567  -8.688  -7.463  0.00  0.00    +0.019 C 
ATOM     14  C   UNL     1       3.600 -10.216  -7.557  0.00  0.00    +0.006 C 
ATOM     15  C   UNL     1       2.724 -10.815  -6.454  0.00  0.00    +0.006 C 
ATOM     16  C   UNL     1       3.283 -10.402  -5.083  0.00  0.00    +0.112 C 
ATOM     17  H   UNL     1       3.309  -6.423  -4.774  0.00  0.00    +0.156 HD
BRANCH  15  18
ATOM     18  C   UNL     1       2.731 -12.340  -6.569  0.00  0.00    +0.002 C 
ATOM     19  C   UNL     1       1.759 -12.933  -5.546  0.00  0.00    +0.004 C 
ENDBRANCH  15  18
ENDBRANCH   5   8
BRANCH   1  22
ATOM     20  C   UNL     1      -0.611  -2.435  -1.976  0.00  0.00    +0.217 C 
ATOM     21  O   UNL     1      -1.101  -3.102  -1.089  0.00  0.00    -0.275 OA
ATOM     22  N   UNL     1       0.368  -2.951  -2.744  0.00  0.00    -0.285 N 
ATOM     23  H   UNL     1       0.696  -2.455  -3.510  0.00  0.00    +0.155 HD
BRANCH  20  24
ATOM     24  C   UNL     1      -1.098  -1.030  -2.218  0.00  0.00    +0.096 C 
BRANCH  24  26
ATOM     25  C   UNL     1      -2.700   0.733  -1.463  0.00  0.00    +0.004 C 
ATOM     26  C   UNL     1      -2.205  -0.693  -1.217  0.00  0.00    +0.006 C 
ENDBRANCH  24  26
ENDBRANCH  20  24
ENDBRANCH   1  22
TORSDOF 5
