REMARK  Name = ZINC08869244
REMARK  6 active torsions:
REMARK  status: ('A' for Active; 'I' for Inactive)
REMARK    1  A    between atoms: C_1  and  C_2
REMARK    2  A    between atoms: C_5  and  S_8
REMARK    3  A    between atoms: S_8  and  N_11
REMARK    4  A    between atoms: C_15  and  C_17
REMARK    5  A    between atoms: C_22  and  C_25
REMARK    6  A    between atoms: C_28  and  C_31
REMARK                            x       y       z     vdW  Elec       q    Type
REMARK                         _______ _______ _______ _____ _____    ______ ____
ROOT
ATOM      1  C   UNL     1       1.930   9.887   0.037  0.00  0.00    +0.238 C 
ATOM      2  O   UNL     1       0.798  10.321   0.049  0.00  0.00    -0.274 OA
ATOM      3  N   UNL     1       2.143   8.556   0.028  0.00  0.00    -0.263 N 
ATOM      4  C   UNL     1       1.064   7.681   0.032  0.00  0.00    +0.165 A 
ATOM      5  N   UNL     1       1.060   6.362   0.030  0.00  0.00    -0.225 NA
ATOM      6  C   UNL     1      -0.075   5.677   0.032  0.00  0.00    +0.080 A 
ATOM      7  C   UNL     1      -1.265   6.352   0.046  0.00  0.00    +0.076 A 
ATOM      8  S   UNL     1      -0.686   8.044   0.050  0.00  0.00    -0.060 S 
ATOM      9  H   UNL     1       3.048   8.210   0.018  0.00  0.00    +0.157 HD
ENDROOT
BRANCH   6  10
ATOM     10  C   UNL     1      -0.055   4.196   0.024  0.00  0.00    +0.001 A 
ATOM     11  C   UNL     1       1.164   3.515   0.009  0.00  0.00    +0.011 A 
ATOM     12  C   UNL     1       1.184   2.144   0.002  0.00  0.00    +0.019 A 
ATOM     13  C   UNL     1      -0.017   1.428   0.010  0.00  0.00    +0.052 A 
ATOM     14  C   UNL     1      -1.237   2.111   0.019  0.00  0.00    +0.019 A 
ATOM     15  C   UNL     1      -1.255   3.482   0.032  0.00  0.00    +0.011 A 
BRANCH  13  16
ATOM     16  C   UNL     1       0.002  -0.004   0.002  0.00  0.00    +0.099 C 
ATOM     17  N   UNL     1       0.018  -1.140  -0.004  0.00  0.00    -0.191 NA
ENDBRANCH  13  16
ENDBRANCH   6  10
BRANCH   1  22
ATOM     18  N   UNL     1       2.618  12.226   0.044  0.00  0.00    -0.165 NA
ATOM     19  C   UNL     1       3.100  12.883   1.272  0.00  0.00    +0.110 C 
ATOM     20  C   UNL     1       4.361  12.082   1.682  0.00  0.00    +0.019 C 
ATOM     21  C   UNL     1       3.946  10.635   1.307  0.00  0.00    +0.031 C 
ATOM     22  C   UNL     1       3.101  10.837   0.032  0.00  0.00    +0.166 C 
BRANCH  18  23
ATOM     23  S   UNL     1       1.687  12.934  -1.128  0.00  0.00    +0.062 S 
ATOM     24  O   UNL     1       1.913  14.334  -1.036  0.00  0.00    -0.153 OA
ATOM     25  O   UNL     1       1.917  12.203  -2.325  0.00  0.00    -0.153 OA
BRANCH  23  30
ATOM     26  C   UNL     1      -4.084  12.016   0.374  0.00  0.00    +0.044 C 
ATOM     27  C   UNL     1      -2.642  12.245  -0.001  0.00  0.00    -0.050 A 
ATOM     28  C   UNL     1      -1.982  13.374   0.447  0.00  0.00    +0.005 A 
ATOM     29  C   UNL     1      -0.660  13.585   0.103  0.00  0.00    +0.029 A 
ATOM     30  C   UNL     1       0.002  12.666  -0.689  0.00  0.00    +0.106 A 
ATOM     31  C   UNL     1      -0.659  11.539  -1.142  0.00  0.00    +0.029 A 
ATOM     32  C   UNL     1      -1.980  11.326  -0.793  0.00  0.00    +0.005 A 
ENDBRANCH  23  30
ENDBRANCH  18  23
ENDBRANCH   1  22
TORSDOF 5
