REMARK  Name = ZINC33726909
REMARK  8 active torsions:
REMARK  status: ('A' for Active; 'I' for Inactive)
REMARK    1  A    between atoms: C_1  and  C_2
REMARK    2  A    between atoms: C_2  and  C_3
REMARK    3  A    between atoms: C_3  and  N_4
REMARK    4  A    between atoms: N_4  and  C_5
REMARK    5  A    between atoms: C_6  and  C_17
REMARK    6  A    between atoms: C_11  and  C_16
REMARK    7  A    between atoms: N_21  and  C_25
REMARK    8  A    between atoms: C_25  and  C_26
REMARK                            x       y       z     vdW  Elec       q    Type
REMARK                         _______ _______ _______ _____ _____    ______ ____
ROOT
ATOM      1  C   UNL     1       2.687  -1.532  -4.210  0.00  0.00    +0.037 C 
ATOM      2  C   UNL     1       2.085  -0.329  -4.439  0.00  0.00    +0.077 C 
ATOM      3  C   UNL     1       0.715   0.038  -4.309  0.00  0.00    +0.259 C 
ATOM      4  O   UNL     1      -0.119  -0.772  -3.946  0.00  0.00    -0.269 OA
ATOM      5  N   UNL     1       0.374   1.282  -4.599  0.00  0.00    -0.251 N 
ATOM      6  C   UNL     1       1.300   2.182  -4.997  0.00  0.00    +0.121 C 
ATOM      7  S   UNL     1       1.087   3.829  -5.412  0.00  0.00    -0.027 S 
ATOM      8  S   UNL     1       2.803   1.216  -4.979  0.00  0.00    -0.061 S 
ENDROOT
BRANCH   1  10
ATOM      9  C   UNL     1       1.685  -3.768  -4.440  0.00  0.00    +0.134 A 
ATOM     10  C   UNL     1       1.938  -2.606  -3.674  0.00  0.00    +0.081 A 
ATOM     11  C   UNL     1       1.429  -2.548  -2.354  0.00  0.00    +0.267 A 
ATOM     12  O   UNL     1       1.627  -1.569  -1.656  0.00  0.00    -0.267 OA
ATOM     13  N   UNL     1       0.716  -3.594  -1.884  0.00  0.00    -0.267 N 
ATOM     14  C   UNL     1       0.218  -3.545  -0.616  0.00  0.00    +0.099 A 
ATOM     15  C   UNL     1      -0.496  -4.577  -0.112  0.00  0.00    -0.034 A 
ATOM     16  C   UNL     1      -0.733  -5.715  -0.894  0.00  0.00    +0.008 A 
ATOM     17  C   UNL     1      -0.238  -5.775  -2.163  0.00  0.00    +0.047 A 
ATOM     18  C   UNL     1       0.502  -4.692  -2.670  0.00  0.00    +0.142 A 
ATOM     19  N   UNL     1       0.982  -4.759  -3.912  0.00  0.00    -0.214 NA
ATOM     20  C   UNL     1      -1.039  -4.502   1.292  0.00  0.00    +0.045 C 
BRANCH   9  21
ATOM     21  N   UNL     1       2.167  -3.868  -5.727  0.00  0.00    -0.328 N 
ATOM     22  H   UNL     1       2.750  -3.043  -6.162  0.00  0.00    +0.147 HD
BRANCH  21  23
ATOM     23  C   UNL     1       1.902  -5.074  -6.517  0.00  0.00    +0.102 C 
BRANCH  23  25
ATOM     24  C   UNL     1       2.266  -6.188  -8.723  0.00  0.00    +0.005 C 
ATOM     25  C   UNL     1       2.543  -4.929  -7.899  0.00  0.00    +0.015 C 
ENDBRANCH  23  25
ENDBRANCH  21  23
ENDBRANCH   9  21
ENDBRANCH   1  10
BRANCH   5  26
ATOM     26  C   UNL     1      -1.028   1.692  -4.480  0.00  0.00    +0.150 C 
BRANCH  26  27
ATOM     27  C   UNL     1      -1.731   1.462  -5.793  0.00  0.00    -0.026 A 
ATOM     28  C   UNL     1      -2.347   0.250  -6.043  0.00  0.00    +0.009 A 
ATOM     29  C   UNL     1      -2.989   0.034  -7.248  0.00  0.00    +0.050 A 
ATOM     30  C   UNL     1      -3.025   1.035  -8.205  0.00  0.00    +0.166 A 
ATOM     31  C   UNL     1      -2.405   2.256  -7.953  0.00  0.00    +0.167 A 
ATOM     32  C   UNL     1      -1.759   2.465  -6.745  0.00  0.00    +0.054 A 
ATOM     33  O   UNL     1      -2.575   3.064  -9.040  0.00  0.00    -0.453 OA
ATOM     34  C   UNL     1      -3.651   2.475  -9.792  0.00  0.00    +0.466 C 
ATOM     35  O   UNL     1      -3.584   1.078  -9.449  0.00  0.00    -0.453 OA
ENDBRANCH  26  27
ENDBRANCH   5  26
TORSDOF 6
