REMARK  Name = ZINC05978163
REMARK  7 active torsions:
REMARK  status: ('A' for Active; 'I' for Inactive)
REMARK    1  A    between atoms: C_1  and  C_2
REMARK    2  A    between atoms: C_2  and  C_3
REMARK    3  A    between atoms: C_3  and  C_4
REMARK    4  A    between atoms: C_4  and  C_5
REMARK    5  A    between atoms: C_5  and  N_6
REMARK    6  A    between atoms: C_7  and  C_9
REMARK    7  A    between atoms: C_9  and  C_10
REMARK                            x       y       z     vdW  Elec       q    Type
REMARK                         _______ _______ _______ _____ _____    ______ ____
ROOT
ATOM      1  C   UNL     1       2.795  -6.646  -4.819  0.00  0.00    +0.202 C 
ATOM      2  C   UNL     1       2.895  -8.156  -4.815  0.00  0.00    +0.252 C 
ATOM      3  O   UNL     1       3.467  -8.852  -4.003  0.00  0.00    -0.272 OA
ATOM      4  N   UNL     1       2.211  -8.567  -5.909  0.00  0.00    -0.203 N 
ATOM      5  C   UNL     1       1.697  -7.475  -6.591  0.00  0.00    +0.138 C 
ATOM      6  C   UNL     1       0.913  -7.734  -7.823  0.00  0.00    +0.036 A 
ATOM      7  C   UNL     1       0.364  -6.694  -8.564  0.00  0.00    +0.013 A 
ATOM      8  C   UNL     1      -0.359  -6.980  -9.705  0.00  0.00    +0.001 A 
ATOM      9  C   UNL     1      -0.537  -8.293 -10.110  0.00  0.00    +0.002 A 
ATOM     10  C   UNL     1       0.004  -9.334  -9.381  0.00  0.00    +0.024 A 
ATOM     11  C   UNL     1       0.734  -9.063  -8.233  0.00  0.00    +0.043 A 
ATOM     12  N   UNL     1       1.292 -10.084  -7.474  0.00  0.00    -0.296 N 
ATOM     13  C   UNL     1       1.996  -9.819  -6.364  0.00  0.00    +0.149 C 
ATOM     14  S   UNL     1       2.654 -11.130  -5.482  0.00  0.00    -0.018 S 
ATOM     15  N   UNL     1       1.999  -6.343  -6.016  0.00  0.00    -0.255 NA
ATOM     16  H   UNL     1       1.171 -11.005  -7.752  0.00  0.00    +0.154 HD
ENDROOT
BRANCH   1  17
ATOM     17  C   UNL     1       2.078  -6.153  -3.560  0.00  0.00    +0.132 C 
BRANCH  17  19
ATOM     18  N   UNL     1       1.475  -3.986  -2.532  0.00  0.00    -0.315 N 
ATOM     19  C   UNL     1       2.058  -4.646  -3.552  0.00  0.00    +0.216 C 
ATOM     20  O   UNL     1       2.566  -4.028  -4.463  0.00  0.00    -0.276 OA
ATOM     21  H   UNL     1       1.069  -4.480  -1.803  0.00  0.00    +0.149 HD
BRANCH  18  22
ATOM     22  C   UNL     1       1.455  -2.521  -2.524  0.00  0.00    +0.104 C 
BRANCH  22  23
ATOM     23  C   UNL     1       0.739  -2.027  -1.265  0.00  0.00    +0.019 C 
BRANCH  23  24
ATOM     24  C   UNL     1       0.718  -0.497  -1.257  0.00  0.00    +0.001 C 
BRANCH  24  26
ATOM     25  C   UNL     1      -0.019   1.526   0.010  0.00  0.00    +0.004 C 
ATOM     26  C   UNL     1       0.002  -0.004   0.002  0.00  0.00    -0.003 C 
ENDBRANCH  24  26
ENDBRANCH  23  24
ENDBRANCH  22  23
ENDBRANCH  18  22
ENDBRANCH  17  19
ENDBRANCH   1  17
TORSDOF 6
