REMARK  Name = ZINC09419547
REMARK  8 active torsions:
REMARK  status: ('A' for Active; 'I' for Inactive)
REMARK    1  A    between atoms: C_1  and  C_2
REMARK    2  A    between atoms: C_6  and  N_9
REMARK    3  A    between atoms: C_7  and  C_8
REMARK    4  A    between atoms: C_12  and  C_16
REMARK    5  A    between atoms: C_12  and  N_20
REMARK    6  A    between atoms: C_21  and  C_23
REMARK    7  A    between atoms: C_23  and  C_24
REMARK    8  A    between atoms: C_24  and  C_25
REMARK                            x       y       z     vdW  Elec       q    Type
REMARK                         _______ _______ _______ _____ _____    ______ ____
ROOT
ATOM      1  N   UNL     1      -4.117   2.446   2.352  0.00  0.00    -0.191 N 
ATOM      2  C   UNL     1      -4.698   3.617   2.026  0.00  0.00    +0.279 C 
ATOM      3  O   UNL     1      -4.141   4.646   1.705  0.00  0.00    -0.270 OA
ATOM      4  C   UNL     1      -6.190   3.382   2.143  0.00  0.00    +0.278 C 
ATOM      5  N   UNL     1      -6.287   1.973   2.562  0.00  0.00    -0.263 N 
ATOM      6  C   UNL     1      -5.027   1.511   2.652  0.00  0.00    +0.315 C 
ATOM      7  O   UNL     1      -4.745   0.373   2.973  0.00  0.00    -0.252 OA
ATOM      8  H   UNL     1      -7.101   1.474   2.735  0.00  0.00    +0.153 HD
ENDROOT
BRANCH   1  14
ATOM      9  C   UNL     1      -0.013   1.086   0.008  0.00  0.00    +0.044 C 
ATOM     10  C   UNL     1      -0.718   1.572   1.248  0.00  0.00    -0.046 A 
ATOM     11  C   UNL     1       0.002   1.806   2.405  0.00  0.00    +0.004 A 
ATOM     12  C   UNL     1      -0.642   2.251   3.545  0.00  0.00    +0.002 A 
ATOM     13  C   UNL     1      -2.007   2.464   3.530  0.00  0.00    +0.024 A 
ATOM     14  C   UNL     1      -2.732   2.231   2.370  0.00  0.00    +0.049 A 
ATOM     15  C   UNL     1      -2.082   1.789   1.226  0.00  0.00    -0.026 A 
ATOM     16  C   UNL     1      -2.864   1.540  -0.038  0.00  0.00    +0.046 C 
ENDBRANCH   1  14
BRANCH   4  17
ATOM     17  C   UNL     1      -6.877   3.594   0.792  0.00  0.00    +0.436 C 
ATOM     18  F   UNL     1      -6.349   2.699  -0.144  0.00  0.00    -0.166 F 
ATOM     19  F   UNL     1      -8.251   3.371   0.928  0.00  0.00    -0.166 F 
ATOM     20  F   UNL     1      -6.657   4.906   0.359  0.00  0.00    -0.166 F 
ENDBRANCH   4  17
BRANCH   4  21
ATOM     21  N   UNL     1      -6.772   4.263   3.159  0.00  0.00    -0.280 N 
ATOM     22  C   UNL     1      -6.680   5.600   3.025  0.00  0.00    +0.215 C 
ATOM     23  O   UNL     1      -6.115   6.075   2.062  0.00  0.00    -0.276 OA
ATOM     24  H   UNL     1      -7.224   3.883   3.929  0.00  0.00    +0.151 HD
BRANCH  22  25
ATOM     25  C   UNL     1      -7.279   6.506   4.070  0.00  0.00    +0.096 C 
BRANCH  25  26
ATOM     26  C   UNL     1      -7.036   7.965   3.679  0.00  0.00    +0.013 C 
BRANCH  26  27
ATOM     27  C   UNL     1      -7.644   8.885   4.740  0.00  0.00    -0.011 C 
ATOM     28  C   UNL     1      -9.165   8.716   4.751  0.00  0.00    +0.003 C 
ATOM     29  C   UNL     1      -9.772   9.636   5.812  0.00  0.00    +0.000 C 
ATOM     30  C   UNL     1      -9.423  11.089   5.488  0.00  0.00    +0.000 C 
ATOM     31  C   UNL     1      -7.902  11.258   5.477  0.00  0.00    +0.000 C 
ATOM     32  C   UNL     1      -7.294  10.339   4.416  0.00  0.00    +0.003 C 
ENDBRANCH  26  27
ENDBRANCH  25  26
ENDBRANCH  22  25
ENDBRANCH   4  21
TORSDOF 6
