REMARK  Name = ZINC32102984
REMARK  4 active torsions:
REMARK  status: ('A' for Active; 'I' for Inactive)
REMARK    1  A    between atoms: C_1  and  C_2
REMARK    2  A    between atoms: C_2  and  C_3
REMARK    3  A    between atoms: C_8  and  N_9
REMARK    4  A    between atoms: N_25  and  C_28
REMARK                            x       y       z     vdW  Elec       q    Type
REMARK                         _______ _______ _______ _____ _____    ______ ____
ROOT
ATOM      1  N   UNL     1       2.964  -0.161  -0.237  0.00  0.00    -0.218 N 
ATOM      2  C   UNL     1       4.309  -0.069  -0.244  0.00  0.00    +0.133 A 
ATOM      3  C   UNL     1       4.702   0.357   0.999  0.00  0.00    +0.032 A 
ATOM      4  C   UNL     1       3.564   0.514   1.776  0.00  0.00    +0.141 A 
ATOM      5  N   UNL     1       2.518   0.211   1.042  0.00  0.00    -0.173 NA
ATOM      6  C   UNL     1       6.147   0.590   1.342  0.00  0.00    +0.112 C 
ATOM      7  C   UNL     1       7.022  -0.319   0.481  0.00  0.00    +0.122 C 
ATOM      8  C   UNL     1       6.544  -0.342  -0.944  0.00  0.00    +0.220 C 
ATOM      9  O   UNL     1       7.362  -0.386  -1.838  0.00  0.00    -0.275 OA
ATOM     10  N   UNL     1       5.232  -0.316  -1.260  0.00  0.00    -0.270 N 
ATOM     11  C   UNL     1       6.521   2.026   1.166  0.00  0.00    -0.006 A 
ATOM     12  C   UNL     1       6.513   2.845   0.057  0.00  0.00    +0.007 A 
ATOM     13  C   UNL     1       6.930   4.159   0.239  0.00  0.00    +0.000 A 
ATOM     14  C   UNL     1       7.333   4.620   1.476  0.00  0.00    +0.002 A 
ATOM     15  C   UNL     1       7.345   3.803   2.596  0.00  0.00    +0.024 A 
ATOM     16  C   UNL     1       6.928   2.481   2.427  0.00  0.00    +0.040 A 
ATOM     17  N   UNL     1       6.840   1.461   3.358  0.00  0.00    -0.273 N 
ATOM     18  C   UNL     1       6.390   0.313   2.809  0.00  0.00    +0.235 C 
ATOM     19  O   UNL     1       6.213  -0.740   3.384  0.00  0.00    -0.274 OA
ATOM     20  C   UNL     1       7.193   1.610   4.772  0.00  0.00    +0.138 C 
ATOM     21  H   UNL     1       4.938  -0.466  -2.172  0.00  0.00    +0.156 HD
ENDROOT
BRANCH   1  27
ATOM     22  C   UNL     1       1.054   0.215  -1.669  0.00  0.00    -0.022 A 
ATOM     23  C   UNL     1       0.262  -0.169  -2.734  0.00  0.00    +0.006 A 
ATOM     24  C   UNL     1       0.563  -1.318  -3.442  0.00  0.00    +0.000 A 
ATOM     25  C   UNL     1       1.657  -2.086  -3.086  0.00  0.00    +0.002 A 
ATOM     26  C   UNL     1       2.452  -1.707  -2.023  0.00  0.00    +0.028 A 
ATOM     27  C   UNL     1       2.156  -0.551  -1.313  0.00  0.00    +0.071 A 
BRANCH  22  29
ATOM     28  C   UNL     1       1.623   2.610  -1.374  0.00  0.00    +0.009 C 
ATOM     29  C   UNL     1       0.725   1.467  -0.898  0.00  0.00    +0.034 C 
ENDBRANCH  22  29
ENDBRANCH   1  27
TORSDOF 2
