REMARK  Name = ZINC09120713
REMARK  6 active torsions:
REMARK  status: ('A' for Active; 'I' for Inactive)
REMARK    1  A    between atoms: N_9  and  C_10
REMARK    2  A    between atoms: C_10  and  C_11
REMARK    3  A    between atoms: C_14  and  S_23
REMARK    4  A    between atoms: N_15  and  C_16
REMARK    5  A    between atoms: S_23  and  C_24
REMARK    6  A    between atoms: C_24  and  C_25
REMARK                            x       y       z     vdW  Elec       q    Type
REMARK                         _______ _______ _______ _____ _____    ______ ____
ROOT
ATOM      1  C   UNL     1      -3.150   0.626  -1.071  0.00  0.00    +0.159 A 
ATOM      2  N   UNL     1      -4.199  -0.006  -0.626  0.00  0.00    -0.131 NA
ATOM      3  N   UNL     1      -4.198  -0.016   0.659  0.00  0.00    -0.122 NA
ATOM      4  C   UNL     1      -3.136   0.611   1.110  0.00  0.00    +0.197 A 
ATOM      5  N   UNL     1      -2.430   1.038   0.019  0.00  0.00    -0.271 N 
ENDROOT
BRANCH   5   6
ATOM      6  C   UNL     1      -1.224   1.754   0.017  0.00  0.00    +0.069 A 
ATOM      7  C   UNL     1      -0.013   1.076   0.008  0.00  0.00    +0.028 A 
ATOM      8  C   UNL     1       1.174   1.783   0.000  0.00  0.00    +0.002 A 
ATOM      9  C   UNL     1       1.157   3.166   0.008  0.00  0.00    +0.002 A 
ATOM     10  C   UNL     1      -0.048   3.845   0.023  0.00  0.00    +0.022 A 
ATOM     11  C   UNL     1      -1.238   3.143   0.031  0.00  0.00    +0.065 A 
ATOM     12 CL   UNL     1      -2.750   3.996   0.050  0.00  0.00    -0.081 Cl
ENDBRANCH   5   6
BRANCH   1  13
ATOM     13  C   UNL     1      -2.793   0.859  -2.517  0.00  0.00    +0.199 C 
BRANCH  13  22
ATOM     14  C   UNL     1      -2.693  -3.999  -4.564  0.00  0.00    +0.002 A 
ATOM     15  C   UNL     1      -3.821  -3.263  -4.231  0.00  0.00    +0.002 A 
ATOM     16  C   UNL     1      -3.698  -1.997  -3.700  0.00  0.00    +0.028 A 
ATOM     17  C   UNL     1      -2.435  -1.458  -3.493  0.00  0.00    +0.069 A 
ATOM     18  C   UNL     1      -1.293  -2.201  -3.836  0.00  0.00    +0.089 A 
ATOM     19  C   UNL     1      -1.443  -3.483  -4.372  0.00  0.00    +0.030 A 
ATOM     20  N   UNL     1      -0.215  -1.433  -3.534  0.00  0.00    -0.236 NA
ATOM     21  C   UNL     1      -0.614  -0.294  -3.046  0.00  0.00    +0.200 A 
ATOM     22  N   UNL     1      -1.972  -0.254  -3.002  0.00  0.00    -0.323 N 
ENDBRANCH  13  22
ENDBRANCH   1  13
BRANCH   4  23
ATOM     23  S   UNL     1      -2.703   0.855   2.800  0.00  0.00    -0.076 S 
BRANCH  23  24
ATOM     24  C   UNL     1      -4.094   0.023   3.605  0.00  0.00    +0.173 C 
BRANCH  24  25
ATOM     25  C   UNL     1      -3.933   0.107   5.101  0.00  0.00    +0.231 C 
ATOM     26  O   UNL     1      -2.973   0.674   5.576  0.00  0.00    -0.274 OA
ATOM     27  N   UNL     1      -4.857  -0.447   5.911  0.00  0.00    -0.240 N 
ATOM     28  C   UNL     1      -4.713  -0.372   7.248  0.00  0.00    +0.303 C 
ATOM     29  O   UNL     1      -3.750   0.197   7.725  0.00  0.00    -0.253 OA
ATOM     30  N   UNL     1      -5.637  -0.926   8.058  0.00  0.00    -0.313 N 
ATOM     31  H   UNL     1      -5.625  -0.901   5.530  0.00  0.00    +0.159 HD
ATOM     32  H   UNL     1      -6.405  -1.380   7.678  0.00  0.00    +0.146 HD
ATOM     33  H   UNL     1      -5.533  -0.872   9.021  0.00  0.00    +0.146 HD
ENDBRANCH  24  25
ENDBRANCH  23  24
ENDBRANCH   4  23
TORSDOF 6
