REMARK  Name = ZINC36264593
REMARK  6 active torsions:
REMARK  status: ('A' for Active; 'I' for Inactive)
REMARK    1  A    between atoms: C_1  and  O_2
REMARK    2  A    between atoms: O_2  and  C_3
REMARK    3  A    between atoms: C_4  and  S_11
REMARK    4  A    between atoms: S_11  and  N_14
REMARK    5  A    between atoms: N_14  and  C_15
REMARK    6  A    between atoms: C_18  and  N_20
REMARK                            x       y       z     vdW  Elec       q    Type
REMARK                         _______ _______ _______ _____ _____    ______ ____
ROOT
ATOM      1  S   UNL     1       2.941  -0.406  -0.574  0.00  0.00    +0.062 S 
ATOM      2  O   UNL     1       2.675   0.891  -1.090  0.00  0.00    -0.153 OA
ATOM      3  O   UNL     1       4.249  -0.831  -0.219  0.00  0.00    -0.153 OA
ENDROOT
BRANCH   1   5
ATOM      4  C   UNL     1       1.999  -1.761   1.606  0.00  0.00    +0.160 A 
ATOM      5  C   UNL     1       1.944  -0.588   0.868  0.00  0.00    +0.149 A 
ATOM      6  C   UNL     1       1.109   0.439   1.265  0.00  0.00    +0.052 A 
ATOM      7  C   UNL     1       0.327   0.297   2.398  0.00  0.00    +0.044 A 
ATOM      8  C   UNL     1       0.379  -0.872   3.135  0.00  0.00    +0.039 A 
ATOM      9  C   UNL     1       1.210  -1.904   2.738  0.00  0.00    +0.063 A 
ATOM     10 BR   UNL     1       1.275  -3.505   3.742  0.00  0.00    -0.046 Br
ATOM     11 CL   UNL     1      -0.720   1.589   2.895  0.00  0.00    -0.083 Cl
BRANCH   4  13
ATOM     12  C   UNL     1       2.275  -3.740   0.317  0.00  0.00    +0.277 C 
ATOM     13  O   UNL     1       2.819  -2.772   1.216  0.00  0.00    -0.492 OA
ENDBRANCH   4  13
ENDBRANCH   1   5
BRANCH   1  14
ATOM     14  N   UNL     1       2.379  -1.486  -1.696  0.00  0.00    -0.188 NA
ATOM     15  H   UNL     1       2.941  -2.224  -1.982  0.00  0.00    +0.148 HD
BRANCH  14  16
ATOM     16  C   UNL     1       1.035  -1.328  -2.257  0.00  0.00    +0.061 C 
ATOM     17  C   UNL     1       0.264  -2.601  -2.613  0.00  0.00    +0.004 C 
ATOM     18  C   UNL     1       0.832  -1.713  -3.723  0.00  0.00    -0.055 C 
BRANCH  18  19
ATOM     19  N   UNL     1       1.999  -2.213  -4.462  0.00  0.00    +0.381 N 
ATOM     20  H   UNL     1       2.349  -3.047  -4.013  0.00  0.00    -0.090 HD
ATOM     21  H   UNL     1       1.730  -2.429  -5.410  0.00  0.00    -0.090 HD
ATOM     22  H   UNL     1       2.720  -1.507  -4.469  0.00  0.00    -0.090 HD
ENDBRANCH  18  19
ENDBRANCH  14  16
ENDBRANCH   1  14
TORSDOF 5
