REMARK  Name = ZINC59880239
REMARK  11 active torsions:
REMARK  status: ('A' for Active; 'I' for Inactive)
REMARK    1  A    between atoms: C_1  and  C_2
REMARK    2  A    between atoms: C_2  and  C_4
REMARK    3  A    between atoms: C_2  and  S_14
REMARK    4  A    between atoms: N_6  and  N_7
REMARK    5  A    between atoms: C_8  and  C_10
REMARK    6  A    between atoms: S_14  and  C_15
REMARK    7  A    between atoms: N_20  and  N_21
REMARK    8  A    between atoms: C_22  and  C_23
REMARK    9  A    between atoms: C_26  and  C_28
REMARK   10  A    between atoms: C_28  and  O_29
REMARK   11  A    between atoms: O_29  and  C_30
REMARK                            x       y       z     vdW  Elec       q    Type
REMARK                         _______ _______ _______ _____ _____    ______ ____
ROOT
ATOM      1  C   UNL     1      -0.189  -0.057  -2.809  0.00  0.00    +0.211 A 
ATOM      2  N   UNL     1       0.035  -0.270  -4.110  0.00  0.00    -0.186 NA
ATOM      3  C   UNL     1      -0.939   0.260  -4.820  0.00  0.00    +0.232 A 
ATOM      4  N   UNL     1      -1.815   0.830  -3.965  0.00  0.00    -0.245 N 
ATOM      5  N   UNL     1      -1.312   0.608  -2.673  0.00  0.00    -0.144 NA
ATOM      6  N   UNL     1      -1.046   0.237  -6.198  0.00  0.00    -0.205 N 
ATOM      7  H   UNL     1      -1.805   0.657  -6.633  0.00  0.00    +0.177 HD
ATOM      8  H   UNL     1      -2.632   1.298  -4.197  0.00  0.00    +0.192 HD
ENDROOT
BRANCH   6   9
ATOM      9  N   UNL     1      -0.060  -0.395  -6.967  0.00  0.00    -0.184 NA
ATOM     10  C   UNL     1      -0.160  -0.416  -8.264  0.00  0.00    +0.176 C 
BRANCH  10  11
ATOM     11  C   UNL     1       0.872  -1.077  -9.068  0.00  0.00    +0.148 A 
ATOM     12  C   UNL     1       0.892  -1.167 -10.430  0.00  0.00    +0.051 A 
ATOM     13  C   UNL     1       2.057  -1.879 -10.771  0.00  0.00    +0.049 A 
ATOM     14  C   UNL     1       2.687  -2.186  -9.619  0.00  0.00    +0.143 A 
ATOM     15  O   UNL     1       1.971  -1.696  -8.592  0.00  0.00    -0.455 OA
BRANCH  14  16
ATOM     16  C   UNL     1       3.982  -2.947  -9.501  0.00  0.00    +0.303 C 
BRANCH  16  17
ATOM     17  O   UNL     1       5.078  -2.031  -9.531  0.00  0.00    -0.484 OA
BRANCH  17  18
ATOM     18  C   UNL     1       6.327  -2.559  -9.435  0.00  0.00    +0.121 A 
ATOM     19  C   UNL     1       6.493  -3.932  -9.321  0.00  0.00    +0.048 A 
ATOM     20  C   UNL     1       7.763  -4.467  -9.223  0.00  0.00    +0.042 A 
ATOM     21  C   UNL     1       8.869  -3.635  -9.240  0.00  0.00    +0.124 A 
ATOM     22  C   UNL     1       8.704  -2.265  -9.354  0.00  0.00    +0.042 A 
ATOM     23  C   UNL     1       7.436  -1.727  -9.458  0.00  0.00    +0.048 A 
ATOM     24  F   UNL     1      10.110  -4.160  -9.144  0.00  0.00    -0.205 F 
ENDBRANCH  17  18
ENDBRANCH  16  17
ENDBRANCH  14  16
ENDBRANCH  10  11
ENDBRANCH   6   9
BRANCH   1  25
ATOM     25  S   UNL     1       0.851  -0.589  -1.490  0.00  0.00    -0.072 S 
BRANCH  25  27
ATOM     26  C   UNL     1      -0.019   1.526   0.010  0.00  0.00    +0.029 C 
ATOM     27  C   UNL     1       0.002  -0.004   0.002  0.00  0.00    +0.138 C 
BRANCH  27  28
ATOM     28  C   UNL     1       0.731  -0.503   1.223  0.00  0.00    +0.242 C 
ATOM     29  O   UNL     1       1.911  -0.775   1.156  0.00  0.00    -0.273 OA
ATOM     30  N   UNL     1       0.071  -0.647   2.389  0.00  0.00    -0.233 N 
ATOM     31  H   UNL     1      -0.872  -0.430   2.443  0.00  0.00    +0.173 HD
BRANCH  30  32
ATOM     32  N   UNL     1       0.749  -1.111   3.525  0.00  0.00    -0.234 N 
ATOM     33  C   UNL     1       0.090  -1.256   4.691  0.00  0.00    +0.232 C 
ATOM     34  O   UNL     1      -1.090  -0.984   4.758  0.00  0.00    -0.274 OA
ATOM     35  H   UNL     1       1.693  -1.329   3.471  0.00  0.00    +0.173 HD
BRANCH  33  36
ATOM     36  C   UNL     1       0.819  -1.755   5.912  0.00  0.00    +0.076 C 
ATOM     37  C   UNL     1       1.595  -0.657   6.658  0.00  0.00    +0.013 C 
ATOM     38  C   UNL     1       0.309  -0.405   7.463  0.00  0.00    +0.001 C 
ATOM     39  C   UNL     1      -0.073  -1.863   7.160  0.00  0.00    +0.013 C 
ENDBRANCH  33  36
ENDBRANCH  30  32
ENDBRANCH  27  28
ENDBRANCH  25  27
ENDBRANCH   1  25
TORSDOF 10
