REMARK  Name = ZINC16149841
REMARK  7 active torsions:
REMARK  status: ('A' for Active; 'I' for Inactive)
REMARK    1  A    between atoms: C_1  and  C_2
REMARK    2  A    between atoms: C_4  and  C_14
REMARK    3  A    between atoms: C_5  and  C_13
REMARK    4  A    between atoms: N_6  and  C_7
REMARK    5  A    between atoms: N_16  and  N_17
REMARK    6  A    between atoms: N_17  and  S_18
REMARK    7  A    between atoms: S_18  and  C_21
REMARK                            x       y       z     vdW  Elec       q    Type
REMARK                         _______ _______ _______ _____ _____    ______ ____
ROOT
ATOM      1  C   UNL     1      -1.861   6.656  -3.045  0.00  0.00    +0.261 C 
ATOM      2  O   UNL     1      -1.590   7.833  -2.908  0.00  0.00    -0.269 OA
ATOM      3  N   UNL     1      -1.149   5.719  -2.389  0.00  0.00    -0.228 N 
ATOM      4  H   UNL     1      -1.365   4.780  -2.498  0.00  0.00    +0.171 HD
ENDROOT
BRANCH   1   8
ATOM      5  C   UNL     1      -5.247   3.848  -5.630  0.00  0.00    +0.064 C 
ATOM      6  C   UNL     1      -4.455   4.996  -5.061  0.00  0.00    +0.022 A 
ATOM      7  C   UNL     1      -3.425   4.887  -4.204  0.00  0.00    +0.036 A 
ATOM      8  C   UNL     1      -2.969   6.254  -3.929  0.00  0.00    +0.059 A 
ATOM      9  C   UNL     1      -3.783   7.080  -4.654  0.00  0.00    +0.033 A 
ATOM     10  N   UNL     1      -4.666   6.319  -5.332  0.00  0.00    -0.317 N 
ATOM     11  C   UNL     1      -3.704   8.585  -4.691  0.00  0.00    +0.064 C 
BRANCH  10  12
ATOM     12  C   UNL     1      -5.660   6.814  -6.187  0.00  0.00    +0.047 A 
ATOM     13  C   UNL     1      -5.306   7.477  -7.355  0.00  0.00    +0.026 A 
ATOM     14  C   UNL     1      -6.288   7.960  -8.197  0.00  0.00    +0.002 A 
ATOM     15  C   UNL     1      -7.622   7.792  -7.875  0.00  0.00    +0.000 A 
ATOM     16  C   UNL     1      -7.978   7.136  -6.710  0.00  0.00    +0.002 A 
ATOM     17  C   UNL     1      -7.000   6.647  -5.866  0.00  0.00    +0.026 A 
ENDBRANCH  10  12
ENDBRANCH   1   8
BRANCH   3  18
ATOM     18  N   UNL     1      -0.095   6.101  -1.548  0.00  0.00    -0.108 NA
ATOM     19  H   UNL     1       0.621   6.657  -1.891  0.00  0.00    +0.172 HD
BRANCH  18  20
ATOM     20  S   UNL     1      -0.074   5.604   0.031  0.00  0.00    +0.074 S 
ATOM     21  O   UNL     1      -1.319   5.990   0.596  0.00  0.00    -0.152 OA
ATOM     22  O   UNL     1       1.171   6.024   0.573  0.00  0.00    -0.152 OA
BRANCH  20  23
ATOM     23  C   UNL     1      -0.050   3.842   0.022  0.00  0.00    +0.110 A 
ATOM     24  C   UNL     1       1.156   3.167   0.007  0.00  0.00    +0.048 A 
ATOM     25  C   UNL     1       1.176   1.784   0.000  0.00  0.00    +0.044 A 
ATOM     26  C   UNL     1      -0.013   1.076   0.008  0.00  0.00    +0.040 A 
ATOM     27  C   UNL     1      -1.220   1.751   0.017  0.00  0.00    +0.044 A 
ATOM     28  C   UNL     1      -1.238   3.135   0.029  0.00  0.00    +0.048 A 
ATOM     29 CL   UNL     1      -2.712   0.864   0.019  0.00  0.00    -0.083 Cl
ATOM     30 CL   UNL     1       2.691   0.937  -0.019  0.00  0.00    -0.083 Cl
ENDBRANCH  20  23
ENDBRANCH  18  20
ENDBRANCH   3  18
TORSDOF 5
