REMARK  Name = ZINC63027592
REMARK  8 active torsions:
REMARK  status: ('A' for Active; 'I' for Inactive)
REMARK    1  A    between atoms: C_1  and  C_2
REMARK    2  A    between atoms: C_2  and  C_4
REMARK    3  A    between atoms: C_2  and  N_23
REMARK    4  A    between atoms: C_4  and  C_6
REMARK    5  A    between atoms: C_4  and  C_20
REMARK    6  A    between atoms: C_15  and  N_16
REMARK    7  A    between atoms: C_20  and  C_21
REMARK    8  A    between atoms: C_20  and  C_22
REMARK                            x       y       z     vdW  Elec       q    Type
REMARK                         _______ _______ _______ _____ _____    ______ ____
ROOT
ATOM      1  C   UNL     1       0.876  -2.891   1.801  0.00  0.00    -0.005 A 
ATOM      2  C   UNL     1       1.810  -3.884   2.152  0.00  0.00    +0.007 A 
ATOM      3  C   UNL     1       2.587  -3.778   3.317  0.00  0.00    +0.025 A 
ATOM      4  C   UNL     1       3.479  -4.760   3.623  0.00  0.00    +0.019 A 
ATOM      5  C   UNL     1       3.632  -5.871   2.793  0.00  0.00    +0.017 A 
ATOM      6  C   UNL     1       2.895  -6.005   1.657  0.00  0.00    +0.029 A 
ATOM      7  C   UNL     1       1.964  -5.012   1.308  0.00  0.00    +0.071 A 
ATOM      8  N   UNL     1       1.225  -5.118   0.199  0.00  0.00    -0.253 NA
ATOM      9  C   UNL     1       0.354  -4.196  -0.131  0.00  0.00    +0.144 A 
ATOM     10  C   UNL     1       0.151  -3.064   0.656  0.00  0.00    +0.148 A 
ATOM     11 BR   UNL     1       4.525  -4.616   5.191  0.00  0.00    -0.050 Br
ENDROOT
BRANCH  10  12
ATOM     12  N   UNL     1      -0.846  -2.048   0.250  0.00  0.00    +0.058 N 
ATOM     13  O   UNL     1      -1.888  -2.393  -0.257  0.00  0.00    -0.126 OA
ATOM     14  O   UNL     1      -0.618  -0.874   0.426  0.00  0.00    -0.126 OA
ENDBRANCH  10  12
BRANCH   1  15
ATOM     15  C   UNL     1       0.677  -1.674   2.667  0.00  0.00    +0.010 C 
BRANCH  15  16
ATOM     16  C   UNL     1      -0.820  -1.409   2.838  0.00  0.00    -0.011 C 
ATOM     17  C   UNL     1      -1.489  -2.642   3.450  0.00  0.00    +0.008 C 
ATOM     18  C   UNL     1      -1.022  -0.207   3.763  0.00  0.00    +0.008 C 
ENDBRANCH  15  16
BRANCH  15  20
ATOM     19  C   UNL     1       1.002   0.800   2.800  0.00  0.00    -0.014 C 
ATOM     20  C   UNL     1       1.337  -0.463   2.004  0.00  0.00    -0.070 C 
BRANCH  20  21
ATOM     21  N   UNL     1       2.793  -0.652   1.976  0.00  0.00    +0.380 N 
ATOM     22  H   UNL     1       3.014  -1.485   1.451  0.00  0.00    -0.090 HD
ATOM     23  H   UNL     1       3.228   0.146   1.539  0.00  0.00    -0.090 HD
ATOM     24  H   UNL     1       3.138  -0.748   2.920  0.00  0.00    -0.090 HD
ENDBRANCH  20  21
ENDBRANCH  15  20
ENDBRANCH   1  15
TORSDOF 5
