REMARK  Name = ZINC40814781
REMARK  7 active torsions:
REMARK  status: ('A' for Active; 'I' for Inactive)
REMARK    1  A    between atoms: C_1  and  C_2
REMARK    2  A    between atoms: C_6  and  C_7
REMARK    3  A    between atoms: N_9  and  N_10
REMARK    4  A    between atoms: C_11  and  C_13
REMARK    5  A    between atoms: N_24  and  N_25
REMARK    6  A    between atoms: N_25  and  C_26
REMARK    7  A    between atoms: C_29  and  N_32
REMARK                            x       y       z     vdW  Elec       q    Type
REMARK                         _______ _______ _______ _____ _____    ______ ____
ROOT
ATOM      1  C   UNL     1      -0.018   1.503   0.010  0.00  0.00    +0.048 C 
ATOM      2  C   UNL     1       0.002  -0.004   0.002  0.00  0.00    +0.009 A 
ATOM      3  C   UNL     1       0.009  -0.838  -1.123  0.00  0.00    +0.042 A 
ATOM      4  C   UNL     1       0.027  -2.137  -0.673  0.00  0.00    +0.115 A 
ATOM      5  O   UNL     1       0.035  -2.112   0.658  0.00  0.00    -0.454 OA
ATOM      6  C   UNL     1       0.024  -0.830   1.091  0.00  0.00    +0.194 A 
ATOM      7  C   UNL     1       0.034  -3.326  -1.600  0.00  0.00    +0.075 C 
ATOM      8  C   UNL     1      -0.491  -2.902  -2.974  0.00  0.00    +0.014 C 
ATOM      9  C   UNL     1       0.279  -1.684  -3.495  0.00  0.00    +0.058 C 
ATOM     10  C   UNL     1       0.000  -0.511  -2.566  0.00  0.00    +0.070 C 
ATOM     11  N   UNL     1      -0.229   0.687  -3.008  0.00  0.00    -0.186 NA
ENDROOT
BRANCH   6  12
ATOM     12  C   UNL     1       0.031  -0.400   2.494  0.00  0.00    +0.296 C 
ATOM     13  O   UNL     1       0.016   0.786   2.766  0.00  0.00    -0.265 OA
ATOM     14  N   UNL     1       0.053  -1.317   3.480  0.00  0.00    -0.228 N 
ATOM     15  H   UNL     1       0.065  -2.263   3.263  0.00  0.00    +0.173 HD
BRANCH  14  16
ATOM     16  N   UNL     1       0.060  -0.906   4.820  0.00  0.00    -0.230 N 
ATOM     17  C   UNL     1       0.082  -1.824   5.806  0.00  0.00    +0.260 C 
ATOM     18  O   UNL     1       0.097  -3.008   5.534  0.00  0.00    -0.269 OA
ATOM     19  H   UNL     1       0.048   0.039   5.037  0.00  0.00    +0.173 HD
BRANCH  17  20
ATOM     20  C   UNL     1       0.089  -1.390   7.220  0.00  0.00    +0.040 A 
ATOM     21  C   UNL     1       0.066  -0.030   7.535  0.00  0.00    +0.013 A 
ATOM     22  C   UNL     1       0.072   0.369   8.856  0.00  0.00    +0.002 A 
ATOM     23  C   UNL     1       0.101  -0.575   9.867  0.00  0.00    +0.020 A 
ATOM     24  C   UNL     1       0.124  -1.925   9.562  0.00  0.00    +0.042 A 
ATOM     25  C   UNL     1       0.112  -2.337   8.244  0.00  0.00    +0.033 A 
ATOM     26 CL   UNL     1       0.161  -3.102  10.837  0.00  0.00    -0.084 Cl
ENDBRANCH  17  20
ENDBRANCH  14  16
ENDBRANCH   6  12
BRANCH  11  27
ATOM     27  N   UNL     1      -0.224   0.939  -4.386  0.00  0.00    -0.238 N 
ATOM     28  H   UNL     1      -0.050   0.217  -5.010  0.00  0.00    +0.174 HD
BRANCH  27  29
ATOM     29  C   UNL     1      -0.470   2.227  -4.860  0.00  0.00    +0.048 A 
ATOM     30  C   UNL     1      -0.714   3.264  -3.967  0.00  0.00    +0.027 A 
ATOM     31  C   UNL     1      -0.957   4.538  -4.441  0.00  0.00    +0.034 A 
ATOM     32  C   UNL     1      -0.958   4.784  -5.802  0.00  0.00    +0.126 A 
ATOM     33  C   UNL     1      -0.715   3.755  -6.694  0.00  0.00    +0.034 A 
ATOM     34  C   UNL     1      -0.466   2.479  -6.227  0.00  0.00    +0.027 A 
BRANCH  32  35
ATOM     35  N   UNL     1      -1.220   6.154  -6.306  0.00  0.00    +0.056 N 
ATOM     36  O   UNL     1      -1.432   7.054  -5.528  0.00  0.00    -0.126 OA
ATOM     37  O   UNL     1      -1.221   6.370  -7.496  0.00  0.00    -0.126 OA
ENDBRANCH  32  35
ENDBRANCH  27  29
ENDBRANCH  11  27
TORSDOF 6
