REMARK  Name = ZINC05022921
REMARK  15 active torsions:
REMARK  status: ('A' for Active; 'I' for Inactive)
REMARK    1  A    between atoms: C_1  and  C_2
REMARK    2  A    between atoms: C_2  and  C_3
REMARK    3  A    between atoms: C_2  and  C_4
REMARK    4  A    between atoms: C_2  and  O_5
REMARK    5  A    between atoms: O_5  and  C_6
REMARK    6  A    between atoms: N_8  and  C_9
REMARK    7  A    between atoms: C_9  and  C_11
REMARK    8  A    between atoms: C_9  and  C_22
REMARK    9  A    between atoms: C_11  and  C_12
REMARK   10  A    between atoms: N_24  and  C_25
REMARK   11  A    between atoms: C_25  and  C_27
REMARK   12  A    between atoms: C_25  and  C_38
REMARK   13  A    between atoms: C_27  and  C_28
REMARK   14  A    between atoms: C_38  and  O_40
REMARK   15  A    between atoms: O_40  and  C_41
REMARK                            x       y       z     vdW  Elec       q    Type
REMARK                         _______ _______ _______ _____ _____    ______ ____
ROOT
ATOM      1  C   UNL     1       4.175   0.620   1.402  0.00  0.00    +0.166 C 
ENDROOT
BRANCH   1   4
ATOM      2  C   UNL     1       4.319   3.052   1.360  0.00  0.00    +0.401 C 
ATOM      3  O   UNL     1       5.010   2.965   0.364  0.00  0.00    -0.226 OA
ATOM      4  N   UNL     1       3.851   1.937   1.955  0.00  0.00    -0.269 N 
ATOM      5  H   UNL     1       3.300   2.006   2.750  0.00  0.00    +0.153 HD
BRANCH   2   6
ATOM      6  O   UNL     1       4.022   4.262   1.869  0.00  0.00    -0.445 OA
BRANCH   6   8
ATOM      7  C   UNL     1       4.041   5.439  -0.263  0.00  0.00    +0.055 C 
ATOM      8  C   UNL     1       4.560   5.419   1.176  0.00  0.00    +0.107 C 
ATOM      9  C   UNL     1       4.119   6.695   1.895  0.00  0.00    +0.055 C 
ATOM     10  C   UNL     1       6.088   5.342   1.166  0.00  0.00    +0.055 C 
ENDBRANCH   6   8
ENDBRANCH   2   6
ENDBRANCH   1   4
BRANCH   1  11
ATOM     11  C   UNL     1       5.670   0.430   1.398  0.00  0.00    +0.234 C 
ATOM     12  O   UNL     1       6.404   1.394   1.462  0.00  0.00    -0.274 OA
ATOM     13  N   UNL     1       6.192  -0.810   1.324  0.00  0.00    -0.301 N 
ATOM     14  H   UNL     1       5.606  -1.581   1.272  0.00  0.00    +0.150 HD
BRANCH  13  15
ATOM     15  C   UNL     1       7.646  -0.994   1.321  0.00  0.00    +0.186 C 
BRANCH  15  16
ATOM     16  C   UNL     1       8.152  -1.023   2.740  0.00  0.00    +0.328 C 
ATOM     17  O   UNL     1       7.378  -0.902   3.660  0.00  0.00    -0.249 OA
BRANCH  16  18
ATOM     18  O   UNL     1       9.462  -1.183   2.982  0.00  0.00    -0.467 OA
ATOM     19  C   UNL     1       9.878  -1.201   4.373  0.00  0.00    +0.280 C 
ENDBRANCH  16  18
ENDBRANCH  15  16
BRANCH  15  20
ATOM     20  C   UNL     1       7.991  -2.315   0.629  0.00  0.00    +0.071 C 
BRANCH  20  21
ATOM     21  C   UNL     1       7.595  -2.240  -0.823  0.00  0.00    -0.020 A 
ATOM     22  C   UNL     1       6.445  -2.677  -1.361  0.00  0.00    +0.087 A 
ATOM     23  N   UNL     1       6.440  -2.437  -2.708  0.00  0.00    -0.360 N 
ATOM     24  H   UNL     1       5.714  -2.663  -3.311  0.00  0.00    +0.165 HD
ATOM     25  C   UNL     1       7.619  -1.833  -3.081  0.00  0.00    +0.047 A 
ATOM     26  C   UNL     1       8.395  -1.683  -1.917  0.00  0.00    +0.003 A 
ATOM     27  C   UNL     1       9.657  -1.093  -1.992  0.00  0.00    +0.010 A 
ATOM     28  C   UNL     1      10.134  -0.663  -3.198  0.00  0.00    +0.001 A 
ATOM     29  C   UNL     1       9.373  -0.809  -4.350  0.00  0.00    +0.002 A 
ATOM     30  C   UNL     1       8.125  -1.389  -4.298  0.00  0.00    +0.026 A 
ENDBRANCH  20  21
ENDBRANCH  15  20
ENDBRANCH  13  15
ENDBRANCH   1  11
BRANCH   1  31
ATOM     31  C   UNL     1       3.646   0.524  -0.031  0.00  0.00    +0.069 C 
BRANCH  31  32
ATOM     32  C   UNL     1       2.140   0.591  -0.015  0.00  0.00    -0.020 A 
ATOM     33  C   UNL     1       1.295  -0.452  -0.013  0.00  0.00    +0.087 A 
ATOM     34  N   UNL     1       0.002  -0.004   0.002  0.00  0.00    -0.360 N 
ATOM     35  H   UNL     1      -0.784  -0.572   0.006  0.00  0.00    +0.165 HD
ATOM     36  C   UNL     1      -0.017   1.373   0.010  0.00  0.00    +0.047 A 
ATOM     37  C   UNL     1       1.322   1.806  -0.001  0.00  0.00    +0.003 A 
ATOM     38  C   UNL     1       1.612   3.171   0.004  0.00  0.00    +0.010 A 
ATOM     39  C   UNL     1       0.593   4.082   0.019  0.00  0.00    +0.001 A 
ATOM     40  C   UNL     1      -0.729   3.659   0.029  0.00  0.00    +0.002 A 
ATOM     41  C   UNL     1      -1.038   2.317   0.029  0.00  0.00    +0.026 A 
ENDBRANCH  31  32
ENDBRANCH   1  31
TORSDOF 11
