REMARK  Name = ZINC24714111
REMARK  8 active torsions:
REMARK  status: ('A' for Active; 'I' for Inactive)
REMARK    1  A    between atoms: C_1  and  C_2
REMARK    2  A    between atoms: C_2  and  C_25
REMARK    3  A    between atoms: C_3  and  C_4
REMARK    4  A    between atoms: C_6  and  C_11
REMARK    5  A    between atoms: C_8  and  C_9
REMARK    6  A    between atoms: C_8  and  C_10
REMARK    7  A    between atoms: N_13  and  N_14
REMARK    8  A    between atoms: C_15  and  C_17
REMARK                            x       y       z     vdW  Elec       q    Type
REMARK                         _______ _______ _______ _____ _____    ______ ____
ROOT
ATOM      1  C   UNL     1       4.483   2.131   1.853  0.00  0.00    +0.233 C 
ATOM      2  O   UNL     1       3.334   1.809   2.071  0.00  0.00    -0.274 OA
ATOM      3  N   UNL     1       4.993   3.240   2.423  0.00  0.00    -0.234 N 
ATOM      4  H   UNL     1       6.035   3.532   2.225  0.00  0.00    +0.173 HD
ENDROOT
BRANCH   1   6
ATOM      5  C   UNL     1       4.899   1.148  -0.514  0.00  0.00    +0.030 C 
ATOM      6  C   UNL     1       5.342   1.289   0.944  0.00  0.00    +0.090 C 
ATOM      7  C   UNL     1       6.114   2.008  -0.164  0.00  0.00    -0.016 C 
ATOM      8  C   UNL     1       5.957   3.527  -0.263  0.00  0.00    +0.012 C 
ATOM      9  C   UNL     1       7.496   1.463  -0.530  0.00  0.00    +0.012 C 
BRANCH   5  12
ATOM     10  C   UNL     1       3.789   0.673  -3.059  0.00  0.00    +0.038 C 
ATOM     11  C   UNL     1       3.122   1.640  -2.115  0.00  0.00    -0.079 C 
ATOM     12  C   UNL     1       3.639   1.861  -0.931  0.00  0.00    -0.023 C 
ATOM     13  C   UNL     1       1.862   2.353  -2.532  0.00  0.00    +0.038 C 
ENDBRANCH   5  12
ENDBRANCH   1   6
BRANCH   3  14
ATOM     14  N   UNL     1       4.195   4.023   3.268  0.00  0.00    -0.230 N 
ATOM     15  C   UNL     1       4.704   5.133   3.839  0.00  0.00    +0.267 C 
ATOM     16  O   UNL     1       5.857   5.455   3.620  0.00  0.00    -0.268 OA
ATOM     17  H   UNL     1       3.153   3.731   3.466  0.00  0.00    +0.173 HD
BRANCH  15  18
ATOM     18  C   UNL     1       3.871   5.948   4.728  0.00  0.00    +0.076 A 
ATOM     19  C   UNL     1       4.197   7.103   5.408  0.00  0.00    +0.024 A 
ATOM     20  C   UNL     1       3.216   7.700   6.201  0.00  0.00    -0.036 A 
ATOM     21  C   UNL     1       2.005   7.084   6.241  0.00  0.00    -0.006 A 
ATOM     22  S   UNL     1       2.170   5.710   5.207  0.00  0.00    -0.088 S 
ATOM     23  C   UNL     1       1.034   7.813   7.129  0.00  0.00    +0.043 C 
ATOM     24  C   UNL     1       1.916   8.739   7.995  0.00  0.00    +0.010 C 
ATOM     25  C   UNL     1       3.147   8.944   7.090  0.00  0.00    +0.036 C 
ENDBRANCH  15  18
ENDBRANCH   3  14
TORSDOF 4
