REMARK  Name = ZINC09015936
REMARK  4 active torsions:
REMARK  status: ('A' for Active; 'I' for Inactive)
REMARK    1  A    between atoms: C_1  and  C_2
REMARK    2  A    between atoms: C_7  and  N_12
REMARK    3  A    between atoms: C_9  and  C_11
REMARK    4  A    between atoms: N_18  and  C_19
REMARK                            x       y       z     vdW  Elec       q    Type
REMARK                         _______ _______ _______ _____ _____    ______ ____
ROOT
ATOM      1  N   UNL     1       1.473  -2.527   2.423  0.00  0.00    -0.268 NA
ATOM      2  C   UNL     1       2.831  -1.964   2.494  0.00  0.00    +0.193 C 
ATOM      3  N   UNL     1       3.487  -2.466   3.713  0.00  0.00    -0.304 N 
ATOM      4  C   UNL     1       3.426  -3.826   3.945  0.00  0.00    +0.187 C 
ATOM      5  N   UNL     1       2.215  -4.430   3.669  0.00  0.00    -0.304 N 
ATOM      6  C   UNL     1       1.513  -3.998   2.449  0.00  0.00    +0.193 C 
ATOM      7  N   UNL     1       4.460  -4.505   4.402  0.00  0.00    -0.165 NA
ATOM      8  H   UNL     1       3.943  -1.867   4.325  0.00  0.00    +0.150 HD
ATOM      9  H   UNL     1       1.844  -5.110   4.253  0.00  0.00    +0.150 HD
ENDROOT
BRANCH   7  10
ATOM     10  C   UNL     1       4.354  -5.832   4.614  0.00  0.00    +0.327 A 
ATOM     11  N   UNL     1       3.272  -6.548   4.395  0.00  0.00    -0.191 NA
ATOM     12  C   UNL     1       3.533  -7.842   4.720  0.00  0.00    +0.111 A 
ATOM     13  C   UNL     1       2.774  -9.014   4.691  0.00  0.00    +0.031 A 
ATOM     14  C   UNL     1       3.339 -10.203   5.097  0.00  0.00    +0.002 A 
ATOM     15  C   UNL     1       4.654 -10.243   5.534  0.00  0.00    +0.004 A 
ATOM     16  C   UNL     1       5.415  -9.092   5.568  0.00  0.00    +0.048 A 
ATOM     17  C   UNL     1       4.864  -7.887   5.163  0.00  0.00    +0.157 A 
ATOM     18  O   UNL     1       5.341  -6.623   5.077  0.00  0.00    -0.421 OA
ENDBRANCH   7  10
BRANCH   1  24
ATOM     19  C   UNL     1      -0.019   1.526   0.010  0.00  0.00    +0.008 C 
ATOM     20  C   UNL     1       0.002  -0.004   0.002  0.00  0.00    -0.010 C 
ATOM     21  C   UNL     1      -1.433  -0.534   0.013  0.00  0.00    +0.003 C 
ATOM     22  C   UNL     1      -1.413  -2.063   0.004  0.00  0.00    +0.002 C 
ATOM     23  C   UNL     1      -0.673  -2.570   1.244  0.00  0.00    +0.019 C 
ATOM     24  C   UNL     1       0.763  -2.041   1.233  0.00  0.00    +0.063 C 
ATOM     25  C   UNL     1       0.742  -0.511   1.242  0.00  0.00    +0.006 C 
ATOM     26  C   UNL     1       0.026  -0.018   2.500  0.00  0.00    +0.009 C 
ENDBRANCH   1  24
TORSDOF 2
