REMARK  Name = ZINC39478412
REMARK  3 active torsions:
REMARK  status: ('A' for Active; 'I' for Inactive)
REMARK    1  A    between atoms: C_3  and  C_7
REMARK    2  A    between atoms: C_7  and  C_8
REMARK    3  A    between atoms: C_11  and  C_14
REMARK                            x       y       z     vdW  Elec       q    Type
REMARK                         _______ _______ _______ _____ _____    ______ ____
ROOT
ATOM      1  C   UNL     1       4.154   2.277   1.395  0.00  0.00    +0.142 C 
ATOM      2  N   UNL     1       3.496   1.911   2.434  0.00  0.00    -0.071 NA
ATOM      3  O   UNL     1       4.182   2.264   3.620  0.00  0.00    -0.365 OA
ATOM      4  C   UNL     1       5.392   2.918   3.207  0.00  0.00    +0.323 C 
ATOM      5  N   UNL     1       5.332   2.898   1.737  0.00  0.00    -0.289 N 
ATOM      6  H   UNL     1       5.995   3.256   1.127  0.00  0.00    +0.151 HD
ENDROOT
BRANCH   4   7
ATOM      7  C   UNL     1       5.428   4.334   3.722  0.00  0.00    +0.012 C 
ATOM      8  C   UNL     1       6.448   4.703   4.505  0.00  0.00    +0.013 C 
ATOM      9  C   UNL     1       6.468   6.093   5.069  0.00  0.00    +0.158 C 
ATOM     10  C   UNL     1       5.704   6.988   4.111  0.00  0.00    -0.018 C 
ATOM     11  C   UNL     1       6.496   8.055   3.906  0.00  0.00    +0.025 C 
ATOM     12  C   UNL     1       7.751   7.830   4.517  0.00  0.00    +0.106 C 
ATOM     13  N   UNL     1       7.788   6.699   5.165  0.00  0.00    -0.279 NA
ATOM     14  C   UNL     1       4.494   6.589   3.510  0.00  0.00    +0.006 C 
ATOM     15  C   UNL     1       4.351   5.242   3.338  0.00  0.00    +0.009 C 
ENDBRANCH   4   7
BRANCH   1  16
ATOM     16  C   UNL     1       3.696   2.049  -0.023  0.00  0.00    +0.111 C 
BRANCH  16  19
ATOM     17  C   UNL     1      -0.017   1.378   0.010  0.00  0.00    +0.020 A 
ATOM     18  C   UNL     1       1.185   2.070   0.002  0.00  0.00    +0.007 A 
ATOM     19  C   UNL     1       2.365   1.343  -0.013  0.00  0.00    -0.022 A 
ATOM     20  C   UNL     1       2.305  -0.038  -0.020  0.00  0.00    +0.114 A 
ATOM     21  N   UNL     1       1.144  -0.663  -0.013  0.00  0.00    -0.263 NA
ATOM     22  C   UNL     1       0.002  -0.004   0.002  0.00  0.00    +0.111 A 
ENDBRANCH  16  19
ENDBRANCH   1  16
TORSDOF 3
