REMARK  Name = ZINC06135241
REMARK  10 active torsions:
REMARK  status: ('A' for Active; 'I' for Inactive)
REMARK    1  A    between atoms: C_1  and  C_2
REMARK    2  A    between atoms: C_2  and  C_3
REMARK    3  A    between atoms: C_10  and  C_15
REMARK    4  A    between atoms: C_15  and  C_17
REMARK    5  A    between atoms: C_15  and  N_74
REMARK    6  A    between atoms: N_21  and  C_22
REMARK    7  A    between atoms: C_22  and  C_23
REMARK    8  A    between atoms: N_31  and  C_34
REMARK    9  A    between atoms: C_37  and  O_40
REMARK   10  A    between atoms: O_40  and  C_41
REMARK                            x       y       z     vdW  Elec       q    Type
REMARK                         _______ _______ _______ _____ _____    ______ ____
ROOT
ATOM      1  C   UNL     1       3.645   2.281  -0.018  0.00  0.00    +0.039 C 
ENDROOT
BRANCH   1   9
ATOM      2  C   UNL     1       0.544  -3.038   0.595  0.00  0.00    -0.047 A 
ATOM      3  C   UNL     1      -0.728  -2.485   0.530  0.00  0.00    +0.005 A 
ATOM      4  C   UNL     1      -0.897  -1.127   0.373  0.00  0.00    +0.026 A 
ATOM      5  C   UNL     1       0.217  -0.299   0.279  0.00  0.00    +0.049 A 
ATOM      6  C   UNL     1       1.505  -0.863   0.345  0.00  0.00    -0.001 A 
ATOM      7  C   UNL     1       1.652  -2.245   0.504  0.00  0.00    +0.013 A 
ATOM      8  C   UNL     1       2.671   0.017   0.244  0.00  0.00    +0.017 A 
ATOM      9  C   UNL     1       2.467   1.348   0.090  0.00  0.00    +0.011 A 
ATOM     10  C   UNL     1       1.154   1.863   0.027  0.00  0.00    +0.251 A 
ATOM     11  O   UNL     1       0.993   3.063  -0.113  0.00  0.00    -0.268 OA
ATOM     12  N   UNL     1       0.077   1.063   0.120  0.00  0.00    -0.322 N 
ATOM     13  H   UNL     1      -0.838   1.463   0.073  0.00  0.00    +0.169 HD
BRANCH   2  15
ATOM     14  C   UNL     1       0.755  -4.865   2.259  0.00  0.00    +0.009 C 
ATOM     15  C   UNL     1       0.703  -4.527   0.767  0.00  0.00    +0.032 C 
ENDBRANCH   2  15
ENDBRANCH   1   9
BRANCH   1  21
ATOM     16  C   UNL     1       4.679   4.248   0.944  0.00  0.00    -0.058 C 
ATOM     17  C   UNL     1       4.523   5.323   2.023  0.00  0.00    +0.086 C 
ATOM     18  N   UNL     1       4.507   4.685   3.347  0.00  0.00    -0.333 N 
ATOM     19  C   UNL     1       3.400   3.724   3.452  0.00  0.00    +0.086 C 
ATOM     20  C   UNL     1       3.557   2.650   2.374  0.00  0.00    -0.058 C 
ATOM     21  N   UNL     1       3.549   3.302   1.047  0.00  0.00    +0.391 N 
ATOM     22  H   UNL     1       2.669   3.819   0.935  0.00  0.00    -0.080 HD
BRANCH  18  23
ATOM     23  C   UNL     1       4.438   5.644   4.364  0.00  0.00    +0.030 A 
ATOM     24  C   UNL     1       3.407   5.597   5.294  0.00  0.00    +0.027 A 
ATOM     25  C   UNL     1       3.343   6.539   6.301  0.00  0.00    +0.047 A 
ATOM     26  C   UNL     1       4.301   7.540   6.377  0.00  0.00    +0.120 A 
ATOM     27  C   UNL     1       5.327   7.591   5.445  0.00  0.00    +0.047 A 
ATOM     28  C   UNL     1       5.396   6.646   4.441  0.00  0.00    +0.027 A 
BRANCH  26  29
ATOM     29  O   UNL     1       4.233   8.471   7.366  0.00  0.00    -0.495 OA
ATOM     30  C   UNL     1       3.150   8.358   8.291  0.00  0.00    +0.277 C 
ENDBRANCH  26  29
ENDBRANCH  18  23
ENDBRANCH   1  21
BRANCH   1  31
ATOM     31  C   UNL     1       3.621   2.969  -1.359  0.00  0.00    +0.143 A 
ATOM     32  N   UNL     1       2.823   3.942  -1.725  0.00  0.00    -0.115 NA
ATOM     33  N   UNL     1       3.111   4.258  -2.940  0.00  0.00    -0.023 NA
ATOM     34  N   UNL     1       4.072   3.511  -3.359  0.00  0.00    -0.044 NA
ATOM     35  N   UNL     1       4.418   2.707  -2.411  0.00  0.00    -0.228 N 
BRANCH  35  36
ATOM     36  C   UNL     1       5.476   1.696  -2.470  0.00  0.00    +0.178 C 
BRANCH  36  37
ATOM     37  C   UNL     1       4.891   0.373  -2.971  0.00  0.00    +0.140 C 
ATOM     38  C   UNL     1       6.006  -0.696  -3.094  0.00  0.00    +0.035 C 
ATOM     39  C   UNL     1       5.177  -2.002  -2.960  0.00  0.00    +0.031 C 
ATOM     40  C   UNL     1       4.067  -1.586  -1.972  0.00  0.00    +0.160 C 
ATOM     41  O   UNL     1       3.965  -0.158  -2.011  0.00  0.00    -0.375 OA
ENDBRANCH  36  37
ENDBRANCH  35  36
ENDBRANCH   1  31
TORSDOF 8
