REMARK  Name = ZINC39223235
REMARK  6 active torsions:
REMARK  status: ('A' for Active; 'I' for Inactive)
REMARK    1  A    between atoms: C_1  and  C_2
REMARK    2  A    between atoms: C_2  and  C_36
REMARK    3  A    between atoms: C_6  and  C_26
REMARK    4  A    between atoms: N_11  and  N_12
REMARK    5  A    between atoms: N_12  and  C_13
REMARK    6  A    between atoms: C_14  and  C_20
REMARK                            x       y       z     vdW  Elec       q    Type
REMARK                         _______ _______ _______ _____ _____    ______ ____
ROOT
ATOM      1  C   UNL     1      -2.246   2.509  -0.434  0.00  0.00    +0.011 C 
ATOM      2  C   UNL     1      -1.654   1.100  -0.361  0.00  0.00    -0.023 C 
ATOM      3  C   UNL     1      -2.756   0.097  -0.013  0.00  0.00    +0.060 C 
ATOM      4  C   UNL     1      -2.166  -1.286   0.109  0.00  0.00    +0.041 C 
ATOM      5  C   UNL     1      -0.888  -1.459   0.507  0.00  0.00    +0.022 C 
ATOM      6  C   UNL     1      -0.298  -2.847   0.590  0.00  0.00    +0.063 C 
ATOM      7  C   UNL     1      -1.383  -3.844   1.000  0.00  0.00    +0.111 C 
ATOM      8  C   UNL     1      -2.607  -3.613   0.151  0.00  0.00    +0.237 C 
ATOM      9  O   UNL     1      -3.280  -4.554  -0.212  0.00  0.00    -0.274 OA
ATOM     10  N   UNL     1      -2.953  -2.365  -0.202  0.00  0.00    -0.194 N 
ATOM     11  C   UNL     1      -0.073  -0.365   0.846  0.00  0.00    +0.162 C 
ATOM     12  O   UNL     1       1.061  -0.561   1.235  0.00  0.00    -0.292 OA
ATOM     13  C   UNL     1      -0.584   1.047   0.735  0.00  0.00    +0.086 C 
ATOM     14  C   UNL     1      -1.028   0.735  -1.709  0.00  0.00    +0.011 C 
ENDROOT
BRANCH   6  15
ATOM     15  C   UNL     1       0.258  -3.237  -0.755  0.00  0.00    -0.039 A 
ATOM     16  C   UNL     1      -0.529  -3.128  -1.886  0.00  0.00    +0.007 A 
ATOM     17  C   UNL     1      -0.020  -3.485  -3.120  0.00  0.00    +0.038 A 
ATOM     18  C   UNL     1       1.279  -3.953  -3.223  0.00  0.00    +0.123 A 
ATOM     19  C   UNL     1       2.067  -4.062  -2.090  0.00  0.00    +0.038 A 
ATOM     20  C   UNL     1       1.557  -3.700  -0.858  0.00  0.00    +0.007 A 
ATOM     21  F   UNL     1       1.778  -4.302  -4.429  0.00  0.00    -0.205 F 
ENDBRANCH   6  15
BRANCH  10  22
ATOM     22  N   UNL     1      -4.147  -2.159  -0.906  0.00  0.00    -0.259 N 
ATOM     23  H   UNL     1      -4.123  -1.973  -1.857  0.00  0.00    +0.170 HD
BRANCH  22  24
ATOM     24  C   UNL     1      -5.330  -2.220  -0.259  0.00  0.00    +0.059 C 
ATOM     25  C   UNL     1      -6.543  -2.128  -0.938  0.00  0.00    +0.110 C 
ATOM     26  N   UNL     1      -7.698  -2.190  -0.289  0.00  0.00    -0.155 NA
ATOM     27  N   UNL     1      -7.844  -2.334   0.970  0.00  0.00    -0.080 NA
ATOM     28  C   UNL     1      -6.816  -2.444   1.825  0.00  0.00    +0.260 C 
ATOM     29  O   UNL     1      -7.001  -2.580   3.017  0.00  0.00    -0.272 OA
ATOM     30  C   UNL     1      -5.412  -2.399   1.248  0.00  0.00    +0.153 C 
BRANCH  25  31
ATOM     31  C   UNL     1      -6.542  -1.957  -2.411  0.00  0.00    +0.003 A 
ATOM     32  C   UNL     1      -5.755  -2.784  -3.211  0.00  0.00    +0.010 A 
ATOM     33  C   UNL     1      -5.759  -2.621  -4.581  0.00  0.00    +0.001 A 
ATOM     34  C   UNL     1      -6.542  -1.639  -5.161  0.00  0.00    +0.000 A 
ATOM     35  C   UNL     1      -7.325  -0.816  -4.372  0.00  0.00    +0.001 A 
ATOM     36  C   UNL     1      -7.334  -0.973  -3.001  0.00  0.00    +0.010 A 
ENDBRANCH  25  31
ENDBRANCH  22  24
ENDBRANCH  10  22
TORSDOF 4
