REMARK  Name = ZINC02102620
REMARK  5 active torsions:
REMARK  status: ('A' for Active; 'I' for Inactive)
REMARK    1  A    between atoms: C_1  and  O_2
REMARK    2  A    between atoms: O_2  and  C_3
REMARK    3  A    between atoms: C_7  and  C_9
REMARK    4  A    between atoms: N_28  and  C_31
REMARK    5  A    between atoms: C_31  and  C_32
REMARK                            x       y       z     vdW  Elec       q    Type
REMARK                         _______ _______ _______ _____ _____    ______ ____
ROOT
ATOM      1  C   UNL     1      -0.076   5.351   0.032  0.00  0.00    +0.154 C 
ATOM      2  C   UNL     1      -0.274   5.869  -1.375  0.00  0.00    +0.046 A 
ATOM      3  C   UNL     1      -1.187   6.809  -1.701  0.00  0.00    -0.015 A 
ATOM      4  C   UNL     1      -1.067   7.039  -3.127  0.00  0.00    +0.003 A 
ATOM      5  C   UNL     1      -1.741   7.889  -4.009  0.00  0.00    +0.010 A 
ATOM      6  C   UNL     1      -1.359   7.843  -5.327  0.00  0.00    +0.001 A 
ATOM      7  C   UNL     1      -0.357   6.998  -5.774  0.00  0.00    +0.002 A 
ATOM      8  C   UNL     1       0.326   6.147  -4.923  0.00  0.00    +0.026 A 
ATOM      9  C   UNL     1      -0.039   6.173  -3.579  0.00  0.00    +0.047 A 
ATOM     10  N   UNL     1       0.416   5.482  -2.492  0.00  0.00    -0.356 N 
ATOM     11  H   UNL     1       1.123   4.818  -2.510  0.00  0.00    +0.166 HD
ATOM     12  C   UNL     1      -2.133   7.463  -0.726  0.00  0.00    +0.069 C 
ATOM     13  C   UNL     1      -1.613   7.230   0.700  0.00  0.00    +0.167 C 
ATOM     14  N   UNL     1      -1.215   5.830   0.843  0.00  0.00    -0.276 N 
ATOM     15  C   UNL     1      -1.832   4.976   1.662  0.00  0.00    +0.234 C 
ATOM     16  O   UNL     1      -1.465   3.820   1.655  0.00  0.00    -0.274 OA
ATOM     17  C   UNL     1      -2.944   5.348   2.588  0.00  0.00    +0.204 C 
ATOM     18  N   UNL     1      -3.258   6.766   2.523  0.00  0.00    -0.287 N 
ATOM     19  C   UNL     1      -2.667   7.617   1.687  0.00  0.00    +0.237 C 
ATOM     20  O   UNL     1      -3.007   8.781   1.728  0.00  0.00    -0.274 OA
ENDROOT
BRANCH   1  25
ATOM     21  C   UNL     1       0.996   1.780   0.648  0.00  0.00    +0.120 A 
ATOM     22  C   UNL     1      -0.011   1.076   0.004  0.00  0.00    +0.045 A 
ATOM     23  C   UNL     1      -1.031   1.757  -0.632  0.00  0.00    +0.004 A 
ATOM     24  C   UNL     1      -1.054   3.140  -0.618  0.00  0.00    +0.006 A 
ATOM     25  C   UNL     1      -0.051   3.844   0.023  0.00  0.00    -0.018 A 
ATOM     26  C   UNL     1       0.974   3.167   0.656  0.00  0.00    +0.051 A 
BRANCH  21  28
ATOM     27  C   UNL     1       1.961  -0.316   1.221  0.00  0.00    +0.277 C 
ATOM     28  O   UNL     1       2.003   1.112   1.270  0.00  0.00    -0.495 OA
ENDBRANCH  21  28
ENDBRANCH   1  25
BRANCH  18  29
ATOM     29  C   UNL     1      -4.283   7.288   3.429  0.00  0.00    +0.143 C 
BRANCH  29  30
ATOM     30  C   UNL     1      -5.633   7.202   2.764  0.00  0.00    -0.026 A 
ATOM     31  C   UNL     1      -6.406   6.065   2.917  0.00  0.00    +0.009 A 
ATOM     32  C   UNL     1      -7.644   5.981   2.310  0.00  0.00    +0.050 A 
ATOM     33  C   UNL     1      -8.115   7.037   1.545  0.00  0.00    +0.166 A 
ATOM     34  C   UNL     1      -7.337   8.181   1.392  0.00  0.00    +0.167 A 
ATOM     35  C   UNL     1      -6.098   8.261   2.008  0.00  0.00    +0.054 A 
ATOM     36  O   UNL     1      -8.014   9.066   0.603  0.00  0.00    -0.453 OA
ATOM     37  C   UNL     1      -9.032   8.292  -0.058  0.00  0.00    +0.466 C 
ATOM     38  O   UNL     1      -9.279   7.205   0.853  0.00  0.00    -0.453 OA
ENDBRANCH  29  30
ENDBRANCH  18  29
TORSDOF 4
