REMARK  Name = ZINC16572385
REMARK  9 active torsions:
REMARK  status: ('A' for Active; 'I' for Inactive)
REMARK    1  A    between atoms: C_1  and  C_2
REMARK    2  A    between atoms: C_2  and  C_3
REMARK    3  A    between atoms: C_3  and  C_5
REMARK    4  A    between atoms: C_3  and  C_6
REMARK    5  A    between atoms: C_6  and  C_8
REMARK    6  A    between atoms: C_6  and  N_23
REMARK    7  A    between atoms: C_14  and  C_16
REMARK    8  A    between atoms: N_26  and  C_27
REMARK    9  A    between atoms: C_30  and  C_33
REMARK                            x       y       z     vdW  Elec       q    Type
REMARK                         _______ _______ _______ _____ _____    ______ ____
ROOT
ATOM      1  C   UNL     1       3.682   6.341   0.451  0.00  0.00    +0.163 C 
ENDROOT
BRANCH   1   2
ATOM      2  C   UNL     1       3.356   7.716  -0.072  0.00  0.00    +0.239 C 
ATOM      3  O   UNL     1       2.293   7.921  -0.618  0.00  0.00    -0.273 OA
ATOM      4  N   UNL     1       4.247   8.717   0.065  0.00  0.00    -0.262 N 
ATOM      5  C   UNL     1       3.906  10.009  -0.318  0.00  0.00    +0.188 A 
ATOM      6  N   UNL     1       2.778  10.473  -0.840  0.00  0.00    -0.125 NA
ATOM      7  N   UNL     1       2.630  11.691  -1.131  0.00  0.00    -0.140 NA
ATOM      8  C   UNL     1       3.598  12.580  -0.942  0.00  0.00    +0.134 A 
ATOM      9  S   UNL     1       4.866  11.519  -0.255  0.00  0.00    -0.030 S 
ATOM     10  H   UNL     1       5.127   8.537   0.432  0.00  0.00    +0.157 HD
BRANCH   8  11
ATOM     11  C   UNL     1       3.622  14.031  -1.220  0.00  0.00    +0.009 A 
ATOM     12  C   UNL     1       4.763  14.781  -0.932  0.00  0.00    +0.012 A 
ATOM     13  C   UNL     1       4.781  16.135  -1.198  0.00  0.00    +0.016 A 
ATOM     14  C   UNL     1       3.666  16.751  -1.740  0.00  0.00    +0.018 A 
ATOM     15  C   UNL     1       2.529  16.014  -2.023  0.00  0.00    +0.016 A 
ATOM     16  C   UNL     1       2.501  14.659  -1.766  0.00  0.00    +0.012 A 
ATOM     17 BR   UNL     1       3.696  18.609  -2.094  0.00  0.00    -0.050 Br
ENDBRANCH   8  11
ENDBRANCH   1   2
BRANCH   1  18
ATOM     18  N   UNL     1       2.827   5.352  -0.210  0.00  0.00    -0.288 N 
ATOM     19  C   UNL     1       3.232   4.070  -0.311  0.00  0.00    +0.304 C 
ATOM     20  O   UNL     1       4.307   3.735   0.147  0.00  0.00    -0.252 OA
ATOM     21  N   UNL     1       2.445   3.160  -0.919  0.00  0.00    -0.269 N 
ATOM     22  H   UNL     1       1.969   5.619  -0.576  0.00  0.00    +0.151 HD
ATOM     23  H   UNL     1       1.620   3.440  -1.344  0.00  0.00    +0.156 HD
BRANCH  21  24
ATOM     24  C   UNL     1       2.819   1.816  -0.937  0.00  0.00    +0.035 A 
ATOM     25  C   UNL     1       4.160   1.470  -1.067  0.00  0.00    +0.024 A 
ATOM     26  C   UNL     1       4.532   0.145  -1.085  0.00  0.00    +0.020 A 
ATOM     27  C   UNL     1       3.561  -0.854  -0.972  0.00  0.00    +0.052 A 
ATOM     28  C   UNL     1       2.214  -0.503  -0.842  0.00  0.00    +0.020 A 
ATOM     29  C   UNL     1       1.849   0.825  -0.825  0.00  0.00    +0.024 A 
BRANCH  27  30
ATOM     30  C   UNL     1       3.944  -2.234  -0.991  0.00  0.00    +0.099 C 
ATOM     31  N   UNL     1       4.248  -3.328  -1.005  0.00  0.00    -0.191 NA
ENDBRANCH  27  30
ENDBRANCH  21  24
ENDBRANCH   1  18
BRANCH   1  32
ATOM     32  C   UNL     1       3.437   6.298   1.961  0.00  0.00    +0.015 C 
ATOM     33  C   UNL     1       1.943   6.475   2.240  0.00  0.00    +0.010 C 
BRANCH  32  35
ATOM     34  C   UNL     1       5.425   4.845   2.383  0.00  0.00    +0.004 C 
ATOM     35  C   UNL     1       3.904   4.951   2.516  0.00  0.00    +0.002 C 
ENDBRANCH  32  35
ENDBRANCH   1  32
TORSDOF 7
