REMARK  Name = ZINC02325311
REMARK  8 active torsions:
REMARK  status: ('A' for Active; 'I' for Inactive)
REMARK    1  A    between atoms: C_1  and  C_2
REMARK    2  A    between atoms: C_5  and  C_8
REMARK    3  A    between atoms: C_10  and  C_33
REMARK    4  A    between atoms: C_11  and  S_20
REMARK    5  A    between atoms: S_20  and  C_21
REMARK    6  A    between atoms: C_21  and  C_22
REMARK    7  A    between atoms: N_24  and  C_25
REMARK    8  A    between atoms: C_30  and  C_31
REMARK                            x       y       z     vdW  Elec       q    Type
REMARK                         _______ _______ _______ _____ _____    ______ ____
ROOT
ATOM      1  C   UNL     1       0.061  -4.238   0.007  0.00  0.00    +0.097 C 
ATOM      2  C   UNL     1      -1.215  -4.742   0.658  0.00  0.00    +0.073 C 
ATOM      3  C   UNL     1      -1.080  -5.561   1.766  0.00  0.00    +0.112 C 
ATOM      4  N   UNL     1       0.112  -5.906   2.257  0.00  0.00    -0.244 NA
ATOM      5  C   UNL     1       1.271  -5.531   1.778  0.00  0.00    +0.050 C 
ATOM      6  C   UNL     1       1.354  -4.694   0.655  0.00  0.00    +0.029 C 
ATOM      7  C   UNL     1       2.533  -4.296   0.151  0.00  0.00    +0.162 C 
ATOM      8  C   UNL     1       3.836  -4.731   0.769  0.00  0.00    +0.080 C 
ATOM      9  C   UNL     1       3.630  -4.965   2.268  0.00  0.00    +0.014 C 
ATOM     10  C   UNL     1       2.536  -6.011   2.451  0.00  0.00    +0.056 C 
ATOM     11  O   UNL     1       2.552  -3.491  -0.930  0.00  0.00    -0.292 OA
ENDROOT
BRANCH   1  16
ATOM     12  C   UNL     1      -0.050   1.540   0.060  0.00  0.00    +0.044 C 
ATOM     13  C   UNL     1      -0.021   0.033   0.046  0.00  0.00    -0.050 A 
ATOM     14  C   UNL     1      -0.008  -0.647  -1.157  0.00  0.00    +0.003 A 
ATOM     15  C   UNL     1       0.018  -2.029  -1.170  0.00  0.00    +0.005 A 
ATOM     16  C   UNL     1       0.033  -2.731   0.021  0.00  0.00    -0.035 A 
ATOM     17  C   UNL     1       0.021  -2.051   1.224  0.00  0.00    +0.005 A 
ATOM     18  C   UNL     1      -0.002  -0.669   1.237  0.00  0.00    +0.003 A 
ENDBRANCH   1  16
BRANCH   2  19
ATOM     19  C   UNL     1      -2.504  -4.384   0.148  0.00  0.00    +0.098 C 
ATOM     20  N   UNL     1      -3.527  -4.101  -0.257  0.00  0.00    -0.191 NA
ENDBRANCH   2  19
BRANCH   3  21
ATOM     21  S   UNL     1      -2.533  -6.170   2.555  0.00  0.00    -0.096 S 
BRANCH  21  22
ATOM     22  C   UNL     1      -1.900  -7.175   3.925  0.00  0.00    +0.172 C 
BRANCH  22  23
ATOM     23  C   UNL     1      -3.056  -7.763   4.693  0.00  0.00    +0.227 C 
ATOM     24  O   UNL     1      -4.195  -7.527   4.349  0.00  0.00    -0.275 OA
ATOM     25  N   UNL     1      -2.825  -8.552   5.761  0.00  0.00    -0.285 N 
ATOM     26  H   UNL     1      -1.916  -8.806   5.989  0.00  0.00    +0.155 HD
BRANCH  25  27
ATOM     27  C   UNL     1      -3.894  -9.003   6.543  0.00  0.00    +0.038 A 
ATOM     28  C   UNL     1      -5.082  -8.285   6.578  0.00  0.00    +0.023 A 
ATOM     29  C   UNL     1      -6.136  -8.732   7.349  0.00  0.00    +0.003 A 
ATOM     30  C   UNL     1      -6.010  -9.895   8.088  0.00  0.00    +0.020 A 
ATOM     31  C   UNL     1      -4.828 -10.613   8.055  0.00  0.00    +0.046 A 
ATOM     32  C   UNL     1      -3.771 -10.173   7.280  0.00  0.00    -0.011 A 
ATOM     33  C   UNL     1      -2.486 -10.959   7.240  0.00  0.00    +0.047 C 
ATOM     34 CL   UNL     1      -4.673 -12.072   8.984  0.00  0.00    -0.083 Cl
ENDBRANCH  25  27
ENDBRANCH  22  23
ENDBRANCH  21  22
ENDBRANCH   3  21
TORSDOF 6
