REMARK  Name = ZINC06475048
REMARK  2 active torsions:
REMARK  status: ('A' for Active; 'I' for Inactive)
REMARK    1  A    between atoms: C_8  and  C_24
REMARK    2  A    between atoms: C_14  and  C_19
REMARK                            x       y       z     vdW  Elec       q    Type
REMARK                         _______ _______ _______ _____ _____    ______ ____
ROOT
ATOM      1  C   UNL     1      -1.912  11.440   3.542  0.00  0.00    +0.002 A 
ATOM      2  C   UNL     1      -1.240  10.441   4.223  0.00  0.00    +0.002 A 
ATOM      3  C   UNL     1      -1.484   9.110   3.930  0.00  0.00    +0.025 A 
ATOM      4  C   UNL     1      -2.404   8.789   2.948  0.00  0.00    +0.052 A 
ATOM      5  C   UNL     1      -3.049   9.790   2.237  0.00  0.00    +0.049 A 
ATOM      6  C   UNL     1      -2.819  11.121   2.547  0.00  0.00    +0.025 A 
ATOM      7  N   UNL     1      -3.868   9.424   1.170  0.00  0.00    -0.331 N 
ATOM      8  C   UNL     1      -3.318   8.783  -0.006  0.00  0.00    +0.136 C 
ATOM      9  C   UNL     1      -2.726   7.417   0.243  0.00  0.00    +0.036 C 
ATOM     10  C   UNL     1      -2.476   6.873   1.446  0.00  0.00    +0.017 C 
ATOM     11  N   UNL     1      -2.732   7.475   2.635  0.00  0.00    -0.316 N 
ATOM     12  C   UNL     1      -1.879   5.480   1.553  0.00  0.00    +0.060 C 
ATOM     13  C   UNL     1      -0.950   5.219   0.368  0.00  0.00    +0.039 C 
ATOM     14  C   UNL     1      -1.781   5.346  -0.914  0.00  0.00    +0.088 C 
ATOM     15  C   UNL     1      -2.417   6.703  -0.939  0.00  0.00    +0.163 C 
ATOM     16  O   UNL     1      -2.676   7.209  -2.014  0.00  0.00    -0.292 OA
ATOM     17  H   UNL     1      -4.820   9.600   1.216  0.00  0.00    +0.147 HD
ATOM     18  H   UNL     1      -3.177   6.949   3.318  0.00  0.00    +0.152 HD
ENDROOT
BRANCH   8  19
ATOM     19  C   UNL     1      -2.240   9.671  -0.573  0.00  0.00    -0.020 A 
ATOM     20  C   UNL     1      -1.139   9.999   0.197  0.00  0.00    +0.007 A 
ATOM     21  C   UNL     1      -0.149  10.812  -0.322  0.00  0.00    +0.023 A 
ATOM     22  C   UNL     1      -0.259  11.300  -1.611  0.00  0.00    +0.076 A 
ATOM     23  C   UNL     1      -1.362  10.971  -2.383  0.00  0.00    +0.142 A 
ATOM     24  C   UNL     1      -2.349  10.152  -1.864  0.00  0.00    +0.045 A 
ATOM     25  F   UNL     1      -1.471  11.447  -3.643  0.00  0.00    -0.204 F 
ATOM     26 CL   UNL     1       0.984  12.321  -2.263  0.00  0.00    -0.081 Cl
ENDBRANCH   8  19
BRANCH  13  27
ATOM     27  C   UNL     1      -0.372   3.831   0.468  0.00  0.00    -0.006 A 
ATOM     28  C   UNL     1       0.926   3.450   0.542  0.00  0.00    +0.011 A 
ATOM     29  C   UNL     1       1.226   2.103   0.628  0.00  0.00    +0.008 A 
ATOM     30  C   UNL     1       0.212   1.203   0.635  0.00  0.00    +0.045 A 
ATOM     31  S   UNL     1      -1.221   2.260   0.512  0.00  0.00    -0.101 S 
ENDBRANCH  13  27
TORSDOF 2
