REMARK  Name = ZINC21079238
REMARK  10 active torsions:
REMARK  status: ('A' for Active; 'I' for Inactive)
REMARK    1  A    between atoms: C_4  and  C_7
REMARK    2  A    between atoms: C_7  and  C_8
REMARK    3  A    between atoms: C_8  and  C_9
REMARK    4  A    between atoms: C_9  and  S_10
REMARK    5  A    between atoms: S_10  and  C_11
REMARK    6  A    between atoms: C_17  and  C_19
REMARK    7  A    between atoms: C_19  and  S_20
REMARK    8  A    between atoms: S_20  and  C_21
REMARK    9  A    between atoms: N_26  and  N_27
REMARK   10  A    between atoms: C_28  and  C_29
REMARK                            x       y       z     vdW  Elec       q    Type
REMARK                         _______ _______ _______ _____ _____    ______ ____
ROOT
ATOM      1  C   UNL     1       7.636  -6.956  -0.109  0.00  0.00    +0.160 A 
ATOM      2  N   UNL     1       6.311  -6.963  -0.096  0.00  0.00    -0.133 NA
ATOM      3  N   UNL     1       5.638  -5.896  -0.084  0.00  0.00    -0.125 NA
ATOM      4  C   UNL     1       6.213  -4.705  -0.083  0.00  0.00    +0.189 A 
ATOM      5  S   UNL     1       7.936  -5.191  -0.109  0.00  0.00    -0.024 S 
ATOM      6  N   UNL     1       5.641  -3.435  -0.070  0.00  0.00    -0.263 N 
ATOM      7  C   UNL     1       4.300  -3.300  -0.057  0.00  0.00    +0.229 C 
ATOM      8  O   UNL     1       3.592  -4.284  -0.055  0.00  0.00    -0.275 OA
ATOM      9  H   UNL     1       6.284  -2.542  -0.072  0.00  0.00    +0.157 HD
ENDROOT
BRANCH   1  10
ATOM     10  S   UNL     1       8.776  -8.299  -0.128  0.00  0.00    -0.097 S 
BRANCH  10  11
ATOM     11  C   UNL     1       7.718  -9.773  -0.127  0.00  0.00    +0.077 C 
BRANCH  11  12
ATOM     12  C   UNL     1       8.592 -11.028  -0.143  0.00  0.00    +0.016 C 
BRANCH  12  13
ATOM     13  C   UNL     1       7.700 -12.271  -0.142  0.00  0.00    +0.036 C 
BRANCH  13  17
ATOM     14  C   UNL     1      10.140 -15.777  -0.187  0.00  0.00    +0.000 A 
ATOM     15  C   UNL     1       9.757 -15.217   1.018  0.00  0.00    +0.000 A 
ATOM     16  C   UNL     1       8.968 -14.082   1.032  0.00  0.00    +0.003 A 
ATOM     17  C   UNL     1       8.561 -13.508  -0.158  0.00  0.00    -0.047 A 
ATOM     18  C   UNL     1       8.940 -14.071  -1.362  0.00  0.00    +0.003 A 
ATOM     19  C   UNL     1       9.733 -15.202  -1.377  0.00  0.00    +0.000 A 
ENDBRANCH  13  17
ENDBRANCH  12  13
ENDBRANCH  11  12
ENDBRANCH  10  11
ENDBRANCH   1  10
BRANCH   7  20
ATOM     20  C   UNL     1       3.682  -1.926  -0.043  0.00  0.00    +0.173 C 
BRANCH  20  21
ATOM     21  S   UNL     1       1.874  -2.077  -0.027  0.00  0.00    -0.075 S 
BRANCH  21  22
ATOM     22  C   UNL     1       1.307  -0.408  -0.013  0.00  0.00    +0.211 A 
ATOM     23  N   UNL     1       0.002  -0.004   0.002  0.00  0.00    -0.186 NA
ATOM     24  C   UNL     1      -0.017   1.363   0.009  0.00  0.00    +0.232 A 
ATOM     25  N   UNL     1       1.225   1.785  -0.000  0.00  0.00    -0.245 N 
ATOM     26  N   UNL     1       2.063   0.663  -0.014  0.00  0.00    -0.144 NA
ATOM     27  N   UNL     1      -1.149   2.163   0.019  0.00  0.00    -0.205 N 
ATOM     28  H   UNL     1      -2.148   1.702   0.022  0.00  0.00    +0.177 HD
ATOM     29  H   UNL     1       1.439   2.864   0.004  0.00  0.00    +0.192 HD
BRANCH  27  30
ATOM     30  N   UNL     1      -1.022   3.558   0.026  0.00  0.00    -0.187 NA
ATOM     31  C   UNL     1      -2.084   4.309   0.036  0.00  0.00    +0.145 C 
BRANCH  31  32
ATOM     32  C   UNL     1      -1.951   5.769   0.043  0.00  0.00    +0.032 A 
ATOM     33  C   UNL     1      -2.941   6.736   0.053  0.00  0.00    +0.017 A 
ATOM     34  C   UNL     1      -2.563   8.059   0.059  0.00  0.00    +0.008 A 
ATOM     35  C   UNL     1      -1.242   8.373   0.054  0.00  0.00    +0.046 A 
ATOM     36  S   UNL     1      -0.468   6.764   0.049  0.00  0.00    -0.096 S 
ENDBRANCH  31  32
ENDBRANCH  27  30
ENDBRANCH  21  22
ENDBRANCH  20  21
ENDBRANCH   7  20
TORSDOF 10
