REMARK  Name = ZINC40315688
REMARK  12 active torsions:
REMARK  status: ('A' for Active; 'I' for Inactive)
REMARK    1  A    between atoms: C_1  and  C_2
REMARK    2  A    between atoms: C_5  and  O_9
REMARK    3  A    between atoms: C_6  and  C_8
REMARK    4  A    between atoms: O_9  and  C_10
REMARK    5  A    between atoms: C_10  and  C_11
REMARK    6  A    between atoms: C_11  and  C_13
REMARK    7  A    between atoms: C_11  and  O_36
REMARK    8  A    between atoms: C_13  and  N_14
REMARK    9  A    between atoms: N_14  and  C_15
REMARK   10  A    between atoms: N_14  and  C_28
REMARK   11  A    between atoms: C_15  and  C_16
REMARK   12  A    between atoms: C_19  and  C_21
REMARK                            x       y       z     vdW  Elec       q    Type
REMARK                         _______ _______ _______ _____ _____    ______ ____
ROOT
ATOM      1  N   UNL     1      -0.366  -8.285  -2.475  0.00  0.00    +0.389 N 
ATOM      2  H   UNL     1      -1.285  -8.693  -2.395  0.00  0.00    -0.081 HD
ENDROOT
BRANCH   1   3
ATOM      3  C   UNL     1       0.339  -8.411  -1.192  0.00  0.00    -0.045 C 
ATOM      4  C   UNL     1       0.291  -9.871  -0.714  0.00  0.00    +0.009 C 
ATOM      5  C   UNL     1       0.740  -9.958   0.765  0.00  0.00    +0.164 C 
ATOM      6  S   UNL     1       0.274  -8.305   1.425  0.00  0.00    -0.033 S 
ATOM      7  O   UNL     1       1.450  -7.623   1.836  0.00  0.00    -0.174 OA
ATOM      8  O   UNL     1      -0.801  -8.460   2.342  0.00  0.00    -0.174 OA
ATOM      9  C   UNL     1      -0.362  -7.528  -0.119  0.00  0.00    +0.151 C 
ENDBRANCH   1   3
BRANCH   1  10
ATOM     10  C   UNL     1      -0.489  -6.865  -2.829  0.00  0.00    -0.043 C 
BRANCH  10  11
ATOM     11  C   UNL     1      -1.966  -6.464  -2.822  0.00  0.00    +0.135 C 
BRANCH  11  12
ATOM     12  O   UNL     1      -2.654  -7.162  -3.862  0.00  0.00    -0.390 OA
ATOM     13  H   UNL     1      -2.313  -6.980  -4.749  0.00  0.00    +0.210 HD
ENDBRANCH  11  12
BRANCH  11  14
ATOM     14  C   UNL     1      -2.086  -4.957  -3.052  0.00  0.00    +0.258 C 
BRANCH  14  15
ATOM     15  O   UNL     1      -3.455  -4.564  -2.930  0.00  0.00    -0.489 OA
BRANCH  15  20
ATOM     16  C   UNL     1      -4.623   0.896  -3.667  0.00  0.00    +0.044 C 
ATOM     17  C   UNL     1      -4.311  -0.564  -3.469  0.00  0.00    -0.050 A 
ATOM     18  C   UNL     1      -3.006  -1.011  -3.573  0.00  0.00    +0.007 A 
ATOM     19  C   UNL     1      -2.717  -2.350  -3.393  0.00  0.00    +0.046 A 
ATOM     20  C   UNL     1      -3.737  -3.246  -3.107  0.00  0.00    +0.124 A 
ATOM     21  C   UNL     1      -5.045  -2.796  -3.003  0.00  0.00    -0.009 A 
ATOM     22  C   UNL     1      -5.328  -1.455  -3.179  0.00  0.00    +0.010 A 
ATOM     23  C   UNL     1      -6.154  -3.767  -2.693  0.00  0.00    +0.047 C 
ENDBRANCH  15  20
ENDBRANCH  14  15
ENDBRANCH  11  14
ENDBRANCH  10  11
ENDBRANCH   1  10
BRANCH   1  24
ATOM     24  C   UNL     1       0.392  -8.986  -3.520  0.00  0.00    -0.003 C 
BRANCH  24  25
ATOM     25  C   UNL     1       0.392 -10.466  -3.233  0.00  0.00    +0.089 A 
ATOM     26  C   UNL     1      -0.692 -11.267  -3.237  0.00  0.00    +0.043 A 
ATOM     27  C   UNL     1      -0.246 -12.566  -2.921  0.00  0.00    +0.050 A 
ATOM     28  C   UNL     1       1.099 -12.485  -2.740  0.00  0.00    +0.135 A 
ATOM     29  O   UNL     1       1.473 -11.207  -2.938  0.00  0.00    -0.462 OA
BRANCH  28  30
ATOM     30  C   UNL     1       1.996 -13.607  -2.392  0.00  0.00    +0.019 A 
ATOM     31  C   UNL     1       1.478 -14.893  -2.224  0.00  0.00    +0.011 A 
ATOM     32  C   UNL     1       2.320 -15.936  -1.899  0.00  0.00    +0.002 A 
ATOM     33  C   UNL     1       3.676 -15.711  -1.738  0.00  0.00    +0.020 A 
ATOM     34  C   UNL     1       4.196 -14.438  -1.902  0.00  0.00    +0.042 A 
ATOM     35  C   UNL     1       3.365 -13.387  -2.234  0.00  0.00    +0.031 A 
ATOM     36 CL   UNL     1       5.899 -14.165  -1.698  0.00  0.00    -0.084 Cl
ENDBRANCH  28  30
ENDBRANCH  24  25
ENDBRANCH   1  24
TORSDOF 10
