REMARK  Name = ZINC40427371
REMARK  7 active torsions:
REMARK  status: ('A' for Active; 'I' for Inactive)
REMARK    1  A    between atoms: C_4  and  C_7
REMARK    2  A    between atoms: C_7  and  C_8
REMARK    3  A    between atoms: C_7  and  N_14
REMARK    4  A    between atoms: C_15  and  C_17
REMARK    5  A    between atoms: C_17  and  N_18
REMARK    6  A    between atoms: C_24  and  C_26
REMARK    7  A    between atoms: N_31  and  C_32
REMARK                            x       y       z     vdW  Elec       q    Type
REMARK                         _______ _______ _______ _____ _____    ______ ____
ROOT
ATOM      1  N   UNL     1       5.469  -4.095  -3.392  0.00  0.00    -0.291 NA
ATOM      2  C   UNL     1       5.958  -3.046  -4.297  0.00  0.00    +0.104 C 
ATOM      3  C   UNL     1       7.483  -3.149  -4.416  0.00  0.00    +0.123 C 
ATOM      4  N   UNL     1       7.829  -4.523  -4.811  0.00  0.00    -0.294 N 
ATOM      5  C   UNL     1       7.263  -5.635  -4.033  0.00  0.00    +0.123 C 
ATOM      6  C   UNL     1       5.747  -5.434  -3.929  0.00  0.00    +0.104 C 
ATOM      7  C   UNL     1       8.644  -4.756  -5.859  0.00  0.00    +0.266 C 
ATOM      8  O   UNL     1       8.927  -5.899  -6.167  0.00  0.00    -0.268 OA
ENDROOT
BRANCH   7   9
ATOM      9  C   UNL     1       9.190  -3.629  -6.632  0.00  0.00    +0.135 A 
ATOM     10  C   UNL     1       9.736  -3.836  -7.874  0.00  0.00    +0.081 A 
ATOM     11  S   UNL     1      10.214  -2.170  -8.310  0.00  0.00    -0.060 S 
ATOM     12  C   UNL     1       9.649  -1.371  -6.814  0.00  0.00    +0.159 A 
ATOM     13  N   UNL     1       9.158  -2.390  -6.137  0.00  0.00    -0.220 NA
ATOM     14  N   UNL     1       9.705  -0.034  -6.462  0.00  0.00    -0.321 N 
ATOM     15  H   UNL     1       9.354   0.258  -5.606  0.00  0.00    +0.148 HD
BRANCH  14  16
ATOM     16  C   UNL     1      10.295   0.942  -7.383  0.00  0.00    +0.072 C 
ATOM     17  C   UNL     1      11.812   0.977  -7.185  0.00  0.00    +0.022 C 
ATOM     18  C   UNL     1      12.428   1.995  -8.147  0.00  0.00    +0.002 C 
ATOM     19  C   UNL     1      11.845   3.381  -7.864  0.00  0.00    +0.000 C 
ATOM     20  C   UNL     1      10.328   3.346  -8.061  0.00  0.00    +0.002 C 
ATOM     21  C   UNL     1       9.712   2.328  -7.100  0.00  0.00    +0.022 C 
ENDBRANCH  14  16
ENDBRANCH   7   9
BRANCH   1  22
ATOM     22  C   UNL     1       4.037  -3.926  -3.115  0.00  0.00    +0.180 C 
BRANCH  22  24
ATOM     23  N   UNL     1       2.577  -2.285  -1.978  0.00  0.00    -0.303 N 
ATOM     24  C   UNL     1       3.821  -2.649  -2.345  0.00  0.00    +0.228 C 
ATOM     25  O   UNL     1       4.768  -1.949  -2.055  0.00  0.00    -0.274 OA
ATOM     26  H   UNL     1       1.819  -2.845  -2.210  0.00  0.00    +0.150 HD
BRANCH  23  27
ATOM     27  C   UNL     1       2.367  -1.043  -1.229  0.00  0.00    +0.134 C 
BRANCH  27  31
ATOM     28  C   UNL     1      -1.609   0.367  -1.897  0.00  0.00    +0.000 A 
ATOM     29  C   UNL     1      -0.558   1.263  -1.845  0.00  0.00    +0.000 A 
ATOM     30  C   UNL     1       0.729   0.807  -1.629  0.00  0.00    +0.006 A 
ATOM     31  C   UNL     1       0.964  -0.545  -1.464  0.00  0.00    -0.023 A 
ATOM     32  C   UNL     1      -0.087  -1.441  -1.514  0.00  0.00    +0.006 A 
ATOM     33  C   UNL     1      -1.374  -0.985  -1.732  0.00  0.00    +0.000 A 
ENDBRANCH  27  31
BRANCH  27  34
ATOM     34  C   UNL     1       2.569  -1.304   0.241  0.00  0.00    -0.023 A 
ATOM     35  C   UNL     1       2.101  -2.475   0.806  0.00  0.00    +0.006 A 
ATOM     36  C   UNL     1       2.286  -2.714   2.155  0.00  0.00    +0.000 A 
ATOM     37  C   UNL     1       2.938  -1.781   2.939  0.00  0.00    +0.000 A 
ATOM     38  C   UNL     1       3.407  -0.610   2.374  0.00  0.00    +0.000 A 
ATOM     39  C   UNL     1       3.226  -0.373   1.024  0.00  0.00    +0.006 A 
ENDBRANCH  27  34
ENDBRANCH  23  27
ENDBRANCH  22  24
ENDBRANCH   1  22
TORSDOF 7
