REMARK  Name = ZINC22437417
REMARK  6 active torsions:
REMARK  status: ('A' for Active; 'I' for Inactive)
REMARK    1  A    between atoms: C_1  and  C_2
REMARK    2  A    between atoms: C_7  and  N_8
REMARK    3  A    between atoms: C_9  and  C_13
REMARK    4  A    between atoms: C_13  and  N_20
REMARK    5  A    between atoms: C_16  and  C_19
REMARK    6  A    between atoms: C_21  and  C_23
REMARK                            x       y       z     vdW  Elec       q    Type
REMARK                         _______ _______ _______ _____ _____    ______ ____
ROOT
ATOM      1  N   UNL     1       3.542   4.324  -1.178  0.00  0.00    -0.195 N 
ATOM      2  C   UNL     1       3.449   3.625  -0.026  0.00  0.00    +0.180 A 
ATOM      3  N   UNL     1       3.225   4.485   0.933  0.00  0.00    -0.111 NA
ATOM      4  N   UNL     1       3.171   5.680   0.466  0.00  0.00    -0.023 NA
ATOM      5  N   UNL     1       3.359   5.669  -0.810  0.00  0.00    -0.039 NA
ENDROOT
BRANCH   1  12
ATOM      6  C   UNL     1       1.649   4.910  -3.221  0.00  0.00    +0.046 C 
ATOM      7  C   UNL     1       2.878   4.081  -3.490  0.00  0.00    -0.025 A 
ATOM      8  C   UNL     1       3.111   3.581  -4.756  0.00  0.00    +0.005 A 
ATOM      9  C   UNL     1       4.242   2.824  -5.005  0.00  0.00    +0.000 A 
ATOM     10  C   UNL     1       5.135   2.556  -3.984  0.00  0.00    +0.002 A 
ATOM     11  C   UNL     1       4.907   3.053  -2.716  0.00  0.00    +0.028 A 
ATOM     12  C   UNL     1       3.776   3.818  -2.465  0.00  0.00    +0.072 A 
ENDBRANCH   1  12
BRANCH   2  13
ATOM     13  C   UNL     1       3.578   2.131   0.126  0.00  0.00    +0.096 C 
ATOM     14  C   UNL     1       2.683   1.656   1.272  0.00  0.00    +0.034 C 
ATOM     15  C   UNL     1       2.814   0.139   1.426  0.00  0.00    +0.006 C 
ATOM     16  C   UNL     1       4.270  -0.218   1.733  0.00  0.00    -0.014 C 
ATOM     17  C   UNL     1       5.165   0.257   0.587  0.00  0.00    +0.006 C 
ATOM     18  C   UNL     1       5.034   1.774   0.433  0.00  0.00    +0.034 C 
ATOM     19  C   UNL     1       4.699   0.465   3.033  0.00  0.00    +0.007 C 
BRANCH  13  20
ATOM     20  N   UNL     1       3.167   1.477  -1.119  0.00  0.00    -0.303 N 
ATOM     21  C   UNL     1       1.915   1.646  -1.588  0.00  0.00    +0.211 C 
ATOM     22  O   UNL     1       1.103   2.269  -0.937  0.00  0.00    -0.276 OA
ATOM     23  C   UNL     1       1.524   1.062  -2.921  0.00  0.00    +0.109 C 
ATOM     24  H   UNL     1       3.880   0.847  -1.671  0.00  0.00    +0.150 HD
ENDBRANCH  13  20
ENDBRANCH   2  13
TORSDOF 3
