REMARK  Name = ZINC14671703
REMARK  5 active torsions:
REMARK  status: ('A' for Active; 'I' for Inactive)
REMARK    1  A    between atoms: C_7  and  C_9
REMARK    2  A    between atoms: C_9  and  S_10
REMARK    3  A    between atoms: S_10  and  C_11
REMARK    4  A    between atoms: C_12  and  C_26
REMARK    5  A    between atoms: C_19  and  C_24
REMARK                            x       y       z     vdW  Elec       q    Type
REMARK                         _______ _______ _______ _____ _____    ______ ____
ROOT
ATOM      1  C   UNL     1      -1.206   2.091   0.019  0.00  0.00    +0.082 C 
ATOM      2  C   UNL     1      -0.017   1.428   0.010  0.00  0.00    +0.065 C 
ATOM      3  C   UNL     1       1.278   2.197   0.002  0.00  0.00    +0.032 C 
ATOM      4  C   UNL     1       1.653   2.550  -1.439  0.00  0.00    +0.014 C 
ATOM      5  C   UNL     1       2.967   3.334  -1.446  0.00  0.00    +0.001 C 
ATOM      6  C   UNL     1       4.074   2.480  -0.826  0.00  0.00    +0.000 C 
ATOM      7  C   UNL     1       3.699   2.126   0.615  0.00  0.00    +0.001 C 
ATOM      8  C   UNL     1       2.385   1.342   0.622  0.00  0.00    +0.014 C 
ATOM      9  C   UNL     1       1.111   3.483   0.815  0.00  0.00    +0.188 C 
ATOM     10  C   UNL     1      -0.157   4.181   0.399  0.00  0.00    +0.235 C 
ATOM     11  O   UNL     1      -0.203   5.393   0.395  0.00  0.00    -0.274 OA
ATOM     12  N   UNL     1      -1.239   3.470   0.033  0.00  0.00    -0.278 N 
ATOM     13  H   UNL     1      -2.050   3.932  -0.229  0.00  0.00    +0.155 HD
ENDROOT
BRANCH   9  14
ATOM     14  C   UNL     1       1.042   3.151   2.247  0.00  0.00    +0.076 C 
ATOM     15  N   UNL     1       0.989   2.896   3.353  0.00  0.00    -0.196 NA
ENDBRANCH   9  14
BRANCH   2  16
ATOM     16  C   UNL     1       0.002  -0.004   0.002  0.00  0.00    +0.098 C 
ATOM     17  N   UNL     1       0.018  -1.140  -0.004  0.00  0.00    -0.191 NA
ENDBRANCH   2  16
BRANCH   1  18
ATOM     18  S   UNL     1      -2.715   1.181   0.021  0.00  0.00    -0.100 S 
BRANCH  18  19
ATOM     19  C   UNL     1      -3.905   2.545   0.034  0.00  0.00    +0.171 C 
BRANCH  19  26
ATOM     20  C   UNL     1      -9.327   0.739   0.050  0.00  0.00    +0.120 A 
ATOM     21  C   UNL     1     -10.240   1.740   0.059  0.00  0.00    +0.068 A 
ATOM     22  S   UNL     1      -9.166   3.168   0.062  0.00  0.00    -0.061 S 
ATOM     23  C   UNL     1      -7.654   2.315   0.051  0.00  0.00    +0.164 A 
ATOM     24  N   UNL     1      -8.047   1.056   0.040  0.00  0.00    -0.233 NA
ATOM     25  N   UNL     1      -6.362   2.827   0.047  0.00  0.00    -0.264 N 
ATOM     26  C   UNL     1      -5.306   1.990   0.038  0.00  0.00    +0.229 C 
ATOM     27  O   UNL     1      -5.482   0.790   0.032  0.00  0.00    -0.275 OA
ATOM     28  H   UNL     1      -6.221   3.786   0.052  0.00  0.00    +0.157 HD
ENDBRANCH  19  26
ENDBRANCH  18  19
ENDBRANCH   1  18
TORSDOF 5
