REMARK  Name = ZINC20079479
REMARK  8 active torsions:
REMARK  status: ('A' for Active; 'I' for Inactive)
REMARK    1  A    between atoms: C_1  and  C_2
REMARK    2  A    between atoms: C_5  and  C_41
REMARK    3  A    between atoms: C_9  and  C_14
REMARK    4  A    between atoms: C_14  and  C_16
REMARK    5  A    between atoms: C_14  and  N_29
REMARK    6  A    between atoms: N_20  and  C_21
REMARK    7  A    between atoms: C_21  and  C_22
REMARK    8  A    between atoms: N_32  and  C_35
REMARK                            x       y       z     vdW  Elec       q    Type
REMARK                         _______ _______ _______ _____ _____    ______ ____
ROOT
ATOM      1  C   UNL     1      -0.013   1.086   0.008  0.00  0.00    +0.162 C 
ENDROOT
BRANCH   1  10
ATOM      2  C   UNL     1      -2.647  -1.131  -3.899  0.00  0.00    +0.044 C 
ATOM      3  C   UNL     1      -2.674   0.358  -4.128  0.00  0.00    -0.041 A 
ATOM      4  C   UNL     1      -3.320   0.873  -5.218  0.00  0.00    +0.004 A 
ATOM      5  C   UNL     1      -3.349   2.243  -5.439  0.00  0.00    +0.005 A 
ATOM      6  C   UNL     1      -2.729   3.110  -4.565  0.00  0.00    -0.026 A 
ATOM      7  C   UNL     1      -2.067   2.610  -3.450  0.00  0.00    +0.052 A 
ATOM      8  C   UNL     1      -2.039   1.219  -3.228  0.00  0.00    +0.002 A 
ATOM      9  C   UNL     1      -1.335   0.702  -2.053  0.00  0.00    +0.021 A 
ATOM     10  C   UNL     1      -0.742   1.585  -1.213  0.00  0.00    +0.042 A 
ATOM     11  C   UNL     1      -0.799   2.970  -1.480  0.00  0.00    +0.254 A 
ATOM     12  O   UNL     1      -0.255   3.746  -0.714  0.00  0.00    -0.268 OA
ATOM     13  N   UNL     1      -1.439   3.454  -2.559  0.00  0.00    -0.322 N 
ATOM     14  H   UNL     1      -1.457   4.541  -2.726  0.00  0.00    +0.169 HD
ATOM     15  C   UNL     1      -2.769   4.595  -4.818  0.00  0.00    +0.046 C 
ENDBRANCH   1  10
BRANCH   1  16
ATOM     16  N   UNL     1       1.365   1.594  -0.002  0.00  0.00    -0.292 NA
ATOM     17  C   UNL     1       2.057   1.215  -1.242  0.00  0.00    +0.067 C 
ATOM     18  C   UNL     1       3.459   1.829  -1.249  0.00  0.00    -0.063 C 
ATOM     19  N   UNL     1       4.202   1.361  -0.071  0.00  0.00    +0.383 N 
ATOM     20  C   UNL     1       3.510   1.741   1.169  0.00  0.00    -0.063 C 
ATOM     21  C   UNL     1       2.108   1.127   1.176  0.00  0.00    +0.067 C 
ATOM     22  H   UNL     1       4.248   0.263  -0.112  0.00  0.00    -0.081 HD
BRANCH  19  23
ATOM     23  C   UNL     1       5.580   1.870  -0.081  0.00  0.00    -0.068 C 
ATOM     24  C   UNL     1       5.561   3.396   0.023  0.00  0.00    -0.015 C 
ATOM     25  C   UNL     1       6.997   3.926   0.012  0.00  0.00    -0.002 C 
ATOM     26  C   UNL     1       7.683   3.512  -1.291  0.00  0.00    -0.000 C 
ATOM     27  C   UNL     1       7.702   1.985  -1.395  0.00  0.00    -0.002 C 
ATOM     28  C   UNL     1       6.267   1.456  -1.384  0.00  0.00    -0.015 C 
ENDBRANCH  19  23
ENDBRANCH   1  16
BRANCH   1  29
ATOM     29  C   UNL     1      -0.718   1.572   1.248  0.00  0.00    +0.173 A 
ATOM     30  N   UNL     1      -0.689   2.787   1.739  0.00  0.00    -0.111 NA
ATOM     31  N   UNL     1      -1.417   2.803   2.802  0.00  0.00    -0.023 NA
ATOM     32  N   UNL     1      -1.903   1.629   3.006  0.00  0.00    -0.044 NA
ATOM     33  N   UNL     1      -1.495   0.841   2.069  0.00  0.00    -0.223 N 
BRANCH  33  34
ATOM     34  C   UNL     1      -1.817  -0.581   1.926  0.00  0.00    +0.182 C 
BRANCH  34  35
ATOM     35  C   UNL     1      -0.787  -1.404   2.656  0.00  0.00    -0.026 A 
ATOM     36  C   UNL     1       0.347  -1.837   1.995  0.00  0.00    +0.008 A 
ATOM     37  C   UNL     1       1.294  -2.588   2.665  0.00  0.00    +0.038 A 
ATOM     38  C   UNL     1       1.101  -2.916   3.997  0.00  0.00    +0.123 A 
ATOM     39  C   UNL     1      -0.038  -2.487   4.656  0.00  0.00    +0.038 A 
ATOM     40  C   UNL     1      -0.981  -1.732   3.986  0.00  0.00    +0.008 A 
ATOM     41  F   UNL     1       2.024  -3.655   4.651  0.00  0.00    -0.205 F 
ENDBRANCH  34  35
ENDBRANCH  33  34
ENDBRANCH   1  29
TORSDOF 6
