REMARK  Name = ZINC06409942
REMARK  13 active torsions:
REMARK  status: ('A' for Active; 'I' for Inactive)
REMARK    1  A    between atoms: C_1  and  C_2
REMARK    2  A    between atoms: C_7  and  C_14
REMARK    3  A    between atoms: C_14  and  C_16
REMARK    4  A    between atoms: C_14  and  N_69
REMARK    5  A    between atoms: N_20  and  C_21
REMARK    6  A    between atoms: C_21  and  C_22
REMARK    7  A    between atoms: C_21  and  C_23
REMARK    8  A    between atoms: C_21  and  C_24
REMARK    9  A    between atoms: C_25  and  C_26
REMARK   10  A    between atoms: C_25  and  N_69
REMARK   11  A    between atoms: C_26  and  C_27
REMARK   12  A    between atoms: C_33  and  C_34
REMARK   13  A    between atoms: C_33  and  N_69
REMARK                            x       y       z     vdW  Elec       q    Type
REMARK                         _______ _______ _______ _____ _____    ______ ____
ROOT
ATOM      1  C   UNL     1      -5.414   1.518   0.575  0.00  0.00    +0.039 C 
ENDROOT
BRANCH   1   8
ATOM      2  C   UNL     1       2.550   1.969   0.540  0.00  0.00    +0.044 C 
ATOM      3  C   UNL     1       1.074   1.685   0.428  0.00  0.00    -0.048 A 
ATOM      4  C   UNL     1       0.643   0.544  -0.235  0.00  0.00    +0.004 A 
ATOM      5  C   UNL     1      -0.690   0.267  -0.348  0.00  0.00    +0.010 A 
ATOM      6  C   UNL     1      -1.630   1.144   0.204  0.00  0.00    -0.001 A 
ATOM      7  C   UNL     1      -3.066   0.877   0.105  0.00  0.00    +0.017 A 
ATOM      8  C   UNL     1      -3.929   1.760   0.664  0.00  0.00    +0.011 A 
ATOM      9  C   UNL     1      -3.443   2.907   1.328  0.00  0.00    +0.251 A 
ATOM     10  O   UNL     1      -4.236   3.688   1.823  0.00  0.00    -0.268 OA
ATOM     11  N   UNL     1      -2.126   3.159   1.428  0.00  0.00    -0.322 N 
ATOM     12  H   UNL     1      -1.825   3.956   1.891  0.00  0.00    +0.169 HD
ATOM     13  C   UNL     1      -1.196   2.300   0.881  0.00  0.00    +0.049 A 
ATOM     14  C   UNL     1       0.167   2.560   0.984  0.00  0.00    +0.029 A 
ENDBRANCH   1   8
BRANCH   1  15
ATOM     15  C   UNL     1      -6.034   2.532  -0.351  0.00  0.00    +0.143 A 
ATOM     16  N   UNL     1      -6.070   3.830  -0.179  0.00  0.00    -0.115 NA
ATOM     17  N   UNL     1      -6.684   4.349  -1.185  0.00  0.00    -0.023 NA
ATOM     18  N   UNL     1      -7.042   3.414  -1.996  0.00  0.00    -0.043 NA
ATOM     19  N   UNL     1      -6.654   2.280  -1.519  0.00  0.00    -0.225 N 
BRANCH  19  20
ATOM     20  C   UNL     1      -6.855   0.964  -2.131  0.00  0.00    +0.059 C 
ATOM     21  C   UNL     1      -7.673   0.081  -1.187  0.00  0.00    +0.036 C 
ATOM     22  C   UNL     1      -7.605   1.127  -3.455  0.00  0.00    +0.036 C 
ATOM     23  C   UNL     1      -5.497   0.311  -2.392  0.00  0.00    +0.036 C 
ENDBRANCH  19  20
ENDBRANCH   1  15
BRANCH   1  24
ATOM     24  N   UNL     1      -6.001   1.668   1.923  0.00  0.00    +0.392 N 
ATOM     25  H   UNL     1      -5.620   2.516   2.360  0.00  0.00    -0.080 HD
BRANCH  24  26
ATOM     26  C   UNL     1      -7.470   1.798   1.823  0.00  0.00    -0.072 C 
BRANCH  26  27
ATOM     27  C   UNL     1      -8.027   2.174   3.197  0.00  0.00    +0.016 C 
BRANCH  27  28
ATOM     28  C   UNL     1      -9.523   2.331   3.107  0.00  0.00    -0.049 A 
ATOM     29  C   UNL     1     -10.072   3.564   2.809  0.00  0.00    +0.003 A 
ATOM     30  C   UNL     1     -11.444   3.707   2.721  0.00  0.00    +0.000 A 
ATOM     31  C   UNL     1     -12.268   2.619   2.942  0.00  0.00    +0.000 A 
ATOM     32  C   UNL     1     -11.719   1.387   3.245  0.00  0.00    +0.000 A 
ATOM     33  C   UNL     1     -10.347   1.243   3.328  0.00  0.00    +0.003 A 
ENDBRANCH  27  28
ENDBRANCH  26  27
ENDBRANCH  24  26
BRANCH  24  34
ATOM     34  C   UNL     1      -5.652   0.500   2.759  0.00  0.00    -0.034 C 
BRANCH  34  35
ATOM     35  C   UNL     1      -4.247   0.678   3.275  0.00  0.00    -0.027 A 
ATOM     36  C   UNL     1      -3.794   1.504   4.250  0.00  0.00    +0.009 A 
ATOM     37  C   UNL     1      -2.447   1.498   4.560  0.00  0.00    +0.008 A 
ATOM     38  C   UNL     1      -1.619   0.668   3.880  0.00  0.00    +0.045 A 
ATOM     39  S   UNL     1      -2.750  -0.149   2.765  0.00  0.00    -0.103 S 
ENDBRANCH  34  35
ENDBRANCH  24  34
ENDBRANCH   1  24
TORSDOF 9
