REMARK  Name = ZINC19571559
REMARK  6 active torsions:
REMARK  status: ('A' for Active; 'I' for Inactive)
REMARK    1  A    between atoms: C_1  and  O_2
REMARK    2  A    between atoms: O_2  and  C_3
REMARK    3  A    between atoms: C_8  and  C_9
REMARK    4  A    between atoms: C_11  and  C_18
REMARK    5  A    between atoms: C_14  and  C_15
REMARK    6  A    between atoms: C_21  and  N_24
REMARK                            x       y       z     vdW  Elec       q    Type
REMARK                         _______ _______ _______ _____ _____    ______ ____
ROOT
ATOM      1  C   UNL     1      -1.242   2.130   0.019  0.00  0.00    +0.008 A 
ATOM      2  C   UNL     1      -1.203   3.524   0.032  0.00  0.00    +0.038 A 
ATOM      3  C   UNL     1       0.029   4.169   0.023  0.00  0.00    +0.074 A 
ATOM      4  N   UNL     1       1.165   3.481   0.009  0.00  0.00    -0.231 NA
ATOM      5  C   UNL     1       1.183   2.160   0.002  0.00  0.00    +0.135 A 
ATOM      6  C   UNL     1      -0.017   1.428   0.010  0.00  0.00    +0.099 A 
ATOM      7  N   UNL     1       2.394   1.490  -0.012  0.00  0.00    -0.342 N 
ATOM      8  H   UNL     1       2.415   0.390  -0.018  0.00  0.00    +0.144 HD
ATOM      9  H   UNL     1       3.337   2.058  -0.018  0.00  0.00    +0.144 HD
ENDROOT
BRANCH   1  15
ATOM     10  C   UNL     1      -2.889   0.605   1.113  0.00  0.00    +0.128 A 
ATOM     11  C   UNL     1      -4.102  -0.065   1.108  0.00  0.00    +0.046 A 
ATOM     12  C   UNL     1      -4.952   0.049   0.024  0.00  0.00    +0.004 A 
ATOM     13  C   UNL     1      -4.601   0.836  -1.059  0.00  0.00    +0.001 A 
ATOM     14  C   UNL     1      -3.399   1.513  -1.067  0.00  0.00    +0.012 A 
ATOM     15  C   UNL     1      -2.534   1.405   0.021  0.00  0.00    +0.025 A 
BRANCH  10  17
ATOM     16  C   UNL     1      -2.481  -0.345   3.253  0.00  0.00    +0.277 C 
ATOM     17  O   UNL     1      -2.051   0.489   2.175  0.00  0.00    -0.495 OA
ENDBRANCH  10  17
ENDBRANCH   1  15
BRANCH   3  18
ATOM     18  C   UNL     1       0.074   5.651   0.030  0.00  0.00    +0.001 A 
ATOM     19  C   UNL     1      -1.109   6.388   0.039  0.00  0.00    +0.012 A 
ATOM     20  C   UNL     1      -1.060   7.767   0.051  0.00  0.00    +0.033 A 
ATOM     21  C   UNL     1       0.160   8.418   0.042  0.00  0.00    +0.126 A 
ATOM     22  C   UNL     1       1.338   7.693   0.028  0.00  0.00    +0.033 A 
ATOM     23  C   UNL     1       1.301   6.313   0.022  0.00  0.00    +0.012 A 
BRANCH  21  24
ATOM     24  N   UNL     1       0.206   9.898   0.048  0.00  0.00    +0.056 N 
ATOM     25  O   UNL     1       1.279  10.474   0.041  0.00  0.00    -0.126 OA
ATOM     26  O   UNL     1      -0.830  10.539   0.061  0.00  0.00    -0.126 OA
ENDBRANCH  21  24
ENDBRANCH   3  18
BRANCH   6  27
ATOM     27  C   UNL     1       0.002  -0.004   0.002  0.00  0.00    +0.103 C 
ATOM     28  N   UNL     1       0.018  -1.140  -0.004  0.00  0.00    -0.191 NA
ENDBRANCH   6  27
TORSDOF 5
