REMARK  Name = ZINC30342861
REMARK  4 active torsions:
REMARK  status: ('A' for Active; 'I' for Inactive)
REMARK    1  A    between atoms: C_1  and  C_2
REMARK    2  A    between atoms: C_2  and  C_17
REMARK    3  A    between atoms: N_5  and  C_9
REMARK    4  A    between atoms: C_9  and  C_10
REMARK                            x       y       z     vdW  Elec       q    Type
REMARK                         _______ _______ _______ _____ _____    ______ ____
ROOT
ATOM      1  C   UNL     1      -0.587   6.205   3.509  0.00  0.00    +0.050 C 
ATOM      2  C   UNL     1      -0.053   4.784   3.315  0.00  0.00    +0.168 C 
ATOM      3  C   UNL     1      -0.299   4.313   1.895  0.00  0.00    +0.254 C 
ATOM      4  O   UNL     1      -1.369   4.178   1.343  0.00  0.00    -0.272 OA
ATOM      5  N   UNL     1       0.921   4.073   1.375  0.00  0.00    -0.219 N 
ATOM      6  C   UNL     1       1.893   4.332   2.257  0.00  0.00    +0.310 C 
ATOM      7  O   UNL     1       3.077   4.196   2.017  0.00  0.00    -0.252 OA
ATOM      8  N   UNL     1       1.414   4.760   3.439  0.00  0.00    -0.279 N 
ATOM      9  H   UNL     1       1.891   5.062   4.383  0.00  0.00    +0.152 HD
ENDROOT
BRANCH   2  10
ATOM     10  C   UNL     1      -0.685   3.842   4.307  0.00  0.00    +0.137 A 
ATOM     11  C   UNL     1      -0.194   3.531   5.520  0.00  0.00    +0.047 A 
ATOM     12  C   UNL     1      -1.101   2.621   6.109  0.00  0.00    +0.041 A 
ATOM     13  C   UNL     1      -2.088   2.423   5.217  0.00  0.00    +0.195 A 
ATOM     14  O   UNL     1      -1.831   3.165   4.128  0.00  0.00    -0.465 OA
ENDBRANCH   2  10
BRANCH   5  15
ATOM     15  C   UNL     1       1.155   3.595   0.010  0.00  0.00    +0.156 C 
BRANCH  15  16
ATOM     16  C   UNL     1       1.173   2.088   0.002  0.00  0.00    +0.006 A 
ATOM     17  C   UNL     1       2.379   1.412  -0.013  0.00  0.00    +0.008 A 
ATOM     18  C   UNL     1       2.396   0.029  -0.021  0.00  0.00    +0.000 A 
ATOM     19  C   UNL     1       1.208  -0.678  -0.013  0.00  0.00    +0.003 A 
ATOM     20  C   UNL     1       0.002  -0.004   0.002  0.00  0.00    +0.038 A 
ATOM     21  C   UNL     1      -0.017   1.381   0.010  0.00  0.00    +0.128 A 
ATOM     22  F   UNL     1      -1.196   2.041   0.019  0.00  0.00    -0.205 F 
ENDBRANCH  15  16
ENDBRANCH   5  15
TORSDOF 3
