REMARK  Name = ZINC39711430
REMARK  13 active torsions:
REMARK  status: ('A' for Active; 'I' for Inactive)
REMARK    1  A    between atoms: C_1  and  C_2
REMARK    2  A    between atoms: C_2  and  O_3
REMARK    3  A    between atoms: O_3  and  C_4
REMARK    4  A    between atoms: C_11  and  C_16
REMARK    5  A    between atoms: C_16  and  C_18
REMARK    6  A    between atoms: C_16  and  N_28
REMARK    7  A    between atoms: N_23  and  C_24
REMARK    8  A    between atoms: C_24  and  C_25
REMARK    9  A    between atoms: C_24  and  C_26
REMARK   10  A    between atoms: C_24  and  C_27
REMARK   11  A    between atoms: N_31  and  C_34
REMARK   12  A    between atoms: C_36  and  C_41
REMARK   13  A    between atoms: C_39  and  C_40
REMARK                            x       y       z     vdW  Elec       q    Type
REMARK                         _______ _______ _______ _____ _____    ______ ____
ROOT
ATOM      1  C   UNL     1      -4.537  -6.354   1.755  0.00  0.00    -0.009 C 
ENDROOT
BRANCH   1   9
ATOM      2  C   UNL     1      -1.445  -9.471  -2.093  0.00  0.00    +0.121 A 
ATOM      3  C   UNL     1      -2.605  -9.886  -2.759  0.00  0.00    +0.047 A 
ATOM      4  C   UNL     1      -3.819  -9.323  -2.532  0.00  0.00    +0.027 A 
ATOM      5  C   UNL     1      -3.961  -8.279  -1.599  0.00  0.00    +0.041 A 
ATOM      6  N   UNL     1      -5.160  -7.736  -1.386  0.00  0.00    -0.285 N 
ATOM      7  C   UNL     1      -5.365  -6.753  -0.526  0.00  0.00    +0.223 C 
ATOM      8  O   UNL     1      -6.483  -6.297  -0.374  0.00  0.00    -0.275 OA
ATOM      9  C   UNL     1      -4.205  -6.198   0.270  0.00  0.00    +0.088 C 
ATOM     10  C   UNL     1      -2.839  -6.812   0.031  0.00  0.00    -0.006 C 
ATOM     11  C   UNL     1      -2.758  -7.821  -0.882  0.00  0.00    -0.004 A 
ATOM     12  C   UNL     1      -1.480  -8.472  -1.168  0.00  0.00    +0.055 A 
ATOM     13  H   UNL     1      -5.918  -8.077  -1.887  0.00  0.00    +0.155 HD
BRANCH   2  14
ATOM     14  O   UNL     1      -0.263 -10.081  -2.371  0.00  0.00    -0.492 OA
BRANCH  14  16
ATOM     15  C   UNL     1       1.128 -11.685  -3.527  0.00  0.00    +0.048 C 
ATOM     16  C   UNL     1      -0.284 -11.122  -3.350  0.00  0.00    +0.225 C 
ENDBRANCH  14  16
ENDBRANCH   2  14
ENDBRANCH   1   9
BRANCH   1  17
ATOM     17  N   UNL     1      -4.628  -7.782   2.089  0.00  0.00    +0.387 N 
ATOM     18  C   UNL     1      -5.129  -7.930   3.461  0.00  0.00    -0.059 C 
ATOM     19  C   UNL     1      -5.333  -9.417   3.771  0.00  0.00    +0.086 C 
ATOM     20  N   UNL     1      -4.072 -10.126   3.505  0.00  0.00    -0.333 N 
ATOM     21  C   UNL     1      -3.412  -9.905   2.208  0.00  0.00    +0.086 C 
ATOM     22  C   UNL     1      -3.299  -8.395   1.972  0.00  0.00    -0.059 C 
ATOM     23  H   UNL     1      -5.263  -8.235   1.450  0.00  0.00    -0.081 HD
BRANCH  20  24
ATOM     24  C   UNL     1      -3.516 -10.985   4.455  0.00  0.00    +0.033 A 
ATOM     25  C   UNL     1      -3.851 -12.334   4.455  0.00  0.00    +0.026 A 
ATOM     26  C   UNL     1      -3.300 -13.181   5.396  0.00  0.00    -0.049 A 
ATOM     27  C   UNL     1      -2.416 -12.688   6.339  0.00  0.00    +0.004 A 
ATOM     28  C   UNL     1      -2.081 -11.346   6.342  0.00  0.00    +0.005 A 
ATOM     29  C   UNL     1      -2.624 -10.495   5.400  0.00  0.00    -0.029 A 
ATOM     30  C   UNL     1      -2.253  -9.034   5.400  0.00  0.00    +0.045 C 
ATOM     31  C   UNL     1      -3.663 -14.643   5.397  0.00  0.00    +0.044 C 
ENDBRANCH  20  24
ENDBRANCH   1  17
BRANCH   1  32
ATOM     32  C   UNL     1      -5.875  -5.674   2.053  0.00  0.00    +0.205 C 
ATOM     33  N   UNL     1      -6.922  -6.190   1.161  0.00  0.00    -0.152 NA
ATOM     34  N   UNL     1      -7.361  -5.259   0.482  0.00  0.00    -0.070 NA
ATOM     35  N   UNL     1      -6.743  -4.042   0.765  0.00  0.00    -0.179 N 
ATOM     36  N   UNL     1      -5.800  -4.230   1.745  0.00  0.00    -0.183 NA
ATOM     37  H   UNL     1      -6.947  -3.195   0.339  0.00  0.00    +0.191 HD
BRANCH  36  38
ATOM     38  C   UNL     1      -4.460  -3.863   1.265  0.00  0.00    +0.035 C 
ATOM     39  C   UNL     1      -4.421  -3.961  -0.261  0.00  0.00    +0.029 C 
ATOM     40  C   UNL     1      -4.141  -2.429   1.693  0.00  0.00    +0.029 C 
ATOM     41  C   UNL     1      -3.425  -4.817   1.864  0.00  0.00    +0.029 C 
ENDBRANCH  36  38
ENDBRANCH   1  32
TORSDOF 7
