REMARK  Name = ZINC39448886
REMARK  8 active torsions:
REMARK  status: ('A' for Active; 'I' for Inactive)
REMARK    1  A    between atoms: C_1  and  O_2
REMARK    2  A    between atoms: O_2  and  C_3
REMARK    3  A    between atoms: C_7  and  C_11
REMARK    4  A    between atoms: C_8  and  O_9
REMARK    5  A    between atoms: O_9  and  C_10
REMARK    6  A    between atoms: C_16  and  S_18
REMARK    7  A    between atoms: S_18  and  C_19
REMARK    8  A    between atoms: C_19  and  C_20
REMARK                            x       y       z     vdW  Elec       q    Type
REMARK                         _______ _______ _______ _____ _____    ______ ____
ROOT
ATOM      1  C   UNL     1       1.318  -4.110  -2.300  0.00  0.00    +0.204 C 
ATOM      2  N   UNL     1       0.139  -4.683  -1.640  0.00  0.00    -0.336 N 
ATOM      3  C   UNL     1      -0.938  -4.952  -2.328  0.00  0.00    +0.190 C 
ATOM      4  N   UNL     1      -1.000  -4.761  -3.656  0.00  0.00    -0.195 NA
ATOM      5  C   UNL     1       0.094  -4.535  -4.362  0.00  0.00    +0.159 C 
ATOM      6  N   UNL     1       1.306  -4.526  -3.711  0.00  0.00    -0.300 N 
ATOM      7  N   UNL     1      -2.046  -5.447  -1.671  0.00  0.00    -0.329 N 
ATOM      8  H   UNL     1      -2.017  -5.591  -0.712  0.00  0.00    +0.145 HD
ATOM      9  H   UNL     1      -2.854  -5.652  -2.168  0.00  0.00    +0.145 HD
ATOM     10  H   UNL     1       2.123  -4.784  -4.165  0.00  0.00    +0.150 HD
ATOM     11  H   UNL     1       0.160  -4.863  -0.687  0.00  0.00    +0.164 HD
ENDROOT
BRANCH   1  16
ATOM     12  C   UNL     1       0.750  -0.605  -0.987  0.00  0.00    +0.162 A 
ATOM     13  C   UNL     1       1.177   0.159  -2.061  0.00  0.00    +0.049 A 
ATOM     14  C   UNL     1       1.648  -0.458  -3.205  0.00  0.00    +0.004 A 
ATOM     15  C   UNL     1       1.693  -1.838  -3.281  0.00  0.00    +0.011 A 
ATOM     16  C   UNL     1       1.268  -2.606  -2.213  0.00  0.00    +0.038 A 
ATOM     17  C   UNL     1       0.801  -1.994  -1.062  0.00  0.00    +0.168 A 
BRANCH  12  19
ATOM     18  C   UNL     1       0.264   1.430   0.144  0.00  0.00    +0.277 C 
ATOM     19  O   UNL     1       0.287   0.001   0.139  0.00  0.00    -0.491 OA
ENDBRANCH  12  19
BRANCH  17  20
ATOM     20  O   UNL     1       0.388  -2.748  -0.008  0.00  0.00    -0.491 OA
ATOM     21  C   UNL     1       1.341  -2.993   1.028  0.00  0.00    +0.277 C 
ENDBRANCH  17  20
ENDBRANCH   1  16
BRANCH   5  22
ATOM     22  S   UNL     1       0.003  -4.253  -6.099  0.00  0.00    -0.081 S 
BRANCH  22  23
ATOM     23  C   UNL     1      -1.770  -4.364  -6.469  0.00  0.00    +0.173 C 
BRANCH  23  24
ATOM     24  C   UNL     1      -1.990  -4.139  -7.943  0.00  0.00    +0.234 C 
ATOM     25  O   UNL     1      -1.044  -3.924  -8.672  0.00  0.00    -0.274 OA
ATOM     26  N   UNL     1      -3.237  -4.176  -8.451  0.00  0.00    -0.239 N 
ATOM     27  C   UNL     1      -4.347  -4.417  -7.629  0.00  0.00    +0.044 A 
ATOM     28  C   UNL     1      -4.549  -3.571  -6.544  0.00  0.00    +0.024 A 
ATOM     29  C   UNL     1      -5.643  -3.736  -5.721  0.00  0.00    +0.002 A 
ATOM     30  C   UNL     1      -6.541  -4.753  -5.990  0.00  0.00    +0.000 A 
ATOM     31  C   UNL     1      -6.333  -5.598  -7.055  0.00  0.00    +0.005 A 
ATOM     32  C   UNL     1      -5.221  -5.461  -7.889  0.00  0.00    -0.025 A 
ATOM     33  C   UNL     1      -5.096  -6.523  -8.957  0.00  0.00    +0.042 C 
ATOM     34  C   UNL     1      -3.837  -6.389  -9.794  0.00  0.00    +0.042 C 
ATOM     35  C   UNL     1      -3.813  -5.082 -10.548  0.00  0.00    -0.025 A 
ATOM     36  C   UNL     1      -3.468  -3.969  -9.818  0.00  0.00    +0.044 A 
ATOM     37  C   UNL     1      -3.369  -2.726 -10.418  0.00  0.00    +0.024 A 
ATOM     38  C   UNL     1      -3.653  -2.617 -11.770  0.00  0.00    +0.002 A 
ATOM     39  C   UNL     1      -4.027  -3.730 -12.500  0.00  0.00    +0.000 A 
ATOM     40  C   UNL     1      -4.109  -4.987 -11.887  0.00  0.00    +0.005 A 
ENDBRANCH  23  24
ENDBRANCH  22  23
ENDBRANCH   5  22
TORSDOF 6
