REMARK  Name = ZINC21191041
REMARK  9 active torsions:
REMARK  status: ('A' for Active; 'I' for Inactive)
REMARK    1  A    between atoms: C_1  and  C_2
REMARK    2  A    between atoms: C_2  and  C_3
REMARK    3  A    between atoms: C_3  and  C_4
REMARK    4  A    between atoms: C_3  and  C_5
REMARK    5  A    between atoms: C_3  and  C_6
REMARK    6  A    between atoms: N_14  and  C_18
REMARK    7  A    between atoms: C_18  and  C_19
REMARK    8  A    between atoms: N_21  and  N_22
REMARK    9  A    between atoms: C_23  and  C_25
REMARK                            x       y       z     vdW  Elec       q    Type
REMARK                         _______ _______ _______ _____ _____    ______ ____
ROOT
ATOM      1  C   UNL     1      -2.482   1.525   0.020  0.00  0.00    +0.215 C 
ENDROOT
BRANCH   1  10
ATOM      2  C   UNL     1       4.048   2.662  -0.021  0.00  0.00    -0.005 C 
ATOM      3  C   UNL     1       3.210   2.894   1.237  0.00  0.00    +0.006 C 
ATOM      4  C   UNL     1       2.028   1.922   1.248  0.00  0.00    +0.035 C 
ATOM      5  C   UNL     1       1.176   2.139   0.002  0.00  0.00    +0.113 C 
ATOM      6  C   UNL     1       2.005   1.934  -1.261  0.00  0.00    +0.035 C 
ATOM      7  C   UNL     1       3.187   2.906  -1.262  0.00  0.00    +0.006 C 
ATOM      8  C   UNL     1      -0.014   1.208   0.009  0.00  0.00    +0.247 C 
ATOM      9  O   UNL     1       0.002  -0.004   0.002  0.00  0.00    -0.273 OA
ATOM     10  N   UNL     1      -1.099   2.010   0.017  0.00  0.00    -0.215 N 
ATOM     11  C   UNL     1      -0.756   3.304   0.026  0.00  0.00    +0.310 C 
ATOM     12  O   UNL     1      -1.558   4.216   0.037  0.00  0.00    -0.252 OA
ATOM     13  N   UNL     1       0.579   3.481   0.014  0.00  0.00    -0.285 N 
ATOM     14  H   UNL     1       1.226   4.371   0.013  0.00  0.00    +0.151 HD
BRANCH   2  15
ATOM     15  C   UNL     1       5.237   3.625  -0.027  0.00  0.00    -0.032 C 
ATOM     16  C   UNL     1       4.724   5.067  -0.015  0.00  0.00    +0.011 C 
ATOM     17  C   UNL     1       6.099   3.380   1.213  0.00  0.00    +0.011 C 
BRANCH  15  19
ATOM     18  C   UNL     1       7.264   4.356  -1.292  0.00  0.00    +0.004 C 
ATOM     19  C   UNL     1       6.075   3.393  -1.286  0.00  0.00    +0.003 C 
ENDBRANCH  15  19
ENDBRANCH   2  15
ENDBRANCH   1  10
BRANCH   1  20
ATOM     20  C   UNL     1      -2.950   1.351   1.442  0.00  0.00    +0.247 C 
ATOM     21  O   UNL     1      -2.202   1.607   2.362  0.00  0.00    -0.273 OA
ATOM     22  N   UNL     1      -4.199   0.911   1.691  0.00  0.00    -0.233 N 
ATOM     23  H   UNL     1      -4.877   0.679   0.857  0.00  0.00    +0.173 HD
BRANCH  22  24
ATOM     24  N   UNL     1      -4.635   0.750   3.013  0.00  0.00    -0.231 N 
ATOM     25  C   UNL     1      -5.884   0.310   3.262  0.00  0.00    +0.273 C 
ATOM     26  O   UNL     1      -6.631   0.054   2.342  0.00  0.00    -0.270 OA
ATOM     27  H   UNL     1      -3.957   0.982   3.848  0.00  0.00    +0.173 HD
BRANCH  25  28
ATOM     28  C   UNL     1      -6.352   0.136   4.684  0.00  0.00    +0.297 C 
ATOM     29  C   UNL     1      -5.545  -0.980   5.361  0.00  0.00    +0.283 C 
ATOM     30  O   UNL     1      -6.025  -1.128   6.703  0.00  0.00    -0.484 OA
ATOM     31  C   UNL     1      -7.375  -1.167   6.869  0.00  0.00    +0.162 A 
ATOM     32  C   UNL     1      -7.901  -1.657   8.056  0.00  0.00    +0.049 A 
ATOM     33  C   UNL     1      -9.269  -1.697   8.242  0.00  0.00    +0.004 A 
ATOM     34  C   UNL     1     -10.118  -1.249   7.247  0.00  0.00    +0.004 A 
ATOM     35  C   UNL     1      -9.601  -0.761   6.062  0.00  0.00    +0.049 A 
ATOM     36  C   UNL     1      -8.229  -0.719   5.868  0.00  0.00    +0.163 A 
ATOM     37  O   UNL     1      -7.734  -0.239   4.694  0.00  0.00    -0.472 OA
ENDBRANCH  25  28
ENDBRANCH  22  24
ENDBRANCH   1  20
TORSDOF 6
