REMARK  Name = ZINC09344452
REMARK  8 active torsions:
REMARK  status: ('A' for Active; 'I' for Inactive)
REMARK    1  A    between atoms: C_1  and  O_2
REMARK    2  A    between atoms: O_2  and  C_3
REMARK    3  A    between atoms: C_6  and  C_9
REMARK    4  A    between atoms: C_20  and  C_22
REMARK    5  A    between atoms: C_24  and  O_30
REMARK    6  A    between atoms: C_27  and  O_28
REMARK    7  A    between atoms: O_28  and  C_29
REMARK    8  A    between atoms: O_30  and  C_31
REMARK                            x       y       z     vdW  Elec       q    Type
REMARK                         _______ _______ _______ _____ _____    ______ ____
ROOT
ATOM      1  C   UNL     1       2.529  -2.468  -4.417  0.00  0.00    +0.159 C 
ATOM      2  C   UNL     1       3.967  -2.739  -4.031  0.00  0.00    +0.027 C 
ATOM      3  C   UNL     1       4.401  -4.016  -4.057  0.00  0.00    +0.083 C 
ATOM      4  C   UNL     1       5.816  -4.266  -3.685  0.00  0.00    +0.042 A 
ATOM      5  C   UNL     1       6.270  -5.540  -3.373  0.00  0.00    +0.013 A 
ATOM      6  C   UNL     1       7.596  -5.728  -3.031  0.00  0.00    +0.001 A 
ATOM      7  C   UNL     1       8.466  -4.652  -3.000  0.00  0.00    +0.004 A 
ATOM      8  C   UNL     1       8.022  -3.380  -3.310  0.00  0.00    +0.046 A 
ATOM      9  C   UNL     1       6.697  -3.177  -3.655  0.00  0.00    +0.131 A 
ATOM     10  O   UNL     1       6.236  -1.940  -3.972  0.00  0.00    -0.479 OA
ATOM     11  C   UNL     1       4.887  -1.627  -3.620  0.00  0.00    +0.238 C 
ATOM     12  N   UNL     1       3.581  -5.036  -4.410  0.00  0.00    -0.213 NA
ATOM     13  C   UNL     1       2.323  -4.889  -4.757  0.00  0.00    +0.237 C 
ATOM     14  N   UNL     1       1.733  -3.645  -4.783  0.00  0.00    -0.208 N 
ATOM     15  N   UNL     1       0.411  -3.841  -5.188  0.00  0.00    -0.251 N 
ATOM     16  C   UNL     1       0.261  -5.181  -5.382  0.00  0.00    +0.203 C 
ATOM     17  N   UNL     1       1.381  -5.782  -5.132  0.00  0.00    -0.205 NA
ATOM     18  H   UNL     1      -0.267  -3.158  -5.308  0.00  0.00    +0.171 HD
ENDROOT
BRANCH   1  22
ATOM     19  C   UNL     1       0.608  -0.529  -1.129  0.00  0.00    +0.120 A 
ATOM     20  C   UNL     1       1.092   0.221  -2.191  0.00  0.00    +0.046 A 
ATOM     21  C   UNL     1       1.713  -0.408  -3.253  0.00  0.00    +0.009 A 
ATOM     22  C   UNL     1       1.852  -1.784  -3.257  0.00  0.00    -0.021 A 
ATOM     23  C   UNL     1       1.370  -2.533  -2.200  0.00  0.00    +0.009 A 
ATOM     24  C   UNL     1       0.754  -1.908  -1.133  0.00  0.00    +0.046 A 
BRANCH  19  26
ATOM     25  C   UNL     1      -0.117   1.511  -0.146  0.00  0.00    +0.277 C 
ATOM     26  O   UNL     1      -0.003   0.088  -0.083  0.00  0.00    -0.495 OA
ENDBRANCH  19  26
ENDBRANCH   1  22
BRANCH  11  27
ATOM     27  C   UNL     1       4.794  -1.428  -2.130  0.00  0.00    +0.042 A 
ATOM     28  C   UNL     1       4.523  -2.502  -1.304  0.00  0.00    +0.056 A 
ATOM     29  C   UNL     1       4.438  -2.319   0.068  0.00  0.00    +0.121 A 
ATOM     30  C   UNL     1       4.624  -1.056   0.611  0.00  0.00    +0.049 A 
ATOM     31  C   UNL     1       4.895   0.018  -0.213  0.00  0.00    +0.049 A 
ATOM     32  C   UNL     1       4.985  -0.167  -1.585  0.00  0.00    +0.127 A 
BRANCH  32  33
ATOM     33  O   UNL     1       5.257   0.890  -2.397  0.00  0.00    -0.495 OA
ATOM     34  C   UNL     1       5.565   2.133  -1.762  0.00  0.00    +0.277 C 
ENDBRANCH  32  33
BRANCH  29  35
ATOM     35  O   UNL     1       4.171  -3.377   0.879  0.00  0.00    -0.495 OA
ATOM     36  C   UNL     1       4.098  -3.115   2.282  0.00  0.00    +0.277 C 
ENDBRANCH  29  35
ENDBRANCH  11  27
TORSDOF 5
