REMARK  Name = ZINC07806010
REMARK  10 active torsions:
REMARK  status: ('A' for Active; 'I' for Inactive)
REMARK    1  A    between atoms: C_1  and  C_2
REMARK    2  A    between atoms: C_5  and  S_8
REMARK    3  A    between atoms: S_8  and  N_11
REMARK    4  A    between atoms: N_11  and  C_12
REMARK    5  A    between atoms: C_12  and  C_13
REMARK    6  A    between atoms: C_13  and  O_15
REMARK    7  A    between atoms: O_15  and  C_16
REMARK    8  A    between atoms: C_16  and  C_17
REMARK    9  A    between atoms: N_22  and  C_23
REMARK   10  A    between atoms: C_29  and  C_31
REMARK                            x       y       z     vdW  Elec       q    Type
REMARK                         _______ _______ _______ _____ _____    ______ ____
ROOT
ATOM      1  O   UNL     1       1.031   6.789  -6.057  0.00  0.00    -0.454 OA
ENDROOT
BRANCH   1   2
ATOM      2  C   UNL     1       0.476   7.381  -7.127  0.00  0.00    +0.323 C 
ATOM      3  O   UNL     1      -0.364   6.800  -7.771  0.00  0.00    -0.249 OA
BRANCH   2   4
ATOM      4  C   UNL     1       0.902   8.771  -7.523  0.00  0.00    +0.226 C 
BRANCH   4   5
ATOM      5  N   UNL     1       0.156   9.190  -8.713  0.00  0.00    -0.179 NA
ATOM      6  H   UNL     1      -0.325   8.533  -9.239  0.00  0.00    +0.149 HD
BRANCH   5   7
ATOM      7  S   UNL     1       0.134  10.785  -9.157  0.00  0.00    +0.059 S 
ATOM      8  O   UNL     1      -0.640  10.864 -10.346  0.00  0.00    -0.153 OA
ATOM      9  O   UNL     1      -0.187  11.528  -7.989  0.00  0.00    -0.153 OA
BRANCH   7  14
ATOM     10  C   UNL     1       5.777  12.295 -10.668  0.00  0.00    +0.044 C 
ATOM     11  C   UNL     1       4.367  11.918 -10.290  0.00  0.00    -0.050 A 
ATOM     12  C   UNL     1       3.503  11.425 -11.250  0.00  0.00    +0.005 A 
ATOM     13  C   UNL     1       2.210  11.080 -10.904  0.00  0.00    +0.029 A 
ATOM     14  C   UNL     1       1.782  11.226  -9.598  0.00  0.00    +0.105 A 
ATOM     15  C   UNL     1       2.644  11.723  -8.639  0.00  0.00    +0.029 A 
ATOM     16  C   UNL     1       3.938  12.065  -8.985  0.00  0.00    +0.005 A 
ENDBRANCH   7  14
ENDBRANCH   5   7
ENDBRANCH   4   5
ENDBRANCH   2   4
ENDBRANCH   1   2
BRANCH   1  17
ATOM     17  C   UNL     1       0.573   5.450  -5.734  0.00  0.00    +0.328 C 
BRANCH  17  18
ATOM     18  C   UNL     1       1.302   4.950  -4.513  0.00  0.00    +0.258 C 
ATOM     19  O   UNL     1       2.126   5.654  -3.969  0.00  0.00    -0.272 OA
ATOM     20  N   UNL     1       1.037   3.722  -4.025  0.00  0.00    -0.237 N 
ATOM     21  C   UNL     1       1.689   3.276  -2.933  0.00  0.00    +0.306 C 
ATOM     22  O   UNL     1       2.515   3.981  -2.389  0.00  0.00    -0.252 OA
ATOM     23  N   UNL     1       1.424   2.047  -2.446  0.00  0.00    -0.296 N 
ATOM     24  H   UNL     1       0.377   3.159  -4.460  0.00  0.00    +0.159 HD
ATOM     25  H   UNL     1       0.765   1.484  -2.881  0.00  0.00    +0.151 HD
BRANCH  23  26
ATOM     26  C   UNL     1       2.133   1.562  -1.259  0.00  0.00    +0.077 C 
ATOM     27  C   UNL     1       1.417   2.055  -0.000  0.00  0.00    +0.022 C 
ATOM     28  C   UNL     1      -0.019   1.526   0.010  0.00  0.00    +0.002 C 
ATOM     29  C   UNL     1       0.002  -0.004   0.002  0.00  0.00    +0.000 C 
ATOM     30  C   UNL     1       0.718  -0.497  -1.257  0.00  0.00    +0.005 C 
ATOM     31  C   UNL     1       2.154   0.032  -1.268  0.00  0.00    +0.006 C 
ATOM     32  C   UNL     1       2.870  -0.461  -2.526  0.00  0.00    +0.009 C 
ENDBRANCH  23  26
ENDBRANCH  17  18
ENDBRANCH   1  17
TORSDOF 8
