REMARK  Name = ZINC08927733
REMARK  12 active torsions:
REMARK  status: ('A' for Active; 'I' for Inactive)
REMARK    1  A    between atoms: C_1  and  C_2
REMARK    2  A    between atoms: C_5  and  C_34
REMARK    3  A    between atoms: C_6  and  C_8
REMARK    4  A    between atoms: C_8  and  N_9
REMARK    5  A    between atoms: C_16  and  C_19
REMARK    6  A    between atoms: C_16  and  O_32
REMARK    7  A    between atoms: C_19  and  C_20
REMARK    8  A    between atoms: C_20  and  C_22
REMARK    9  A    between atoms: C_25  and  O_30
REMARK   10  A    between atoms: C_27  and  O_28
REMARK   11  A    between atoms: O_28  and  C_29
REMARK   12  A    between atoms: O_30  and  C_31
REMARK                            x       y       z     vdW  Elec       q    Type
REMARK                         _______ _______ _______ _____ _____    ______ ____
ROOT
ATOM      1  N   UNL     1       8.504   4.743   1.862  0.00  0.00    -0.264 N 
ATOM      2  C   UNL     1       9.238   3.772   1.180  0.00  0.00    +0.043 A 
ATOM      3  C   UNL     1      10.454   3.164   1.489  0.00  0.00    +0.025 A 
ATOM      4  C   UNL     1      10.989   2.215   0.643  0.00  0.00    +0.017 A 
ATOM      5  C   UNL     1      10.324   1.858  -0.517  0.00  0.00    +0.018 A 
ATOM      6  C   UNL     1       9.115   2.457  -0.830  0.00  0.00    +0.024 A 
ATOM      7  C   UNL     1       8.580   3.405   0.013  0.00  0.00    +0.016 A 
ATOM      8  C   UNL     1       7.313   4.227  -0.038  0.00  0.00    +0.175 C 
ATOM      9  C   UNL     1       7.368   5.065   1.221  0.00  0.00    +0.257 C 
ATOM     10  O   UNL     1       6.541   5.876   1.583  0.00  0.00    -0.272 OA
ATOM     11 BR   UNL     1      11.064   0.555  -1.671  0.00  0.00    -0.050 Br
ENDROOT
BRANCH   8  12
ATOM     12  O   UNL     1       7.302   5.063  -1.197  0.00  0.00    -0.374 OA
ATOM     13  H   UNL     1       6.524   5.634  -1.262  0.00  0.00    +0.211 HD
ENDBRANCH   8  12
BRANCH   1  14
ATOM     14  C   UNL     1       8.924   5.342   3.131  0.00  0.00    +0.149 C 
BRANCH  14  20
ATOM     15  C   UNL     1       6.197   1.496   4.809  0.00  0.00    +0.044 C 
ATOM     16  C   UNL     1       6.990   2.749   5.078  0.00  0.00    -0.050 A 
ATOM     17  C   UNL     1       7.139   3.208   6.373  0.00  0.00    +0.003 A 
ATOM     18  C   UNL     1       7.867   4.357   6.620  0.00  0.00    +0.004 A 
ATOM     19  C   UNL     1       8.448   5.045   5.571  0.00  0.00    -0.046 A 
ATOM     20  C   UNL     1       8.294   4.589   4.275  0.00  0.00    -0.027 A 
ATOM     21  C   UNL     1       7.567   3.439   4.029  0.00  0.00    +0.008 A 
ATOM     22  C   UNL     1       9.245   6.295   5.840  0.00  0.00    +0.044 C 
ENDBRANCH  14  20
ENDBRANCH   1  14
BRANCH   8  23
ATOM     23  C   UNL     1       6.083   3.317  -0.023  0.00  0.00    +0.129 C 
BRANCH  23  24
ATOM     24  C   UNL     1       4.835   4.160   0.022  0.00  0.00    +0.170 C 
ATOM     25  O   UNL     1       4.921   5.371   0.041  0.00  0.00    -0.292 OA
BRANCH  24  26
ATOM     26  C   UNL     1       3.518   3.519   0.043  0.00  0.00    +0.059 A 
ATOM     27  C   UNL     1       3.415   2.122   0.021  0.00  0.00    +0.018 A 
ATOM     28  C   UNL     1       2.187   1.527   0.046  0.00  0.00    +0.046 A 
ATOM     29  C   UNL     1       1.030   2.300   0.083  0.00  0.00    +0.124 A 
ATOM     30  C   UNL     1       1.113   3.685   0.105  0.00  0.00    +0.092 A 
ATOM     31  C   UNL     1       2.351   4.303   0.086  0.00  0.00    +0.134 A 
BRANCH  31  32
ATOM     32  O   UNL     1       2.438   5.656   0.107  0.00  0.00    -0.494 OA
ATOM     33  C   UNL     1       1.210   6.385   0.150  0.00  0.00    +0.277 C 
ENDBRANCH  31  32
BRANCH  29  34
ATOM     34  O   UNL     1      -0.185   1.696   0.103  0.00  0.00    -0.495 OA
ATOM     35  C   UNL     1      -0.200   0.268   0.078  0.00  0.00    +0.277 C 
ENDBRANCH  29  34
ENDBRANCH  24  26
ENDBRANCH  23  24
ENDBRANCH   8  23
TORSDOF 8
