REMARK  Name = ZINC08653122
REMARK  10 active torsions:
REMARK  status: ('A' for Active; 'I' for Inactive)
REMARK    1  A    between atoms: C_1  and  C_2
REMARK    2  A    between atoms: N_6  and  N_7
REMARK    3  A    between atoms: N_8  and  N_9
REMARK    4  A    between atoms: C_10  and  C_11
REMARK    5  A    between atoms: C_10  and  C_22
REMARK    6  A    between atoms: C_11  and  C_13
REMARK    7  A    between atoms: C_11  and  C_15
REMARK    8  A    between atoms: C_22  and  C_24
REMARK    9  A    between atoms: C_24  and  C_26
REMARK   10  A    between atoms: C_24  and  C_28
REMARK                            x       y       z     vdW  Elec       q    Type
REMARK                         _______ _______ _______ _____ _____    ______ ____
ROOT
ATOM      1  N   UNL     1       2.397   1.169   0.182  0.00  0.00    -0.179 NA
ATOM      2  C   UNL     1       1.393   1.992   0.025  0.00  0.00    +0.124 C 
ENDROOT
BRANCH   1   9
ATOM      3  C   UNL     1       4.855  -4.156   1.233  0.00  0.00    +0.090 C 
ATOM      4  C   UNL     1       4.417  -2.734   0.994  0.00  0.00    +0.149 A 
ATOM      5  N   UNL     1       5.176  -1.675   1.031  0.00  0.00    -0.131 NA
ATOM      6  N   UNL     1       4.479  -0.624   0.782  0.00  0.00    -0.110 NA
ATOM      7  C   UNL     1       3.228  -0.960   0.572  0.00  0.00    +0.254 A 
ATOM      8  N   UNL     1       3.150  -2.317   0.707  0.00  0.00    -0.220 N 
ATOM      9  N   UNL     1       2.182  -0.100   0.275  0.00  0.00    -0.204 N 
ATOM     10  H   UNL     1       1.169  -0.499   0.119  0.00  0.00    +0.178 HD
BRANCH   8  11
ATOM     11  N   UNL     1       2.035  -3.095   0.577  0.00  0.00    -0.294 N 
ATOM     12  H   UNL     1       1.065  -2.632   0.341  0.00  0.00    +0.163 HD
ATOM     13  H   UNL     1       2.106  -4.185   0.709  0.00  0.00    +0.163 HD
ENDBRANCH   8  11
ENDBRANCH   1   9
BRANCH   2  14
ATOM     14  C   UNL     1       1.635   3.349  -0.263  0.00  0.00    +0.201 C 
ATOM     15  O   UNL     1       0.702   4.114  -0.409  0.00  0.00    -0.289 OA
BRANCH  14  16
ATOM     16  C   UNL     1       3.049   3.853  -0.389  0.00  0.00    +0.193 C 
BRANCH  16  17
ATOM     17  C   UNL     1       3.108   5.298   0.034  0.00  0.00    -0.023 A 
ATOM     18  C   UNL     1       2.359   6.246  -0.640  0.00  0.00    +0.007 A 
ATOM     19  C   UNL     1       2.408   7.571  -0.249  0.00  0.00    +0.020 A 
ATOM     20  C   UNL     1       3.215   7.950   0.809  0.00  0.00    +0.041 A 
ATOM     21  C   UNL     1       3.968   7.003   1.479  0.00  0.00    +0.020 A 
ATOM     22  C   UNL     1       3.914   5.677   1.091  0.00  0.00    +0.007 A 
ATOM     23 CL   UNL     1       3.282   9.615   1.296  0.00  0.00    -0.084 Cl
ENDBRANCH  16  17
BRANCH  16  24
ATOM     24  C   UNL     1       3.490   3.733  -1.788  0.00  0.00    +0.079 C 
ATOM     25  N   UNL     1       3.830   3.640  -2.869  0.00  0.00    -0.195 NA
ENDBRANCH  16  24
ENDBRANCH  14  16
ENDBRANCH   2  14
BRANCH   2  26
ATOM     26  C   UNL     1      -0.021   1.488   0.151  0.00  0.00    +0.175 C 
BRANCH  26  27
ATOM     27  C   UNL     1      -0.606   1.283  -1.222  0.00  0.00    -0.025 A 
ATOM     28  C   UNL     1      -0.713   2.350  -2.094  0.00  0.00    +0.007 A 
ATOM     29  C   UNL     1      -1.244   2.162  -3.356  0.00  0.00    +0.020 A 
ATOM     30  C   UNL     1      -1.679   0.906  -3.743  0.00  0.00    +0.041 A 
ATOM     31  C   UNL     1      -1.577  -0.161  -2.868  0.00  0.00    +0.020 A 
ATOM     32  C   UNL     1      -1.040   0.028  -1.608  0.00  0.00    +0.007 A 
ATOM     33 CL   UNL     1      -2.353   0.670  -5.325  0.00  0.00    -0.084 Cl
ENDBRANCH  26  27
BRANCH  26  34
ATOM     34  C   UNL     1      -0.830   2.474   0.886  0.00  0.00    +0.077 C 
ATOM     35  N   UNL     1      -1.453   3.236   1.453  0.00  0.00    -0.196 NA
ENDBRANCH  26  34
ENDBRANCH   2  26
TORSDOF 9
