REMARK  Name = ZINC33923906
REMARK  6 active torsions:
REMARK  status: ('A' for Active; 'I' for Inactive)
REMARK    1  A    between atoms: C_1  and  C_2
REMARK    2  A    between atoms: N_8  and  C_9
REMARK    3  A    between atoms: C_9  and  C_10
REMARK    4  A    between atoms: C_11  and  C_21
REMARK    5  A    between atoms: N_23  and  N_24
REMARK    6  A    between atoms: C_25  and  C_26
REMARK                            x       y       z     vdW  Elec       q    Type
REMARK                         _______ _______ _______ _____ _____    ______ ____
ROOT
ATOM      1  C   UNL     1      -0.253   0.203   4.641  0.00  0.00    +0.063 A 
ATOM      2  C   UNL     1      -0.281  -1.028   5.234  0.00  0.00    +0.170 A 
ATOM      3  N   UNL     1       0.345  -0.944   6.421  0.00  0.00    -0.124 NA
ATOM      4  N   UNL     1       0.761   0.261   6.604  0.00  0.00    -0.058 NA
ATOM      5  N   UNL     1       0.405   1.028   5.486  0.00  0.00    -0.194 N 
ATOM      6  C   UNL     1       0.674   2.386   5.285  0.00  0.00    +0.240 A 
ATOM      7  C   UNL     1       1.395   3.264   6.211  0.00  0.00    +0.206 A 
ATOM      8  N   UNL     1       1.452   4.457   5.686  0.00  0.00    -0.032 NA
ATOM      9  O   UNL     1       0.792   4.411   4.433  0.00  0.00    -0.239 OA
ATOM     10  N   UNL     1       0.333   3.084   4.239  0.00  0.00    -0.027 NA
ATOM     11  N   UNL     1       1.927   2.889   7.440  0.00  0.00    -0.337 N 
ATOM     12  H   UNL     1       1.834   1.975   7.750  0.00  0.00    +0.144 HD
ATOM     13  H   UNL     1       2.389   3.543   7.988  0.00  0.00    +0.144 HD
ENDROOT
BRANCH   2  14
ATOM     14  C   UNL     1      -0.896  -2.244   4.668  0.00  0.00    +0.285 C 
ATOM     15  O   UNL     1      -1.438  -2.201   3.580  0.00  0.00    -0.267 OA
ATOM     16  N   UNL     1      -0.856  -3.402   5.356  0.00  0.00    -0.202 N 
ATOM     17  H   UNL     1      -0.423  -3.436   6.223  0.00  0.00    +0.178 HD
BRANCH  16  18
ATOM     18  N   UNL     1      -1.439  -4.556   4.818  0.00  0.00    -0.187 NA
ATOM     19  C   UNL     1      -1.284  -5.702   5.415  0.00  0.00    +0.145 C 
BRANCH  19  20
ATOM     20  C   UNL     1      -0.358  -5.820   6.545  0.00  0.00    +0.033 A 
ATOM     21  C   UNL     1      -0.125  -6.905   7.373  0.00  0.00    +0.018 A 
ATOM     22  C   UNL     1       0.805  -6.773   8.377  0.00  0.00    +0.023 A 
ATOM     23  C   UNL     1       1.461  -5.591   8.526  0.00  0.00    +0.055 A 
ATOM     24  S   UNL     1       0.769  -4.604   7.209  0.00  0.00    -0.080 S 
ATOM     25 BR   UNL     1       2.775  -5.116   9.799  0.00  0.00    -0.043 Br
ENDBRANCH  19  20
ENDBRANCH  16  18
ENDBRANCH   2  14
BRANCH   1  26
ATOM     26  C   UNL     1      -0.837   0.568   3.301  0.00  0.00    -0.019 C 
BRANCH  26  33
ATOM     27  C   UNL     1      -0.766   2.295   1.088  0.00  0.00    -0.013 C 
ATOM     28  C   UNL     1      -0.356   0.826   0.967  0.00  0.00    -0.071 C 
ATOM     29  C   UNL     1       0.720   0.685  -0.112  0.00  0.00    -0.016 C 
ATOM     30  C   UNL     1       1.126  -0.787  -0.230  0.00  0.00    -0.003 C 
ATOM     31  C   UNL     1       1.605  -1.286   1.137  0.00  0.00    -0.019 C 
ATOM     32  C   UNL     1       0.496  -1.071   2.169  0.00  0.00    -0.078 C 
ATOM     33  N   UNL     1       0.172   0.358   2.254  0.00  0.00    +0.385 N 
ATOM     34  H   UNL     1       1.005   0.878   2.483  0.00  0.00    -0.081 HD
ENDBRANCH  26  33
ENDBRANCH   1  26
TORSDOF 5
