REMARK  Name = ZINC01776001
REMARK  4 active torsions:
REMARK  status: ('A' for Active; 'I' for Inactive)
REMARK    1  A    between atoms: C_11  and  O_28
REMARK    2  A    between atoms: C_12  and  C_19
REMARK    3  A    between atoms: C_13  and  C_15
REMARK    4  A    between atoms: N_20  and  C_21
REMARK                            x       y       z     vdW  Elec       q    Type
REMARK                         _______ _______ _______ _____ _____    ______ ____
ROOT
ATOM      1  C   UNL     1      -0.017   1.366   0.010  0.00  0.00    +0.002 A 
ATOM      2  C   UNL     1       1.157   2.107   0.002  0.00  0.00    +0.001 A 
ATOM      3  C   UNL     1       2.373   1.450  -0.013  0.00  0.00    +0.017 A 
ATOM      4  C   UNL     1       2.402   0.078  -0.021  0.00  0.00    +0.041 A 
ATOM      5  C   UNL     1       1.228  -0.710  -0.013  0.00  0.00    +0.081 A 
ATOM      6  C   UNL     1       0.002  -0.004   0.002  0.00  0.00    +0.029 A 
ATOM      7  N   UNL     1       1.420  -2.046  -0.023  0.00  0.00    -0.221 NA
ATOM      8  C   UNL     1       2.615  -2.587  -0.037  0.00  0.00    +0.198 A 
ATOM      9  S   UNL     1       3.683  -1.153  -0.039  0.00  0.00    -0.048 S 
ATOM     10  N   UNL     1       2.963  -3.933  -0.048  0.00  0.00    -0.175 N 
ATOM     11  C   UNL     1       4.223  -4.424  -0.057  0.00  0.00    +0.227 A 
ATOM     12  C   UNL     1       4.123  -5.809  -0.065  0.00  0.00    +0.084 A 
ATOM     13  C   UNL     1       2.744  -6.125  -0.060  0.00  0.00    +0.178 A 
ATOM     14  N   UNL     1       2.069  -5.009  -0.044  0.00  0.00    -0.157 NA
ENDROOT
BRANCH  13  15
ATOM     15  C   UNL     1       2.155  -7.512  -0.066  0.00  0.00    +0.437 C 
ATOM     16  F   UNL     1       1.980  -7.950   1.251  0.00  0.00    -0.164 F 
ATOM     17  F   UNL     1       0.918  -7.492  -0.719  0.00  0.00    -0.164 F 
ATOM     18  F   UNL     1       3.022  -8.383  -0.735  0.00  0.00    -0.164 F 
ENDBRANCH  13  15
BRANCH  12  19
ATOM     19  C   UNL     1       5.238  -6.766  -0.077  0.00  0.00    +0.093 C 
ATOM     20  N   UNL     1       6.461  -6.336  -0.081  0.00  0.00    -0.387 N 
ATOM     21  H   UNL     1       6.640  -5.382  -0.075  0.00  0.00    +0.159 HD
BRANCH  20  22
ATOM     22  C   UNL     1       7.573  -7.290  -0.093  0.00  0.00    +0.079 C 
ATOM     23  C   UNL     1       8.425  -7.057  -1.311  0.00  0.00    +0.024 C 
ATOM     24  C   UNL     1       9.027  -8.362  -1.867  0.00  0.00    +0.002 C 
ATOM     25  C   UNL     1       9.541  -9.302  -0.759  0.00  0.00    +0.000 C 
ATOM     26  C   UNL     1      10.270  -8.563   0.331  0.00  0.00    +0.000 C 
ATOM     27  C   UNL     1       9.270  -8.246   1.461  0.00  0.00    +0.002 C 
ATOM     28  C   UNL     1       8.446  -7.084   1.162  0.00  0.00    +0.024 C 
ENDBRANCH  20  22
ENDBRANCH  12  19
BRANCH  11  29
ATOM     29  O   UNL     1       5.368  -3.701  -0.059  0.00  0.00    -0.492 OA
ATOM     30  H   UNL     1       5.706  -3.497   0.824  0.00  0.00    +0.294 HD
ENDBRANCH  11  29
TORSDOF 4
