REMARK  Name = ZINC40815421
REMARK  9 active torsions:
REMARK  status: ('A' for Active; 'I' for Inactive)
REMARK    1  A    between atoms: C_1  and  C_2
REMARK    2  A    between atoms: C_6  and  C_7
REMARK    3  A    between atoms: N_9  and  C_10
REMARK    4  A    between atoms: N_9  and  C_11
REMARK    5  A    between atoms: N_14  and  C_17
REMARK    6  A    between atoms: N_22  and  N_23
REMARK    7  A    between atoms: C_24  and  C_26
REMARK    8  A    between atoms: C_26  and  C_27
REMARK    9  A    between atoms: C_26  and  C_33
REMARK                            x       y       z     vdW  Elec       q    Type
REMARK                         _______ _______ _______ _____ _____    ______ ____
ROOT
ATOM      1  C   UNL     1       0.992   1.695   1.039  0.00  0.00    +0.048 C 
ATOM      2  C   UNL     1       0.851   0.206   1.230  0.00  0.00    +0.009 A 
ATOM      3  C   UNL     1       0.911  -0.778   0.236  0.00  0.00    +0.042 A 
ATOM      4  C   UNL     1       0.733  -1.995   0.850  0.00  0.00    +0.115 A 
ATOM      5  O   UNL     1       0.574  -1.780   2.153  0.00  0.00    -0.454 OA
ATOM      6  C   UNL     1       0.646  -0.454   2.409  0.00  0.00    +0.193 A 
ATOM      7  C   UNL     1       0.729  -3.301   0.096  0.00  0.00    +0.075 C 
ATOM      8  C   UNL     1       0.432  -3.034  -1.382  0.00  0.00    +0.014 C 
ATOM      9  C   UNL     1       1.389  -1.977  -1.944  0.00  0.00    +0.058 C 
ATOM     10  C   UNL     1       1.122  -0.663  -1.224  0.00  0.00    +0.070 C 
ATOM     11  N   UNL     1       1.082   0.475  -1.846  0.00  0.00    -0.184 NA
ENDROOT
BRANCH   6  12
ATOM     12  C   UNL     1       0.520   0.172   3.731  0.00  0.00    +0.282 C 
ATOM     13  O   UNL     1       0.730   1.363   3.863  0.00  0.00    -0.267 OA
ATOM     14  N   UNL     1       0.172  -0.573   4.799  0.00  0.00    -0.295 N 
ATOM     15  C   UNL     1      -0.007  -2.020   4.655  0.00  0.00    +0.132 C 
BRANCH  14  16
ATOM     16  C   UNL     1      -0.027   0.064   6.103  0.00  0.00    +0.073 C 
ATOM     17  C   UNL     1       0.945  -0.539   7.121  0.00  0.00    +0.004 C 
ATOM     18  C   UNL     1       0.678   0.074   8.497  0.00  0.00    -0.077 C 
ATOM     19  N   UNL     1      -0.701  -0.215   8.906  0.00  0.00    +0.378 N 
ATOM     20  C   UNL     1      -1.640   0.420   7.974  0.00  0.00    -0.077 C 
ATOM     21  C   UNL     1      -1.463  -0.179   6.577  0.00  0.00    +0.004 C 
ATOM     22  C   UNL     1      -0.929   0.307  10.260  0.00  0.00    -0.096 C 
ATOM     23  H   UNL     1      -0.850  -1.213   8.903  0.00  0.00    -0.082 HD
ENDBRANCH  14  16
ENDBRANCH   6  12
BRANCH  11  24
ATOM     24  N   UNL     1       1.288   0.525  -3.231  0.00  0.00    -0.206 N 
ATOM     25  C   UNL     1       1.247   1.707  -3.876  0.00  0.00    +0.244 C 
ATOM     26  O   UNL     1       1.030   2.728  -3.258  0.00  0.00    -0.273 OA
ATOM     27  H   UNL     1       1.461  -0.292  -3.725  0.00  0.00    +0.177 HD
BRANCH  25  28
ATOM     28  C   UNL     1       1.469   1.760  -5.366  0.00  0.00    +0.136 C 
BRANCH  28  29
ATOM     29  C   UNL     1       1.372   3.188  -5.838  0.00  0.00    -0.031 A 
ATOM     30  C   UNL     1       0.508   3.519  -6.865  0.00  0.00    +0.005 A 
ATOM     31  C   UNL     1       0.419   4.829  -7.298  0.00  0.00    +0.000 A 
ATOM     32  C   UNL     1       1.192   5.808  -6.703  0.00  0.00    +0.000 A 
ATOM     33  C   UNL     1       2.055   5.477  -5.675  0.00  0.00    +0.000 A 
ATOM     34  C   UNL     1       2.142   4.168  -5.239  0.00  0.00    +0.005 A 
ENDBRANCH  28  29
BRANCH  28  35
ATOM     35  C   UNL     1       2.837   1.217  -5.689  0.00  0.00    -0.031 A 
ATOM     36  C   UNL     1       3.949   1.703  -5.027  0.00  0.00    +0.005 A 
ATOM     37  C   UNL     1       5.203   1.205  -5.324  0.00  0.00    +0.000 A 
ATOM     38  C   UNL     1       5.346   0.219  -6.282  0.00  0.00    +0.000 A 
ATOM     39  C   UNL     1       4.235  -0.268  -6.944  0.00  0.00    +0.000 A 
ATOM     40  C   UNL     1       2.980   0.227  -6.644  0.00  0.00    +0.005 A 
ENDBRANCH  28  35
ENDBRANCH  25  28
ENDBRANCH  11  24
TORSDOF 6
