REMARK  Name = ZINC32837375
REMARK  5 active torsions:
REMARK  status: ('A' for Active; 'I' for Inactive)
REMARK    1  A    between atoms: C_1  and  C_2
REMARK    2  A    between atoms: N_4  and  C_5
REMARK    3  A    between atoms: C_5  and  C_6
REMARK    4  A    between atoms: C_9  and  C_11
REMARK    5  A    between atoms: C_17  and  C_19
REMARK                            x       y       z     vdW  Elec       q    Type
REMARK                         _______ _______ _______ _____ _____    ______ ____
ROOT
ATOM      1  C   UNL     1      -3.486   1.998   0.453  0.00  0.00    +0.115 A 
ATOM      2  C   UNL     1      -3.311   3.331   0.191  0.00  0.00    +0.080 A 
ATOM      3  S   UNL     1      -1.536   3.400  -0.010  0.00  0.00    -0.060 S 
ATOM      4  C   UNL     1      -1.209   1.665   0.263  0.00  0.00    +0.165 A 
ATOM      5  N   UNL     1      -2.423   1.197   0.481  0.00  0.00    -0.221 NA
ATOM      6  N   UNL     1       0.004   0.987   0.253  0.00  0.00    -0.264 N 
ATOM      7  C   UNL     1       1.147   1.655   0.000  0.00  0.00    +0.222 C 
ATOM      8  O   UNL     1       1.117   2.849  -0.215  0.00  0.00    -0.275 OA
ATOM      9  H   UNL     1       0.032  -0.094   0.452  0.00  0.00    +0.157 HD
ENDROOT
BRANCH   7  10
ATOM     10  C   UNL     1       2.462   0.920  -0.017  0.00  0.00    +0.079 C 
ATOM     11  C   UNL     1       3.536   1.753  -0.752  0.00  0.00    +0.016 C 
ATOM     12  C   UNL     1       4.635   2.016   0.323  0.00  0.00    -0.010 C 
ATOM     13  C   UNL     1       3.974   3.017   1.320  0.00  0.00    +0.004 C 
ATOM     14  C   UNL     1       2.899   2.183   2.055  0.00  0.00    +0.004 C 
ATOM     15  C   UNL     1       3.012   0.758   1.433  0.00  0.00    +0.001 C 
ATOM     16  C   UNL     1       4.555   0.686   1.152  0.00  0.00    +0.008 C 
ENDBRANCH   7  10
BRANCH   1  20
ATOM     17  C   UNL     1      -7.016   1.339   0.959  0.00  0.00    +0.123 A 
ATOM     18  C   UNL     1      -6.540   0.092   1.135  0.00  0.00    +0.047 A 
ATOM     19  C   UNL     1      -5.141   0.157   0.964  0.00  0.00    +0.052 A 
ATOM     20  C   UNL     1      -4.838   1.456   0.700  0.00  0.00    +0.154 A 
ATOM     21  O   UNL     1      -5.986   2.161   0.697  0.00  0.00    -0.457 OA
BRANCH  17  22
ATOM     22  C   UNL     1      -8.465   1.746   1.044  0.00  0.00    +0.178 C 
BRANCH  22  26
ATOM     23  C   UNL     1     -10.363   2.916   4.156  0.00  0.00    +0.109 C 
ATOM     24  C   UNL     1     -10.033   2.527   2.738  0.00  0.00    +0.210 C 
ATOM     25  O   UNL     1     -10.890   2.575   1.881  0.00  0.00    -0.276 OA
ATOM     26  N   UNL     1      -8.786   2.125   2.422  0.00  0.00    -0.308 N 
ATOM     27  H   UNL     1      -8.009   2.081   3.200  0.00  0.00    +0.149 HD
ENDBRANCH  22  26
ENDBRANCH  17  22
ENDBRANCH   1  20
TORSDOF 4
