REMARK  Name = ZINC00933764
REMARK  10 active torsions:
REMARK  status: ('A' for Active; 'I' for Inactive)
REMARK    1  A    between atoms: C_3  and  C_6
REMARK    2  A    between atoms: C_6  and  N_7
REMARK    3  A    between atoms: N_7  and  C_8
REMARK    4  A    between atoms: N_7  and  S_16
REMARK    5  A    between atoms: C_8  and  C_9
REMARK    6  A    between atoms: S_16  and  C_19
REMARK    7  A    between atoms: C_22  and  S_25
REMARK    8  A    between atoms: S_25  and  N_28
REMARK    9  A    between atoms: N_28  and  C_29
REMARK   10  A    between atoms: C_29  and  C_30
REMARK                            x       y       z     vdW  Elec       q    Type
REMARK                         _______ _______ _______ _____ _____    ______ ____
ROOT
ATOM      1  S   UNL     1       3.967   2.342  -0.005  0.00  0.00    +0.061 S 
ATOM      2  O   UNL     1       3.981   3.668   0.506  0.00  0.00    -0.153 OA
ATOM      3  O   UNL     1       4.768   1.305   0.545  0.00  0.00    -0.153 OA
ENDROOT
BRANCH   1   4
ATOM      4  C   UNL     1       2.297   1.788   0.077  0.00  0.00    +0.106 A 
ATOM      5  C   UNL     1       1.261   2.698  -0.011  0.00  0.00    +0.030 A 
ATOM      6  C   UNL     1      -0.050   2.263   0.053  0.00  0.00    +0.030 A 
ATOM      7  C   UNL     1      -0.324   0.917   0.208  0.00  0.00    +0.105 A 
ATOM      8  C   UNL     1       0.712   0.006   0.299  0.00  0.00    +0.030 A 
ATOM      9  C   UNL     1       2.023   0.442   0.234  0.00  0.00    +0.030 A 
BRANCH   7  10
ATOM     10  S   UNL     1      -1.994   0.362   0.291  0.00  0.00    +0.058 S 
ATOM     11  O   UNL     1      -1.976  -0.878   0.985  0.00  0.00    -0.153 OA
ATOM     12  O   UNL     1      -2.769   1.470   0.730  0.00  0.00    -0.153 OA
BRANCH  10  13
ATOM     13  N   UNL     1      -2.477   0.031  -1.258  0.00  0.00    -0.187 NA
ATOM     14  H   UNL     1      -3.181   0.556  -1.669  0.00  0.00    +0.148 HD
BRANCH  13  15
ATOM     15  C   UNL     1      -1.842  -1.056  -2.007  0.00  0.00    +0.137 C 
BRANCH  15  16
ATOM     16  C   UNL     1      -2.694  -1.399  -3.230  0.00  0.00    +0.134 C 
ATOM     17  C   UNL     1      -2.109  -2.625  -3.966  0.00  0.00    +0.035 C 
ATOM     18  C   UNL     1      -2.334  -2.308  -5.462  0.00  0.00    +0.031 C 
ATOM     19  C   UNL     1      -3.028  -0.928  -5.452  0.00  0.00    +0.160 C 
ATOM     20  O   UNL     1      -2.639  -0.328  -4.197  0.00  0.00    -0.375 OA
ENDBRANCH  15  16
ENDBRANCH  13  15
ENDBRANCH  10  13
ENDBRANCH   7  10
ENDBRANCH   1   4
BRANCH   1  21
ATOM     21  N   UNL     1       4.369   2.450  -1.609  0.00  0.00    -0.167 NA
BRANCH  21  22
ATOM     22  C   UNL     1       5.070   1.343  -2.264  0.00  0.00    +0.152 C 
BRANCH  22  25
ATOM     23  C   UNL     1       2.660  -0.428  -4.624  0.00  0.00    +0.008 A 
ATOM     24  C   UNL     1       3.581   0.516  -4.208  0.00  0.00    +0.012 A 
ATOM     25  C   UNL     1       4.068   0.446  -2.945  0.00  0.00    +0.005 A 
ATOM     26  S   UNL     1       3.209  -0.978  -2.295  0.00  0.00    -0.100 S 
ATOM     27  C   UNL     1       2.264  -1.389  -3.753  0.00  0.00    +0.045 A 
ENDBRANCH  22  25
ENDBRANCH  21  22
BRANCH  21  28
ATOM     28  C   UNL     1       4.022   3.651  -2.371  0.00  0.00    +0.145 C 
BRANCH  28  29
ATOM     29  C   UNL     1       5.212   4.576  -2.419  0.00  0.00    -0.032 A 
ATOM     30  C   UNL     1       5.325   5.603  -1.500  0.00  0.00    +0.006 A 
ATOM     31  C   UNL     1       6.418   6.448  -1.540  0.00  0.00    +0.020 A 
ATOM     32  C   UNL     1       7.393   6.273  -2.506  0.00  0.00    +0.041 A 
ATOM     33  C   UNL     1       7.276   5.249  -3.428  0.00  0.00    +0.020 A 
ATOM     34  C   UNL     1       6.185   4.401  -3.384  0.00  0.00    +0.006 A 
ATOM     35 CL   UNL     1       8.763   7.338  -2.560  0.00  0.00    -0.084 Cl
ENDBRANCH  28  29
ENDBRANCH  21  28
ENDBRANCH   1  21
TORSDOF 10
