REMARK  Name = ZINC32587018
REMARK  12 active torsions:
REMARK  status: ('A' for Active; 'I' for Inactive)
REMARK    1  A    between atoms: C_1  and  C_2
REMARK    2  A    between atoms: C_2  and  C_3
REMARK    3  A    between atoms: C_2  and  C_4
REMARK    4  A    between atoms: C_4  and  N_5
REMARK    5  A    between atoms: C_7  and  N_26
REMARK    6  A    between atoms: C_10  and  C_12
REMARK    7  A    between atoms: N_14  and  C_15
REMARK    8  A    between atoms: C_15  and  C_16
REMARK    9  A    between atoms: C_16  and  C_17
REMARK   10  A    between atoms: N_26  and  C_27
REMARK   11  A    between atoms: C_27  and  C_28
REMARK   12  A    between atoms: C_31  and  C_34
REMARK                            x       y       z     vdW  Elec       q    Type
REMARK                         _______ _______ _______ _____ _____    ______ ____
ROOT
ATOM      1  N   UNL     1      -2.024  -0.360  -1.327  0.00  0.00    +0.389 N 
ATOM      2  C   UNL     1      -2.169   1.101  -1.502  0.00  0.00    -0.059 C 
ATOM      3  C   UNL     1      -3.516   1.278  -2.247  0.00  0.00    +0.036 C 
ATOM      4  C   UNL     1      -4.381   0.165  -1.599  0.00  0.00    +0.010 C 
ATOM      5  C   UNL     1      -3.364  -0.973  -1.365  0.00  0.00    +0.021 C 
ATOM      6  H   UNL     1      -1.458  -0.735  -2.073  0.00  0.00    -0.081 HD
ENDROOT
BRANCH   5   7
ATOM      7  C   UNL     1      -3.441  -1.969  -2.493  0.00  0.00    +0.200 C 
ATOM      8  O   UNL     1      -2.475  -2.157  -3.203  0.00  0.00    -0.278 OA
ATOM      9  N   UNL     1      -4.582  -2.651  -2.714  0.00  0.00    -0.316 N 
ATOM     10  H   UNL     1      -5.354  -2.501  -2.146  0.00  0.00    +0.149 HD
BRANCH   9  11
ATOM     11  C   UNL     1      -4.656  -3.619  -3.811  0.00  0.00    +0.109 C 
BRANCH  11  12
ATOM     12  C   UNL     1      -6.050  -4.249  -3.842  0.00  0.00    +0.054 C 
BRANCH  12  13
ATOM     13  C   UNL     1      -6.126  -5.245  -4.970  0.00  0.00    -0.042 A 
ATOM     14  C   UNL     1      -6.531  -4.835  -6.227  0.00  0.00    +0.007 A 
ATOM     15  C   UNL     1      -6.602  -5.744  -7.265  0.00  0.00    +0.050 A 
ATOM     16  C   UNL     1      -6.268  -7.071  -7.048  0.00  0.00    +0.166 A 
ATOM     17  C   UNL     1      -5.861  -7.485  -5.782  0.00  0.00    +0.166 A 
ATOM     18  C   UNL     1      -5.787  -6.567  -4.748  0.00  0.00    +0.053 A 
ATOM     19  O   UNL     1      -5.592  -8.823  -5.826  0.00  0.00    -0.453 OA
ATOM     20  C   UNL     1      -6.228  -9.304  -7.025  0.00  0.00    +0.466 C 
ATOM     21  O   UNL     1      -6.254  -8.149  -7.885  0.00  0.00    -0.453 OA
ENDBRANCH  12  13
ENDBRANCH  11  12
ENDBRANCH   9  11
ENDBRANCH   5   7
BRANCH   3  22
ATOM     22  N   UNL     1      -4.088   2.606  -1.990  0.00  0.00    -0.311 NA
ATOM     23  H   UNL     1      -4.568   2.628  -1.102  0.00  0.00    +0.122 HD
BRANCH  22  24
ATOM     24  C   UNL     1      -4.983   3.014  -3.081  0.00  0.00    +0.116 C 
BRANCH  24  25
ATOM     25  C   UNL     1      -5.550   4.378  -2.783  0.00  0.00    -0.034 A 
ATOM     26  C   UNL     1      -6.731   4.496  -2.074  0.00  0.00    +0.005 A 
ATOM     27  C   UNL     1      -7.251   5.747  -1.800  0.00  0.00    +0.012 A 
ATOM     28  C   UNL     1      -6.590   6.881  -2.236  0.00  0.00    +0.055 A 
ATOM     29  C   UNL     1      -5.408   6.763  -2.944  0.00  0.00    +0.012 A 
ATOM     30  C   UNL     1      -4.886   5.512  -3.213  0.00  0.00    +0.005 A 
BRANCH  28  31
ATOM     31  C   UNL     1      -7.157   8.245  -1.938  0.00  0.00    +0.417 C 
ATOM     32  F   UNL     1      -6.652   8.704  -0.717  0.00  0.00    -0.166 F 
ATOM     33  F   UNL     1      -6.793   9.133  -2.956  0.00  0.00    -0.166 F 
ATOM     34  F   UNL     1      -8.552   8.164  -1.866  0.00  0.00    -0.166 F 
ENDBRANCH  28  31
ENDBRANCH  24  25
ENDBRANCH  22  24
ENDBRANCH   3  22
BRANCH   1  35
ATOM     35  C   UNL     1      -1.388  -0.642  -0.033  0.00  0.00    -0.075 C 
BRANCH  35  37
ATOM     36  C   UNL     1       0.666  -0.285   1.343  0.00  0.00    +0.005 C 
ATOM     37  C   UNL     1       0.051  -0.122  -0.048  0.00  0.00    -0.034 C 
ATOM     38  C   UNL     1       0.870  -0.919  -1.065  0.00  0.00    +0.005 C 
ENDBRANCH  35  37
ENDBRANCH   1  35
TORSDOF 10
