REMARK  Name = ZINC09828953
REMARK  10 active torsions:
REMARK  status: ('A' for Active; 'I' for Inactive)
REMARK    1  A    between atoms: C_1  and  O_2
REMARK    2  A    between atoms: O_2  and  C_3
REMARK    3  A    between atoms: C_6  and  N_9
REMARK    4  A    between atoms: C_14  and  C_16
REMARK    5  A    between atoms: C_14  and  C_31
REMARK    6  A    between atoms: C_14  and  N_64
REMARK    7  A    between atoms: C_16  and  N_17
REMARK    8  A    between atoms: C_18  and  C_20
REMARK    9  A    between atoms: N_22  and  C_23
REMARK   10  A    between atoms: C_23  and  C_24
REMARK                            x       y       z     vdW  Elec       q    Type
REMARK                         _______ _______ _______ _____ _____    ______ ____
ROOT
ATOM      1  C   UNL     1       3.501   2.017   1.237  0.00  0.00    +0.017 C 
ENDROOT
BRANCH   1   7
ATOM      2  N   UNL     1       0.042  -0.100   0.052  0.00  0.00    -0.333 N 
ATOM      3  C   UNL     1      -0.045   1.364   0.144  0.00  0.00    +0.086 C 
ATOM      4  C   UNL     1       1.365   1.960   0.097  0.00  0.00    -0.059 C 
ATOM      5  C   UNL     1       2.249  -0.053   1.111  0.00  0.00    -0.059 C 
ATOM      6  C   UNL     1       0.839  -0.648   1.158  0.00  0.00    +0.086 C 
ATOM      7  N   UNL     1       2.149   1.417   1.226  0.00  0.00    +0.389 N 
ATOM      8  H   UNL     1       1.673   1.651   2.106  0.00  0.00    -0.081 HD
BRANCH   2  12
ATOM      9  C   UNL     1      -3.756  -1.817  -0.044  0.00  0.00    +0.120 A 
ATOM     10  C   UNL     1      -2.628  -2.623  -0.099  0.00  0.00    +0.047 A 
ATOM     11  C   UNL     1      -1.370  -2.055  -0.067  0.00  0.00    +0.027 A 
ATOM     12  C   UNL     1      -1.233  -0.676   0.019  0.00  0.00    +0.030 A 
ATOM     13  C   UNL     1      -2.362   0.130   0.079  0.00  0.00    +0.027 A 
ATOM     14  C   UNL     1      -3.620  -0.439   0.041  0.00  0.00    +0.047 A 
BRANCH   9  16
ATOM     15  C   UNL     1      -6.111  -1.486  -0.016  0.00  0.00    +0.277 C 
ATOM     16  O   UNL     1      -4.994  -2.377  -0.076  0.00  0.00    -0.495 OA
ENDBRANCH   9  16
ENDBRANCH   2  12
ENDBRANCH   1   7
BRANCH   1  17
ATOM     17  C   UNL     1       4.248   1.653  -0.020  0.00  0.00    +0.093 A 
ATOM     18  C   UNL     1       5.509   1.186  -0.079  0.00  0.00    +0.043 A 
ATOM     19  C   UNL     1       5.805   0.978  -1.445  0.00  0.00    +0.041 A 
ATOM     20  C   UNL     1       4.712   1.337  -2.140  0.00  0.00    +0.195 A 
ATOM     21  O   UNL     1       3.772   1.746  -1.272  0.00  0.00    -0.469 OA
ENDBRANCH   1  17
BRANCH   1  22
ATOM     22  C   UNL     1       3.370   3.538   1.331  0.00  0.00    +0.097 C 
BRANCH  22  23
ATOM     23  N   UNL     1       2.542   3.887   2.487  0.00  0.00    -0.309 N 
ATOM     24  C   UNL     1       2.288   5.180   2.769  0.00  0.00    +0.299 C 
ATOM     25  O   UNL     1       2.747   6.056   2.065  0.00  0.00    -0.265 OA
ATOM     26  H   UNL     1       2.175   3.187   3.050  0.00  0.00    +0.149 HD
BRANCH  24  27
ATOM     27  C   UNL     1       1.443   5.536   3.950  0.00  0.00    +0.299 C 
ATOM     28  O   UNL     1       0.985   4.660   4.654  0.00  0.00    -0.265 OA
ATOM     29  N   UNL     1       1.190   6.829   4.232  0.00  0.00    -0.303 N 
ATOM     30  H   UNL     1       1.556   7.529   3.669  0.00  0.00    +0.149 HD
BRANCH  29  31
ATOM     31  C   UNL     1       0.362   7.178   5.389  0.00  0.00    +0.140 C 
BRANCH  31  32
ATOM     32  C   UNL     1       0.233   8.677   5.481  0.00  0.00    -0.030 A 
ATOM     33  C   UNL     1       1.150   9.405   6.216  0.00  0.00    +0.006 A 
ATOM     34  C   UNL     1       1.036  10.780   6.297  0.00  0.00    +0.020 A 
ATOM     35  C   UNL     1      -0.003  11.426   5.651  0.00  0.00    +0.041 A 
ATOM     36  C   UNL     1      -0.923  10.697   4.919  0.00  0.00    +0.020 A 
ATOM     37  C   UNL     1      -0.805   9.322   4.835  0.00  0.00    +0.006 A 
ATOM     38 CL   UNL     1      -0.150  13.153   5.756  0.00  0.00    -0.084 Cl
ENDBRANCH  31  32
ENDBRANCH  29  31
ENDBRANCH  24  27
ENDBRANCH  22  23
ENDBRANCH   1  22
TORSDOF 9
