REMARK  Name = ZINC25323786
REMARK  3 active torsions:
REMARK  status: ('A' for Active; 'I' for Inactive)
REMARK    1  A    between atoms: C_1  and  C_2
REMARK    2  A    between atoms: C_12  and  C_14
REMARK    3  A    between atoms: C_21  and  C_23
REMARK                            x       y       z     vdW  Elec       q    Type
REMARK                         _______ _______ _______ _____ _____    ______ ____
ROOT
ATOM      1  C   UNL     1       7.032  15.878   1.018  0.00  0.00    +0.044 C 
ATOM      2  C   UNL     1       6.055  14.732   1.073  0.00  0.00    -0.049 A 
ATOM      3  C   UNL     1       4.690  14.977   1.111  0.00  0.00    +0.005 A 
ATOM      4  C   UNL     1       3.780  13.953   1.161  0.00  0.00    +0.029 A 
ATOM      5  C   UNL     1       4.209  12.606   1.177  0.00  0.00    +0.080 A 
ATOM      6  C   UNL     1       5.606  12.395   1.137  0.00  0.00    +0.041 A 
ATOM      7  C   UNL     1       6.510  13.427   1.086  0.00  0.00    +0.020 A 
ATOM      8  S   UNL     1       5.722  10.622   1.171  0.00  0.00    -0.052 S 
ATOM      9  C   UNL     1       3.968  10.284   1.233  0.00  0.00    +0.165 A 
ATOM     10  N   UNL     1       3.450  11.490   1.219  0.00  0.00    -0.225 NA
ATOM     11  N   UNL     1       3.321   9.060   1.279  0.00  0.00    -0.264 N 
ATOM     12  C   UNL     1       1.974   9.011   1.323  0.00  0.00    +0.223 C 
ATOM     13  O   UNL     1       1.330  10.039   1.323  0.00  0.00    -0.275 OA
ATOM     14  H   UNL     1       3.905   8.128   1.280  0.00  0.00    +0.157 HD
ENDROOT
BRANCH  12  15
ATOM     15  C   UNL     1       1.270   7.680   1.373  0.00  0.00    +0.093 C 
ATOM     16  C   UNL     1      -0.243   7.904   1.413  0.00  0.00    +0.016 C 
ATOM     17  C   UNL     1      -0.959   6.554   1.496  0.00  0.00    +0.020 C 
ATOM     18  C   UNL     1      -0.626   5.726   0.246  0.00  0.00    +0.108 C 
ATOM     19  N   UNL     1       0.836   5.628   0.126  0.00  0.00    -0.294 N 
ATOM     20  C   UNL     1       1.629   6.864   0.127  0.00  0.00    +0.121 C 
ATOM     21  C   UNL     1       1.436   4.427   0.012  0.00  0.00    +0.282 C 
ATOM     22  O   UNL     1       0.764   3.419  -0.106  0.00  0.00    -0.267 OA
BRANCH  21  23
ATOM     23  C   UNL     1       2.900   4.334   0.031  0.00  0.00    +0.189 A 
ATOM     24  C   UNL     1       3.635   3.208  -0.205  0.00  0.00    +0.054 A 
ATOM     25  C   UNL     1       4.985   3.575  -0.085  0.00  0.00    +0.042 A 
ATOM     26  C   UNL     1       5.013   4.891   0.220  0.00  0.00    +0.196 A 
ATOM     27  O   UNL     1       3.755   5.346   0.283  0.00  0.00    -0.458 OA
ENDBRANCH  21  23
ENDBRANCH  12  15
TORSDOF 2
