REMARK  Name = ZINC14246436
REMARK  6 active torsions:
REMARK  status: ('A' for Active; 'I' for Inactive)
REMARK    1  A    between atoms: C_1  and  O_2
REMARK    2  A    between atoms: O_2  and  C_3
REMARK    3  A    between atoms: C_8  and  O_9
REMARK    4  A    between atoms: O_9  and  C_10
REMARK    5  A    between atoms: C_11  and  C_30
REMARK    6  A    between atoms: C_16  and  C_18
REMARK                            x       y       z     vdW  Elec       q    Type
REMARK                         _______ _______ _______ _____ _____    ______ ____
ROOT
ATOM      1  C   UNL     1       3.386   4.219   0.237  0.00  0.00    +0.162 A 
ATOM      2  C   UNL     1       2.569   4.174  -0.877  0.00  0.00    +0.053 A 
ATOM      3  C   UNL     1       1.520   3.265  -0.949  0.00  0.00    -0.037 A 
ATOM      4  C   UNL     1       1.300   2.393   0.095  0.00  0.00    -0.015 A 
ATOM      5  C   UNL     1       2.116   2.437   1.218  0.00  0.00    +0.055 A 
ATOM      6  C   UNL     1       3.156   3.345   1.296  0.00  0.00    +0.162 A 
ATOM      7  C   UNL     1       0.192   1.371   0.072  0.00  0.00    +0.144 C 
ATOM      8  N   UNL     1      -0.718   1.653  -1.043  0.00  0.00    -0.284 N 
ATOM      9  C   UNL     1      -0.110   1.984  -2.343  0.00  0.00    +0.114 C 
ATOM     10  C   UNL     1       0.656   3.295  -2.183  0.00  0.00    +0.054 C 
ATOM     11  C   UNL     1      -2.055   1.609  -0.885  0.00  0.00    +0.268 C 
ATOM     12  O   UNL     1      -2.532   1.459   0.223  0.00  0.00    -0.268 OA
ENDROOT
BRANCH  11  13
ATOM     13  C   UNL     1      -2.942   1.745  -2.058  0.00  0.00    +0.154 A 
ATOM     14  C   UNL     1      -4.339   2.175  -1.889  0.00  0.00    +0.020 A 
ATOM     15  C   UNL     1      -4.889   2.481  -0.649  0.00  0.00    +0.011 A 
ATOM     16  C   UNL     1      -6.206   2.883  -0.573  0.00  0.00    +0.001 A 
ATOM     17  C   UNL     1      -6.984   2.989  -1.718  0.00  0.00    +0.001 A 
ATOM     18  C   UNL     1      -6.458   2.695  -2.958  0.00  0.00    +0.014 A 
ATOM     19  C   UNL     1      -5.131   2.288  -3.056  0.00  0.00    +0.050 A 
ATOM     20  C   UNL     1      -4.490   1.956  -4.336  0.00  0.00    +0.272 A 
ATOM     21  O   UNL     1      -5.112   2.025  -5.380  0.00  0.00    -0.266 OA
ATOM     22  N   UNL     1      -3.198   1.570  -4.327  0.00  0.00    -0.242 N 
ATOM     23  H   UNL     1      -2.778   1.352  -5.173  0.00  0.00    +0.192 HD
ATOM     24  N   UNL     1      -2.496   1.478  -3.261  0.00  0.00    -0.166 NA
ENDBRANCH  11  13
BRANCH   7  25
ATOM     25  C   UNL     1      -0.573   1.433   1.369  0.00  0.00    +0.015 A 
ATOM     26  C   UNL     1      -0.716   0.479   2.322  0.00  0.00    +0.013 A 
ATOM     27  C   UNL     1      -1.470   0.762   3.446  0.00  0.00    +0.008 A 
ATOM     28  C   UNL     1      -2.054   1.980   3.556  0.00  0.00    +0.045 A 
ATOM     29  S   UNL     1      -1.534   2.777   2.046  0.00  0.00    -0.099 S 
ENDBRANCH   7  25
BRANCH   1  31
ATOM     30  C   UNL     1       4.583   5.978  -0.825  0.00  0.00    +0.277 C 
ATOM     31  O   UNL     1       4.409   5.112   0.299  0.00  0.00    -0.491 OA
ENDBRANCH   1  31
BRANCH   6  32
ATOM     32  O   UNL     1       3.950   3.382   2.399  0.00  0.00    -0.491 OA
ATOM     33  C   UNL     1       3.654   2.454   3.444  0.00  0.00    +0.277 C 
ENDBRANCH   6  32
TORSDOF 4
