REMARK  Name = ZINC36547853
REMARK  10 active torsions:
REMARK  status: ('A' for Active; 'I' for Inactive)
REMARK    1  A    between atoms: C_1  and  C_2
REMARK    2  A    between atoms: C_5  and  S_8
REMARK    3  A    between atoms: S_8  and  C_11
REMARK    4  A    between atoms: C_11  and  N_12
REMARK    5  A    between atoms: C_13  and  C_15
REMARK    6  A    between atoms: C_15  and  C_17
REMARK    7  A    between atoms: C_15  and  N_24
REMARK    8  A    between atoms: N_24  and  C_25
REMARK    9  A    between atoms: C_32  and  C_34
REMARK   10  A    between atoms: C_34  and  O_35
REMARK                            x       y       z     vdW  Elec       q    Type
REMARK                         _______ _______ _______ _____ _____    ______ ____
ROOT
ATOM      1  C   UNL     1       3.159  -5.003   3.625  0.00  0.00    +0.197 C 
ENDROOT
BRANCH   1   2
ATOM      2  C   UNL     1       3.066  -3.582   4.120  0.00  0.00    -0.018 A 
ATOM      3  C   UNL     1       2.295  -3.286   5.229  0.00  0.00    +0.007 A 
ATOM      4  C   UNL     1       2.209  -1.984   5.683  0.00  0.00    +0.020 A 
ATOM      5  C   UNL     1       2.895  -0.976   5.028  0.00  0.00    +0.041 A 
ATOM      6  C   UNL     1       3.666  -1.273   3.918  0.00  0.00    +0.020 A 
ATOM      7  C   UNL     1       3.756  -2.577   3.468  0.00  0.00    +0.007 A 
ATOM      8 CL   UNL     1       2.787   0.660   5.598  0.00  0.00    -0.084 Cl
ENDBRANCH   1   2
BRANCH   1  10
ATOM      9  N   UNL     1       1.318  -5.518   2.055  0.00  0.00    -0.294 N 
ATOM     10  C   UNL     1       1.776  -5.521   3.323  0.00  0.00    +0.240 C 
ATOM     11  O   UNL     1       1.077  -5.941   4.220  0.00  0.00    -0.273 OA
ATOM     12  H   UNL     1       1.877  -5.183   1.338  0.00  0.00    +0.150 HD
BRANCH   9  13
ATOM     13  C   UNL     1      -0.026  -6.022   1.762  0.00  0.00    +0.278 C 
BRANCH  13  14
ATOM     14  S   UNL     1      -1.198  -4.638   1.730  0.00  0.00    +0.013 S 
ATOM     15  O   UNL     1      -1.005  -3.807   2.867  0.00  0.00    -0.168 OA
ATOM     16  O   UNL     1      -2.495  -5.102   1.384  0.00  0.00    -0.168 OA
BRANCH  14  21
ATOM     17  C   UNL     1       0.525  -1.252  -2.958  0.00  0.00    +0.044 C 
ATOM     18  C   UNL     1       0.095  -2.098  -1.787  0.00  0.00    -0.050 A 
ATOM     19  C   UNL     1      -0.824  -3.114  -1.969  0.00  0.00    +0.005 A 
ATOM     20  C   UNL     1      -1.219  -3.890  -0.895  0.00  0.00    +0.027 A 
ATOM     21  C   UNL     1      -0.694  -3.650   0.361  0.00  0.00    +0.090 A 
ATOM     22  C   UNL     1       0.226  -2.634   0.543  0.00  0.00    +0.027 A 
ATOM     23  C   UNL     1       0.624  -1.861  -0.532  0.00  0.00    +0.005 A 
ENDBRANCH  14  21
ENDBRANCH  13  14
ENDBRANCH   9  13
ENDBRANCH   1  10
BRANCH   1  24
ATOM     24  N   UNL     1       3.780  -5.839   4.655  0.00  0.00    -0.252 N 
ATOM     25  C   UNL     1       4.675  -6.784   4.306  0.00  0.00    +0.246 C 
ATOM     26  O   UNL     1       5.125  -7.534   5.147  0.00  0.00    -0.273 OA
BRANCH  24  27
ATOM     27  C   UNL     1       3.443  -5.657   6.001  0.00  0.00    +0.056 A 
ATOM     28  C   UNL     1       2.277  -6.215   6.509  0.00  0.00    +0.025 A 
ATOM     29  C   UNL     1       1.948  -6.034   7.838  0.00  0.00    +0.002 A 
ATOM     30  C   UNL     1       2.777  -5.296   8.663  0.00  0.00    +0.002 A 
ATOM     31  C   UNL     1       3.938  -4.738   8.162  0.00  0.00    +0.022 A 
ATOM     32  C   UNL     1       4.277  -4.921   6.834  0.00  0.00    +0.062 A 
ATOM     33 CL   UNL     1       5.739  -4.227   6.207  0.00  0.00    -0.082 Cl
ENDBRANCH  24  27
BRANCH  25  34
ATOM     34  C   UNL     1       5.118  -6.910   2.871  0.00  0.00    +0.252 C 
BRANCH  34  35
ATOM     35  O   UNL     1       5.988  -8.036   2.738  0.00  0.00    -0.386 OA
ATOM     36  H   UNL     1       6.313  -8.178   1.838  0.00  0.00    +0.210 HD
ENDBRANCH  34  35
ENDBRANCH  25  34
ENDBRANCH   1  24
TORSDOF 9
