REMARK  Name = ZINC08894456
REMARK  5 active torsions:
REMARK  status: ('A' for Active; 'I' for Inactive)
REMARK    1  A    between atoms: C_1  and  C_2
REMARK    2  A    between atoms: C_2  and  C_4
REMARK    3  A    between atoms: C_2  and  N_15
REMARK    4  A    between atoms: N_6  and  C_7
REMARK    5  A    between atoms: C_22  and  C_25
REMARK                            x       y       z     vdW  Elec       q    Type
REMARK                         _______ _______ _______ _____ _____    ______ ____
ROOT
ATOM      1  N   UNL     1      -2.641   7.876  -0.245  0.00  0.00    -0.287 N 
ATOM      2  C   UNL     1      -3.425   7.463  -1.274  0.00  0.00    +0.204 A 
ATOM      3  N   UNL     1      -4.665   7.858  -1.378  0.00  0.00    -0.230 NA
ATOM      4  C   UNL     1      -5.199   8.685  -0.483  0.00  0.00    +0.116 A 
ATOM      5  C   UNL     1      -4.463   9.169   0.612  0.00  0.00    +0.080 A 
ATOM      6  C   UNL     1      -3.109   8.713   0.699  0.00  0.00    +0.263 A 
ATOM      7  O   UNL     1      -2.391   9.077   1.614  0.00  0.00    -0.267 OA
ATOM      8  C   UNL     1      -5.194  10.066   1.499  0.00  0.00    +0.004 A 
ATOM      9  C   UNL     1      -6.485  10.357   1.212  0.00  0.00    +0.056 A 
ATOM     10  S   UNL     1      -6.795   9.434  -0.281  0.00  0.00    -0.076 S 
ENDROOT
BRANCH   8  11
ATOM     11  C   UNL     1      -4.536  10.648   2.693  0.00  0.00    -0.016 A 
ATOM     12  C   UNL     1      -3.850   9.825   3.585  0.00  0.00    +0.011 A 
ATOM     13  C   UNL     1      -3.235  10.372   4.692  0.00  0.00    +0.039 A 
ATOM     14  C   UNL     1      -3.308  11.736   4.924  0.00  0.00    +0.123 A 
ATOM     15  C   UNL     1      -3.992  12.558   4.043  0.00  0.00    +0.039 A 
ATOM     16  C   UNL     1      -4.605  12.020   2.930  0.00  0.00    +0.011 A 
ATOM     17  F   UNL     1      -2.709  12.267   6.012  0.00  0.00    -0.205 F 
ENDBRANCH   8  11
BRANCH   1  19
ATOM     18  C   UNL     1      -0.497   7.834  -1.421  0.00  0.00    +0.041 C 
ATOM     19  C   UNL     1      -1.256   7.405  -0.164  0.00  0.00    +0.174 C 
BRANCH  19  20
ATOM     20  C   UNL     1      -1.242   5.902  -0.058  0.00  0.00    +0.240 C 
ATOM     21  O   UNL     1      -2.286   5.284  -0.050  0.00  0.00    -0.273 OA
ATOM     22  N   UNL     1      -0.069   5.243   0.029  0.00  0.00    -0.284 N 
ATOM     23  H   UNL     1       0.762   5.739   0.091  0.00  0.00    +0.155 HD
BRANCH  22  24
ATOM     24  C   UNL     1      -0.051   3.844   0.030  0.00  0.00    +0.036 A 
ATOM     25  C   UNL     1      -1.073   3.135   0.647  0.00  0.00    +0.043 A 
ATOM     26  C   UNL     1      -1.053   1.753   0.647  0.00  0.00    +0.044 A 
ATOM     27  C   UNL     1      -0.014   1.076   0.034  0.00  0.00    +0.040 A 
ATOM     28  C   UNL     1       1.010   1.780  -0.577  0.00  0.00    +0.044 A 
ATOM     29  C   UNL     1       0.991   3.162  -0.585  0.00  0.00    +0.043 A 
ATOM     30 CL   UNL     1       2.315   0.926  -1.338  0.00  0.00    -0.083 Cl
ATOM     31 CL   UNL     1      -2.331   0.867   1.418  0.00  0.00    -0.083 Cl
ENDBRANCH  22  24
ENDBRANCH  19  20
ENDBRANCH   1  19
TORSDOF 4
