REMARK  Name = ZINC13495951
REMARK  15 active torsions:
REMARK  status: ('A' for Active; 'I' for Inactive)
REMARK    1  A    between atoms: C_1  and  C_2
REMARK    2  A    between atoms: C_2  and  C_3
REMARK    3  A    between atoms: C_3  and  C_5
REMARK    4  A    between atoms: C_3  and  N_78
REMARK    5  A    between atoms: N_9  and  C_10
REMARK    6  A    between atoms: C_10  and  C_11
REMARK    7  A    between atoms: C_11  and  C_12
REMARK    8  A    between atoms: C_18  and  C_19
REMARK    9  A    between atoms: C_18  and  N_78
REMARK   10  A    between atoms: C_19  and  C_20
REMARK   11  A    between atoms: C_24  and  C_26
REMARK   12  A    between atoms: C_27  and  C_28
REMARK   13  A    between atoms: C_27  and  N_78
REMARK   14  A    between atoms: C_32  and  C_41
REMARK   15  A    between atoms: C_34  and  C_40
REMARK                            x       y       z     vdW  Elec       q    Type
REMARK                         _______ _______ _______ _____ _____    ______ ____
ROOT
ATOM      1  N   UNL     1      -4.152   0.258   1.484  0.00  0.00    +0.389 N 
ATOM      2  H   UNL     1      -3.762  -0.613   1.103  0.00  0.00    -0.080 HD
ENDROOT
BRANCH   1   3
ATOM      3  C   UNL     1      -5.367   0.614   0.722  0.00  0.00    +0.003 C 
BRANCH   3   4
ATOM      4  C   UNL     1      -6.088   1.760   1.382  0.00  0.00    +0.138 A 
ATOM      5  N   UNL     1      -6.425   1.849   2.646  0.00  0.00    -0.115 NA
ATOM      6  N   UNL     1      -7.024   2.977   2.819  0.00  0.00    -0.023 NA
ATOM      7  N   UNL     1      -7.077   3.610   1.700  0.00  0.00    -0.044 NA
ATOM      8  N   UNL     1      -6.506   2.895   0.790  0.00  0.00    -0.231 N 
BRANCH   8   9
ATOM      9  C   UNL     1      -6.346   3.249  -0.622  0.00  0.00    +0.152 C 
BRANCH   9  10
ATOM     10  C   UNL     1      -7.556   2.749  -1.414  0.00  0.00    +0.058 C 
BRANCH  10  11
ATOM     11  C   UNL     1      -7.391   3.114  -2.867  0.00  0.00    -0.046 A 
ATOM     12  C   UNL     1      -7.880   4.319  -3.337  0.00  0.00    +0.004 A 
ATOM     13  C   UNL     1      -7.724   4.656  -4.668  0.00  0.00    +0.000 A 
ATOM     14  C   UNL     1      -7.090   3.783  -5.532  0.00  0.00    +0.000 A 
ATOM     15  C   UNL     1      -6.607   2.575  -5.064  0.00  0.00    +0.000 A 
ATOM     16  C   UNL     1      -6.757   2.241  -3.731  0.00  0.00    +0.004 A 
ENDBRANCH  10  11
ENDBRANCH   9  10
ENDBRANCH   8   9
ENDBRANCH   3   4
BRANCH   3  18
ATOM     17  C   UNL     1      -5.616  -1.720  -0.136  0.00  0.00    +0.002 C 
ATOM     18  C   UNL     1      -6.290  -0.605   0.667  0.00  0.00    -0.011 C 
ENDBRANCH   3  18
ENDBRANCH   1   3
BRANCH   1  19
ATOM     19  C   UNL     1      -3.144   1.331   1.359  0.00  0.00    -0.073 C 
BRANCH  19  20
ATOM     20  C   UNL     1      -2.534   1.270  -0.043  0.00  0.00    +0.016 C 
BRANCH  20  21
ATOM     21  C   UNL     1      -1.494   2.352  -0.186  0.00  0.00    -0.049 A 
ATOM     22  C   UNL     1      -0.178   2.093   0.147  0.00  0.00    +0.003 A 
ATOM     23  C   UNL     1       0.777   3.084   0.010  0.00  0.00    +0.001 A 
ATOM     24  C   UNL     1       0.414   4.334  -0.454  0.00  0.00    +0.003 A 
ATOM     25  C   UNL     1      -0.903   4.594  -0.782  0.00  0.00    -0.050 A 
ATOM     26  C   UNL     1      -1.858   3.604  -0.645  0.00  0.00    +0.007 A 
ATOM     27  C   UNL     1      -1.299   5.957  -1.288  0.00  0.00    +0.044 C 
ENDBRANCH  20  21
ENDBRANCH  19  20
ENDBRANCH   1  19
BRANCH   1  28
ATOM     28  C   UNL     1      -4.492   0.049   2.908  0.00  0.00    -0.037 C 
BRANCH  28  29
ATOM     29  C   UNL     1      -3.390  -0.750   3.555  0.00  0.00    +0.001 A 
ATOM     30  C   UNL     1      -2.399  -0.113   4.226  0.00  0.00    +0.017 A 
ATOM     31  C   UNL     1      -1.343  -0.917   4.844  0.00  0.00    -0.001 A 
ATOM     32  C   UNL     1      -0.295  -0.317   5.549  0.00  0.00    +0.013 A 
ATOM     33  C   UNL     1       0.674  -1.095   6.114  0.00  0.00    -0.050 A 
ATOM     34  C   UNL     1       0.629  -2.478   5.995  0.00  0.00    +0.008 A 
ATOM     35  C   UNL     1      -0.395  -3.091   5.305  0.00  0.00    -0.026 A 
ATOM     36  C   UNL     1      -1.393  -2.318   4.720  0.00  0.00    +0.052 A 
ATOM     37  N   UNL     1      -2.429  -2.905   4.025  0.00  0.00    -0.322 N 
ATOM     38  H   UNL     1      -2.461  -3.871   3.941  0.00  0.00    +0.169 HD
ATOM     39  C   UNL     1      -3.397  -2.158   3.466  0.00  0.00    +0.251 A 
ATOM     40  O   UNL     1      -4.300  -2.711   2.862  0.00  0.00    -0.268 OA
ATOM     41  C   UNL     1      -0.431  -4.593   5.183  0.00  0.00    +0.046 C 
ATOM     42  C   UNL     1       1.804  -0.448   6.874  0.00  0.00    +0.044 C 
ENDBRANCH  28  29
ENDBRANCH   1  28
TORSDOF 11
