REMARK  Name = ZINC54644371
REMARK  12 active torsions:
REMARK  status: ('A' for Active; 'I' for Inactive)
REMARK    1  A    between atoms: C_1  and  C_2
REMARK    2  A    between atoms: C_2  and  C_3
REMARK    3  A    between atoms: C_3  and  O_4
REMARK    4  A    between atoms: O_4  and  C_5
REMARK    5  A    between atoms: C_9  and  C_11
REMARK    6  A    between atoms: C_13  and  C_30
REMARK    7  A    between atoms: C_14  and  C_29
REMARK    8  A    between atoms: C_19  and  S_21
REMARK    9  A    between atoms: S_21  and  C_22
REMARK   10  A    between atoms: C_22  and  C_23
REMARK   11  A    between atoms: N_32  and  C_33
REMARK   12  A    between atoms: C_38  and  C_39
REMARK                            x       y       z     vdW  Elec       q    Type
REMARK                         _______ _______ _______ _____ _____    ______ ____
ROOT
ATOM      1  C   UNL     1       2.108  -6.138   3.348  0.00  0.00    +0.177 C 
ATOM      2  C   UNL     1       1.423  -6.576   4.615  0.00  0.00    +0.060 C 
ATOM      3  C   UNL     1       2.086  -7.056   5.678  0.00  0.00    +0.018 C 
ATOM      4  N   UNL     1       3.452  -7.197   5.685  0.00  0.00    -0.287 N 
ATOM      5  C   UNL     1       4.114  -7.077   4.471  0.00  0.00    +0.219 A 
ATOM      6  N   UNL     1       3.498  -6.588   3.366  0.00  0.00    -0.220 N 
ATOM      7  N   UNL     1       4.439  -6.616   2.338  0.00  0.00    -0.141 NA
ATOM      8  C   UNL     1       5.548  -7.100   2.854  0.00  0.00    +0.211 A 
ATOM      9  N   UNL     1       5.343  -7.377   4.150  0.00  0.00    -0.187 NA
ATOM     10  C   UNL     1       1.306  -7.454   6.904  0.00  0.00    +0.061 C 
ATOM     11  H   UNL     1       3.936  -7.372   6.508  0.00  0.00    +0.155 HD
ENDROOT
BRANCH   1  16
ATOM     12  C   UNL     1       1.405  -2.648   2.083  0.00  0.00    +0.121 A 
ATOM     13  C   UNL     1       1.998  -1.874   3.071  0.00  0.00    +0.045 A 
ATOM     14  C   UNL     1       2.622  -2.482   4.142  0.00  0.00    +0.004 A 
ATOM     15  C   UNL     1       2.657  -3.862   4.231  0.00  0.00    +0.006 A 
ATOM     16  C   UNL     1       2.068  -4.635   3.248  0.00  0.00    -0.015 A 
ATOM     17  C   UNL     1       1.437  -4.031   2.178  0.00  0.00    +0.051 A 
BRANCH  12  18
ATOM     18  O   UNL     1       0.790  -2.051   1.029  0.00  0.00    -0.492 OA
BRANCH  18  19
ATOM     19  C   UNL     1       0.796  -0.623   0.997  0.00  0.00    +0.229 C 
BRANCH  19  21
ATOM     20  C   UNL     1       0.069   1.393  -0.288  0.00  0.00    +0.007 C 
ATOM     21  C   UNL     1       0.062  -0.137  -0.255  0.00  0.00    +0.038 C 
ENDBRANCH  19  21
ENDBRANCH  18  19
ENDBRANCH  12  18
ENDBRANCH   1  16
BRANCH   2  22
ATOM     22  C   UNL     1       0.014  -6.476   4.689  0.00  0.00    +0.248 C 
ATOM     23  O   UNL     1      -0.685  -7.282   4.101  0.00  0.00    -0.270 OA
ATOM     24  N   UNL     1      -0.555  -5.489   5.409  0.00  0.00    -0.281 N 
ATOM     25  H   UNL     1      -0.000  -4.811   5.826  0.00  0.00    +0.155 HD
BRANCH  24  26
ATOM     26  C   UNL     1      -1.945  -5.442   5.556  0.00  0.00    +0.037 A 
ATOM     27  C   UNL     1      -2.769  -5.853   4.516  0.00  0.00    +0.023 A 
ATOM     28  C   UNL     1      -4.141  -5.806   4.664  0.00  0.00    +0.002 A 
ATOM     29  C   UNL     1      -4.695  -5.349   5.846  0.00  0.00    +0.000 A 
ATOM     30  C   UNL     1      -3.878  -4.939   6.883  0.00  0.00    +0.005 A 
ATOM     31  C   UNL     1      -2.505  -4.989   6.743  0.00  0.00    -0.029 A 
ATOM     32  C   UNL     1      -1.615  -4.548   7.876  0.00  0.00    +0.045 C 
ENDBRANCH  24  26
ENDBRANCH   2  22
BRANCH   8  33
ATOM     33  S   UNL     1       7.060  -7.345   1.983  0.00  0.00    -0.080 S 
BRANCH  33  34
ATOM     34  C   UNL     1       8.182  -8.027   3.234  0.00  0.00    +0.112 C 
BRANCH  34  35
ATOM     35  C   UNL     1       9.530  -8.286   2.612  0.00  0.00    -0.037 A 
ATOM     36  C   UNL     1       9.799  -9.511   2.030  0.00  0.00    +0.004 A 
ATOM     37  C   UNL     1      11.035  -9.750   1.460  0.00  0.00    +0.000 A 
ATOM     38  C   UNL     1      12.003  -8.763   1.470  0.00  0.00    +0.000 A 
ATOM     39  C   UNL     1      11.734  -7.537   2.051  0.00  0.00    +0.000 A 
ATOM     40  C   UNL     1      10.496  -7.298   2.618  0.00  0.00    +0.004 A 
ENDBRANCH  34  35
ENDBRANCH  33  34
ENDBRANCH   8  33
TORSDOF 9
