REMARK  Name = ZINC39606086
REMARK  4 active torsions:
REMARK  status: ('A' for Active; 'I' for Inactive)
REMARK    1  A    between atoms: C_7  and  C_10
REMARK    2  A    between atoms: C_10  and  C_11
REMARK    3  A    between atoms: C_14  and  S_27
REMARK    4  A    between atoms: N_16  and  C_17
REMARK                            x       y       z     vdW  Elec       q    Type
REMARK                         _______ _______ _______ _____ _____    ______ ____
ROOT
ATOM      1  C   UNL     1      -4.436   3.672  -1.352  0.00  0.00    +0.126 C 
ATOM      2  N   UNL     1      -4.093   2.995  -2.386  0.00  0.00    -0.173 NA
ATOM      3  N   UNL     1      -4.271   3.729  -3.566  0.00  0.00    -0.238 N 
ATOM      4  C   UNL     1      -4.802   5.040  -3.154  0.00  0.00    +0.238 C 
ATOM      5  N   UNL     1      -4.892   4.938  -1.688  0.00  0.00    -0.257 N 
ATOM      6  H   UNL     1      -4.083   3.433  -4.470  0.00  0.00    +0.171 HD
ENDROOT
BRANCH   5   7
ATOM      7  C   UNL     1      -5.344   5.919  -0.811  0.00  0.00    +0.047 A 
ATOM      8  C   UNL     1      -4.462   6.840  -0.281  0.00  0.00    +0.024 A 
ATOM      9  C   UNL     1      -4.907   7.823   0.596  0.00  0.00    +0.004 A 
ATOM     10  C   UNL     1      -6.218   7.907   0.955  0.00  0.00    +0.028 A 
ATOM     11  C   UNL     1      -7.149   6.990   0.439  0.00  0.00    +0.073 A 
ATOM     12  C   UNL     1      -6.708   5.987  -0.459  0.00  0.00    +0.022 A 
ATOM     13  C   UNL     1      -7.643   5.076  -0.977  0.00  0.00    +0.013 A 
ATOM     14  C   UNL     1      -8.949   5.201  -0.592  0.00  0.00    +0.020 A 
ATOM     15  C   UNL     1      -9.319   6.213   0.290  0.00  0.00    +0.111 A 
ATOM     16  N   UNL     1      -8.441   7.055   0.780  0.00  0.00    -0.255 NA
ENDBRANCH   5   7
BRANCH   4  17
ATOM     17  S   UNL     1      -6.444   5.317  -3.874  0.00  0.00    -0.135 S 
ATOM     18  H   UNL     1      -6.225   5.294  -5.201  0.00  0.00    +0.105 HD
ENDBRANCH   4  17
BRANCH   1  19
ATOM     19  C   UNL     1      -4.358   3.151   0.060  0.00  0.00    +0.110 C 
BRANCH  19  26
ATOM     20  C   UNL     1      -0.017   1.384   0.010  0.00  0.00    +0.001 A 
ATOM     21  C   UNL     1       0.002  -0.004   0.002  0.00  0.00    +0.002 A 
ATOM     22  C   UNL     1      -1.173  -0.723   0.009  0.00  0.00    +0.026 A 
ATOM     23  C   UNL     1      -2.392  -0.053   0.024  0.00  0.00    +0.047 A 
ATOM     24  N   UNL     1      -3.704  -0.472   0.034  0.00  0.00    -0.360 N 
ATOM     25  C   UNL     1      -4.539   0.612   0.047  0.00  0.00    +0.087 A 
ATOM     26  C   UNL     1      -3.818   1.744   0.047  0.00  0.00    -0.015 A 
ATOM     27  C   UNL     1      -2.406   1.353   0.032  0.00  0.00    +0.003 A 
ATOM     28  C   UNL     1      -1.203   2.062   0.030  0.00  0.00    +0.010 A 
ATOM     29  H   UNL     1      -3.993  -1.398   0.030  0.00  0.00    +0.165 HD
ENDBRANCH  19  26
ENDBRANCH   1  19
TORSDOF 4
