REMARK  Name = ZINC62826758
REMARK  3 active torsions:
REMARK  status: ('A' for Active; 'I' for Inactive)
REMARK    1  A    between atoms: C_3  and  C_9
REMARK    2  A    between atoms: C_4  and  N_8
REMARK    3  A    between atoms: C_11  and  C_14
REMARK                            x       y       z     vdW  Elec       q    Type
REMARK                         _______ _______ _______ _____ _____    ______ ____
ROOT
ATOM      1  C   UNL     1       3.684   2.120  -0.041  0.00  0.00    +0.261 A 
ATOM      2  N   UNL     1       3.829   3.422  -0.143  0.00  0.00    -0.187 NA
ATOM      3  C   UNL     1       5.133   3.739  -0.127  0.00  0.00    +0.203 A 
ATOM      4  N   UNL     1       5.835   2.638  -0.014  0.00  0.00    -0.056 NA
ATOM      5  O   UNL     1       4.906   1.567   0.049  0.00  0.00    -0.332 OA
ENDROOT
BRANCH   3   6
ATOM      6  C   UNL     1       5.688   5.112  -0.222  0.00  0.00    +0.028 A 
ATOM      7  C   UNL     1       4.833   6.206  -0.333  0.00  0.00    +0.050 A 
ATOM      8  C   UNL     1       5.354   7.483  -0.421  0.00  0.00    +0.127 A 
ATOM      9  C   UNL     1       6.726   7.676  -0.399  0.00  0.00    +0.076 A 
ATOM     10  C   UNL     1       7.580   6.592  -0.289  0.00  0.00    +0.127 A 
ATOM     11  C   UNL     1       7.066   5.311  -0.194  0.00  0.00    +0.050 A 
ATOM     12  F   UNL     1       8.917   6.786  -0.269  0.00  0.00    -0.205 F 
ATOM     13  F   UNL     1       4.525   8.544  -0.529  0.00  0.00    -0.205 F 
ENDBRANCH   3   6
BRANCH   1  16
ATOM     14  C   UNL     1       0.215   1.002  -0.941  0.00  0.00    +0.002 A 
ATOM     15  C   UNL     1       1.412   1.687  -0.963  0.00  0.00    +0.015 A 
ATOM     16  C   UNL     1       2.401   1.391  -0.022  0.00  0.00    +0.061 A 
ATOM     17  C   UNL     1       2.168   0.397   0.940  0.00  0.00    +0.051 A 
ATOM     18  C   UNL     1       0.956  -0.283   0.947  0.00  0.00    +0.039 A 
ATOM     19  C   UNL     1      -0.012   0.021   0.010  0.00  0.00    +0.017 A 
ATOM     20 BR   UNL     1       0.633  -1.624   2.239  0.00  0.00    -0.048 Br
BRANCH  17  21
ATOM     21  N   UNL     1       3.146   0.093   1.882  0.00  0.00    -0.357 N 
ATOM     22  H   UNL     1       3.951   0.630   1.936  0.00  0.00    +0.142 HD
ATOM     23  H   UNL     1       3.022  -0.657   2.485  0.00  0.00    +0.142 HD
ENDBRANCH  17  21
ENDBRANCH   1  16
TORSDOF 3
