REMARK  Name = ZINC08871098
REMARK  6 active torsions:
REMARK  status: ('A' for Active; 'I' for Inactive)
REMARK    1  A    between atoms: C_9  and  C_23
REMARK    2  A    between atoms: C_10  and  N_22
REMARK    3  A    between atoms: N_11  and  C_14
REMARK    4  A    between atoms: C_14  and  C_15
REMARK    5  A    between atoms: N_25  and  C_26
REMARK    6  A    between atoms: C_26  and  C_27
REMARK                            x       y       z     vdW  Elec       q    Type
REMARK                         _______ _______ _______ _____ _____    ______ ____
ROOT
ATOM      1  C   UNL     1       5.236  -1.640   4.706  0.00  0.00    +0.002 A 
ATOM      2  C   UNL     1       5.643  -1.185   3.453  0.00  0.00    +0.002 A 
ATOM      3  C   UNL     1       4.731  -0.852   2.500  0.00  0.00    +0.030 A 
ATOM      4  C   UNL     1       3.356  -0.965   2.775  0.00  0.00    +0.092 A 
ATOM      5  C   UNL     1       2.942  -1.429   4.049  0.00  0.00    +0.090 A 
ATOM      6  C   UNL     1       3.915  -1.764   5.010  0.00  0.00    +0.030 A 
ATOM      7  N   UNL     1       1.641  -1.546   4.337  0.00  0.00    -0.241 NA
ATOM      8  C   UNL     1       0.743  -1.228   3.425  0.00  0.00    +0.122 A 
ATOM      9  C   UNL     1      -0.729  -1.228   3.384  0.00  0.00    +0.103 A 
ATOM     10  C   UNL     1      -1.087  -0.777   2.118  0.00  0.00    +0.113 A 
ATOM     11  N   UNL     1       0.022  -0.500   1.381  0.00  0.00    -0.308 N 
ATOM     12  C   UNL     1       1.168  -0.755   2.106  0.00  0.00    +0.162 A 
ATOM     13  N   UNL     1       2.452  -0.639   1.843  0.00  0.00    -0.226 NA
ENDROOT
BRANCH   9  14
ATOM     14  C   UNL     1      -1.634  -1.625   4.460  0.00  0.00    +0.250 C 
ATOM     15  O   UNL     1      -2.001  -2.783   4.551  0.00  0.00    -0.270 OA
ATOM     16  N   UNL     1      -2.063  -0.710   5.351  0.00  0.00    -0.307 N 
ATOM     17  H   UNL     1      -1.771   0.212   5.279  0.00  0.00    +0.149 HD
BRANCH  16  18
ATOM     18  C   UNL     1      -2.971  -1.108   6.431  0.00  0.00    +0.147 C 
BRANCH  18  19
ATOM     19  C   UNL     1      -3.296   0.092   7.281  0.00  0.00    +0.007 A 
ATOM     20  C   UNL     1      -4.304   0.989   7.143  0.00  0.00    +0.013 A 
ATOM     21  C   UNL     1      -4.412   2.021   8.056  0.00  0.00    +0.008 A 
ATOM     22  C   UNL     1      -3.501   2.114   9.055  0.00  0.00    +0.045 A 
ATOM     23  S   UNL     1      -2.450   0.708   8.728  0.00  0.00    -0.100 S 
ENDBRANCH  18  19
ENDBRANCH  16  18
ENDBRANCH   9  14
BRANCH  10  24
ATOM     24  N   UNL     1      -2.377  -0.631   1.677  0.00  0.00    -0.344 N 
ATOM     25  H   UNL     1      -2.548  -0.309   0.778  0.00  0.00    +0.144 HD
ATOM     26  H   UNL     1      -3.118  -0.850   2.263  0.00  0.00    +0.144 HD
ENDBRANCH  10  24
BRANCH  11  27
ATOM     27  C   UNL     1       0.002  -0.004   0.002  0.00  0.00    +0.160 C 
BRANCH  27  28
ATOM     28  C   UNL     1      -0.018   1.503   0.010  0.00  0.00    -0.028 A 
ATOM     29  C   UNL     1      -1.225   2.177   0.020  0.00  0.00    +0.007 A 
ATOM     30  C   UNL     1      -1.244   3.559   0.033  0.00  0.00    +0.020 A 
ATOM     31  C   UNL     1      -0.056   4.268   0.025  0.00  0.00    +0.041 A 
ATOM     32  C   UNL     1       1.151   3.592   0.010  0.00  0.00    +0.020 A 
ATOM     33  C   UNL     1       1.169   2.210   0.003  0.00  0.00    +0.007 A 
ATOM     34 CL   UNL     1      -0.079   6.003   0.036  0.00  0.00    -0.084 Cl
ENDBRANCH  27  28
ENDBRANCH  11  27
TORSDOF 6
