REMARK  Name = ZINC38704846
REMARK  20 active torsions:
REMARK  status: ('A' for Active; 'I' for Inactive)
REMARK    1  A    between atoms: C_1  and  C_2
REMARK    2  A    between atoms: C_2  and  C_3
REMARK    3  A    between atoms: C_3  and  C_4
REMARK    4  A    between atoms: C_4  and  C_5
REMARK    5  A    between atoms: C_5  and  O_6
REMARK    6  A    between atoms: O_6  and  C_7
REMARK    7  A    between atoms: C_10  and  C_15
REMARK    8  A    between atoms: C_12  and  O_13
REMARK    9  A    between atoms: O_13  and  C_14
REMARK   10  A    between atoms: C_18  and  C_33
REMARK   11  A    between atoms: N_25  and  C_26
REMARK   12  A    between atoms: C_26  and  C_27
REMARK   13  A    between atoms: C_27  and  C_28
REMARK   14  A    between atoms: C_28  and  O_29
REMARK   15  A    between atoms: O_29  and  C_30
REMARK   16  A    between atoms: C_30  and  C_31
REMARK   17  A    between atoms: C_30  and  C_32
REMARK   18  A    between atoms: C_34  and  C_41
REMARK   19  A    between atoms: C_36  and  C_40
REMARK   20  A    between atoms: C_38  and  O_39
REMARK                            x       y       z     vdW  Elec       q    Type
REMARK                         _______ _______ _______ _____ _____    ______ ____
ROOT
ATOM      1  C   UNL     1       4.121  -6.546   6.787  0.00  0.00    +0.141 C 
ATOM      2  C   UNL     1       3.280  -6.413   8.028  0.00  0.00    +0.035 A 
ATOM      3  C   UNL     1       2.064  -6.687   8.663  0.00  0.00    +0.102 A 
ATOM      4  N   UNL     1       2.127  -6.172   9.875  0.00  0.00    -0.173 NA
ATOM      5  N   UNL     1       3.262  -5.599  10.068  0.00  0.00    -0.272 N 
ATOM      6  H   UNL     1       3.529  -5.154  10.887  0.00  0.00    +0.189 HD
ATOM      7  C   UNL     1       4.036  -5.713   8.948  0.00  0.00    +0.126 A 
ATOM      8  C   UNL     1       5.332  -5.393   8.339  0.00  0.00    +0.265 C 
ATOM      9  O   UNL     1       6.226  -4.780   8.892  0.00  0.00    -0.268 OA
ATOM     10  N   UNL     1       5.393  -5.873   7.083  0.00  0.00    -0.285 N 
ENDROOT
BRANCH   3  11
ATOM     11  C   UNL     1       0.914  -7.423   8.080  0.00  0.00    +0.047 A 
ATOM     12  C   UNL     1      -0.368  -6.886   8.153  0.00  0.00    -0.037 A 
ATOM     13  C   UNL     1      -1.435  -7.574   7.609  0.00  0.00    +0.007 A 
ATOM     14  C   UNL     1      -1.234  -8.796   6.992  0.00  0.00    -0.047 A 
ATOM     15  C   UNL     1       0.035  -9.337   6.915  0.00  0.00    +0.049 A 
ATOM     16  C   UNL     1       1.115  -8.654   7.451  0.00  0.00    +0.127 A 
ATOM     17  C   UNL     1      -2.404  -9.539   6.401  0.00  0.00    +0.044 C 
ATOM     18  C   UNL     1      -0.593  -5.556   8.825  0.00  0.00    +0.044 C 
BRANCH  16  19
ATOM     19  O   UNL     1       2.365  -9.183   7.370  0.00  0.00    -0.506 OA
ATOM     20  H   UNL     1       2.573  -9.809   8.076  0.00  0.00    +0.292 HD
ENDBRANCH  16  19
ENDBRANCH   3  11
BRANCH   1  24
ATOM     21  C   UNL     1       2.184  -4.638   3.487  0.00  0.00    +0.162 A 
ATOM     22  C   UNL     1       2.680  -3.880   4.535  0.00  0.00    +0.050 A 
ATOM     23  C   UNL     1       3.305  -4.499   5.601  0.00  0.00    +0.009 A 
ATOM     24  C   UNL     1       3.438  -5.875   5.623  0.00  0.00    -0.019 A 
ATOM     25  C   UNL     1       2.945  -6.637   4.580  0.00  0.00    +0.055 A 
ATOM     26  C   UNL     1       2.312  -6.023   3.512  0.00  0.00    +0.162 A 
BRANCH  26  27
ATOM     27  O   UNL     1       1.822  -6.772   2.488  0.00  0.00    -0.491 OA
ATOM     28  C   UNL     1       1.989  -8.188   2.582  0.00  0.00    +0.277 C 
ENDBRANCH  26  27
BRANCH  21  29
ATOM     29  O   UNL     1       1.568  -4.029   2.438  0.00  0.00    -0.488 OA
BRANCH  29  30
ATOM     30  C   UNL     1       1.472  -2.604   2.479  0.00  0.00    +0.229 C 
BRANCH  30  31
ATOM     31  C   UNL     1       0.754  -2.105   1.224  0.00  0.00    +0.041 C 
BRANCH  31  32
ATOM     32  C   UNL     1       0.651  -0.579   1.268  0.00  0.00    +0.003 C 
BRANCH  32  34
ATOM     33  C   UNL     1      -0.169   1.447   0.057  0.00  0.00    +0.004 C 
ATOM     34  C   UNL     1      -0.067  -0.079   0.013  0.00  0.00    -0.003 C 
ENDBRANCH  32  34
ENDBRANCH  31  32
ENDBRANCH  30  31
ENDBRANCH  29  30
ENDBRANCH  21  29
ENDBRANCH   1  24
BRANCH  10  35
ATOM     35  C   UNL     1       6.530  -5.747   6.168  0.00  0.00    +0.111 C 
BRANCH  35  36
ATOM     36  C   UNL     1       6.385  -4.462   5.349  0.00  0.00    +0.047 C 
BRANCH  36  37
ATOM     37  C   UNL     1       7.573  -4.330   4.394  0.00  0.00    +0.161 C 
BRANCH  37  38
ATOM     38  O   UNL     1       7.438  -3.131   3.629  0.00  0.00    -0.377 OA
BRANCH  38  39
ATOM     39  C   UNL     1       8.502  -2.911   2.700  0.00  0.00    +0.112 C 
ATOM     40  C   UNL     1       7.972  -2.133   1.494  0.00  0.00    +0.037 C 
ATOM     41  C   UNL     1       9.613  -2.107   3.378  0.00  0.00    +0.037 C 
ENDBRANCH  38  39
ENDBRANCH  37  38
ENDBRANCH  36  37
ENDBRANCH  35  36
ENDBRANCH  10  35
TORSDOF 14
