REMARK  Name = ZINC39777507
REMARK  8 active torsions:
REMARK  status: ('A' for Active; 'I' for Inactive)
REMARK    1  A    between atoms: C_7  and  C_10
REMARK    2  A    between atoms: C_13  and  S_19
REMARK    3  A    between atoms: N_15  and  C_16
REMARK    4  A    between atoms: S_19  and  C_20
REMARK    5  A    between atoms: C_20  and  C_21
REMARK    6  A    between atoms: N_23  and  C_24
REMARK    7  A    between atoms: C_24  and  C_25
REMARK    8  A    between atoms: C_25  and  N_31
REMARK                            x       y       z     vdW  Elec       q    Type
REMARK                         _______ _______ _______ _____ _____    ______ ____
ROOT
ATOM      1  C   UNL     1       0.492  -2.492   0.956  0.00  0.00    +0.147 C 
ATOM      2  N   UNL     1      -0.814  -2.527   0.930  0.00  0.00    -0.169 NA
ATOM      3  N   UNL     1      -1.284  -3.828   0.719  0.00  0.00    -0.237 N 
ATOM      4  C   UNL     1      -0.096  -4.689   0.603  0.00  0.00    +0.237 C 
ATOM      5  N   UNL     1       1.039  -3.763   0.760  0.00  0.00    -0.282 N 
ATOM      6  H   UNL     1      -2.211  -4.108   0.660  0.00  0.00    +0.171 HD
ENDROOT
BRANCH   1  13
ATOM      7  C   UNL     1      -0.707   1.851   1.490  0.00  0.00    +0.001 A 
ATOM      8  C   UNL     1       0.378   2.713   1.658  0.00  0.00    +0.002 A 
ATOM      9  C   UNL     1       1.657   2.263   1.657  0.00  0.00    +0.026 A 
ATOM     10  C   UNL     1       1.917   0.879   1.482  0.00  0.00    +0.043 A 
ATOM     11  N   UNL     1       3.049   0.203   1.444  0.00  0.00    -0.380 N 
ATOM     12  C   UNL     1       2.756  -1.219   1.237  0.00  0.00    +0.152 C 
ATOM     13  C   UNL     1       1.249  -1.327   1.151  0.00  0.00    +0.022 C 
ATOM     14  C   UNL     1       0.770  -0.026   1.305  0.00  0.00    +0.006 A 
ATOM     15  C   UNL     1      -0.533   0.515   1.317  0.00  0.00    +0.010 A 
ATOM     16  H   UNL     1       3.935   0.586   1.537  0.00  0.00    +0.160 HD
ENDBRANCH   1  13
BRANCH   5  17
ATOM     17  C   UNL     1       2.462  -4.108   0.721  0.00  0.00    +0.078 C 
ATOM     18  C   UNL     1       2.828  -5.565   0.431  0.00  0.00    +0.024 C 
ATOM     19  C   UNL     1       3.004  -4.998   1.841  0.00  0.00    +0.024 C 
ENDBRANCH   5  17
BRANCH   4  20
ATOM     20  S   UNL     1      -0.043  -5.482  -1.027  0.00  0.00    -0.109 S 
BRANCH  20  21
ATOM     21  C   UNL     1      -0.025  -4.091  -2.192  0.00  0.00    +0.168 C 
BRANCH  21  22
ATOM     22  C   UNL     1       0.020  -4.619  -3.603  0.00  0.00    +0.223 C 
ATOM     23  O   UNL     1       0.037  -5.814  -3.803  0.00  0.00    -0.275 OA
ATOM     24  N   UNL     1       0.040  -3.761  -4.642  0.00  0.00    -0.313 N 
ATOM     25  H   UNL     1       0.026  -2.804  -4.482  0.00  0.00    +0.149 HD
BRANCH  24  26
ATOM     26  C   UNL     1       0.083  -4.273  -6.014  0.00  0.00    +0.126 C 
BRANCH  26  27
ATOM     27  C   UNL     1       0.231  -3.104  -6.990  0.00  0.00    +0.038 C 
ATOM     28  C   UNL     1       0.132  -3.624  -8.426  0.00  0.00    +0.024 C 
ATOM     29  C   UNL     1       1.245  -4.643  -8.678  0.00  0.00    +0.002 C 
ATOM     30  C   UNL     1       2.606  -3.974  -8.470  0.00  0.00    +0.000 C 
ATOM     31  C   UNL     1       2.704  -3.455  -7.034  0.00  0.00    +0.002 C 
ATOM     32  C   UNL     1       1.591  -2.436  -6.782  0.00  0.00    +0.024 C 
BRANCH  27  33
ATOM     33  N   UNL     1      -0.838  -2.126  -6.749  0.00  0.00    -0.291 NA
ATOM     34  C   UNL     1      -2.162  -2.754  -6.863  0.00  0.00    +0.113 C 
ATOM     35  C   UNL     1      -3.242  -1.715  -6.546  0.00  0.00    +0.175 C 
ATOM     36  O   UNL     1      -3.095  -0.598  -7.426  0.00  0.00    -0.377 OA
ATOM     37  C   UNL     1      -1.817   0.038  -7.341  0.00  0.00    +0.175 C 
ATOM     38  C   UNL     1      -0.723  -0.983  -7.666  0.00  0.00    +0.113 C 
ENDBRANCH  27  33
ENDBRANCH  26  27
ENDBRANCH  24  26
ENDBRANCH  21  22
ENDBRANCH  20  21
ENDBRANCH   4  20
TORSDOF 8
