REMARK  Name = ZINC51051229
REMARK  12 active torsions:
REMARK  status: ('A' for Active; 'I' for Inactive)
REMARK    1  A    between atoms: C_1  and  C_2
REMARK    2  A    between atoms: C_2  and  C_3
REMARK    3  A    between atoms: C_3  and  C_4
REMARK    4  A    between atoms: C_4  and  C_6
REMARK    5  A    between atoms: C_4  and  N_7
REMARK    6  A    between atoms: C_8  and  C_10
REMARK    7  A    between atoms: N_15  and  C_17
REMARK    8  A    between atoms: C_17  and  C_19
REMARK    9  A    between atoms: C_17  and  C_20
REMARK   10  A    between atoms: C_20  and  N_22
REMARK   11  A    between atoms: C_25  and  C_29
REMARK   12  A    between atoms: C_26  and  C_28
REMARK                            x       y       z     vdW  Elec       q    Type
REMARK                         _______ _______ _______ _____ _____    ______ ____
ROOT
ATOM      1  C   UNL     1       1.235  -4.891   0.828  0.00  0.00    +0.058 C 
ATOM      2  C   UNL     1       2.341  -3.884   1.157  0.00  0.00    +0.009 C 
ATOM      3  C   UNL     1       2.560  -3.858   2.672  0.00  0.00    -0.018 C 
ATOM      4  C   UNL     1       2.899  -5.270   3.157  0.00  0.00    -0.078 C 
ATOM      5  N   UNL     1       1.792  -6.179   2.837  0.00  0.00    +0.388 N 
ATOM      6  C   UNL     1       1.621  -6.265   1.381  0.00  0.00    -0.065 C 
ATOM      7  H   UNL     1       0.942  -5.832   3.254  0.00  0.00    -0.081 HD
ENDROOT
BRANCH   1   9
ATOM      8  N   UNL     1       0.723  -3.885  -1.373  0.00  0.00    -0.313 N 
ATOM      9  C   UNL     1       1.063  -4.981  -0.666  0.00  0.00    +0.215 C 
ATOM     10  O   UNL     1       1.232  -6.040  -1.234  0.00  0.00    -0.276 OA
ATOM     11  H   UNL     1       0.588  -3.038  -0.919  0.00  0.00    +0.149 HD
BRANCH   8  12
ATOM     12  C   UNL     1       0.556  -3.972  -2.825  0.00  0.00    +0.070 C 
ATOM     13  C   UNL     1      -0.864  -4.442  -3.149  0.00  0.00    +0.028 C 
BRANCH  12  14
ATOM     14  C   UNL     1       0.792  -2.595  -3.449  0.00  0.00    +0.022 C 
BRANCH  14  16
ATOM     15  C   UNL     1       2.485  -0.803  -3.857  0.00  0.00    +0.004 C 
ATOM     16  C   UNL     1       2.249  -2.180  -3.233  0.00  0.00    -0.002 C 
ENDBRANCH  14  16
ENDBRANCH  12  14
ENDBRANCH   8  12
ENDBRANCH   1   9
BRANCH   5  17
ATOM     17  C   UNL     1       2.088  -7.515   3.373  0.00  0.00    +0.018 C 
ATOM     18  C   UNL     1       2.314  -7.420   4.883  0.00  0.00    -0.004 C 
BRANCH  17  19
ATOM     19  C   UNL     1       0.927  -8.435   3.095  0.00  0.00    +0.225 C 
ATOM     20  O   UNL     1      -0.195  -7.981   2.980  0.00  0.00    -0.275 OA
BRANCH  19  21
ATOM     21  N   UNL     1       1.130  -9.741   2.977  0.00  0.00    -0.158 NA
ATOM     22  C   UNL     1       0.102 -10.556   2.732  0.00  0.00    +0.163 A 
ATOM     23  N   UNL     1       0.112 -11.909   2.585  0.00  0.00    -0.339 N 
ATOM     24  C   UNL     1      -1.061 -12.551   2.338  0.00  0.00    +0.024 A 
ATOM     25  C   UNL     1      -2.165 -11.800   2.253  0.00  0.00    +0.009 A 
ATOM     26  S   UNL     1      -1.521 -10.162   2.536  0.00  0.00    -0.057 S 
ATOM     27  C   UNL     1      -3.586 -12.229   1.991  0.00  0.00    +0.053 C 
ATOM     28  C   UNL     1      -1.114 -14.047   2.165  0.00  0.00    +0.064 C 
ATOM     29  H   UNL     1       0.942 -12.406   2.656  0.00  0.00    +0.167 HD
ENDBRANCH  19  21
ENDBRANCH  17  19
ENDBRANCH   5  17
TORSDOF 7
