REMARK  Name = ZINC15730709
REMARK  5 active torsions:
REMARK  status: ('A' for Active; 'I' for Inactive)
REMARK    1  A    between atoms: C_1  and  C_2
REMARK    2  A    between atoms: C_7  and  N_8
REMARK    3  A    between atoms: N_8  and  S_9
REMARK    4  A    between atoms: S_9  and  C_12
REMARK    5  A    between atoms: C_21  and  C_25
REMARK                            x       y       z     vdW  Elec       q    Type
REMARK                         _______ _______ _______ _____ _____    ______ ____
ROOT
ATOM      1  C   UNL     1      -2.016   1.950   1.817  0.00  0.00    +0.110 A 
ATOM      2  C   UNL     1      -2.842   0.879   2.106  0.00  0.00    +0.030 A 
ATOM      3  C   UNL     1      -3.271   0.688   3.397  0.00  0.00    +0.018 A 
ATOM      4  C   UNL     1      -2.903   1.559   4.432  0.00  0.00    +0.029 A 
ATOM      5  C   UNL     1      -2.077   2.635   4.146  0.00  0.00    +0.049 A 
ATOM      6  C   UNL     1      -1.647   2.813   2.820  0.00  0.00    +0.053 A 
ATOM      7  N   UNL     1      -1.624   3.583   5.024  0.00  0.00    -0.284 N 
ATOM      8  C   UNL     1      -1.531   3.826   6.284  0.00  0.00    +0.221 C 
ATOM      9  O   UNL     1      -0.787   4.737   6.582  0.00  0.00    -0.275 OA
ATOM     10  C   UNL     1      -2.202   3.154   7.430  0.00  0.00    +0.082 C 
ATOM     11  C   UNL     1      -2.316   1.670   7.235  0.00  0.00    +0.087 C 
ATOM     12  S   UNL     1      -3.535   1.193   6.019  0.00  0.00    -0.123 S 
ATOM     13  C   UNL     1      -1.399   3.426   8.703  0.00  0.00    +0.018 C 
ATOM     14  H   UNL     1      -1.244   4.325   4.527  0.00  0.00    +0.155 HD
ENDROOT
BRANCH   1  15
ATOM     15  S   UNL     1      -1.447   2.212   0.170  0.00  0.00    +0.072 S 
ATOM     16  O   UNL     1      -1.138   3.594   0.061  0.00  0.00    -0.150 OA
ATOM     17  O   UNL     1      -2.381   1.571  -0.689  0.00  0.00    -0.150 OA
BRANCH  15  18
ATOM     18  N   UNL     1      -0.017   1.393   0.010  0.00  0.00    -0.216 N 
ATOM     19  H   UNL     1       0.795   1.874  -0.214  0.00  0.00    +0.174 HD
BRANCH  18  26
ATOM     20  C   UNL     1       2.288   0.259   1.233  0.00  0.00    +0.046 C 
ATOM     21  C   UNL     1       1.124  -0.588   0.784  0.00  0.00    -0.028 A 
ATOM     22  C   UNL     1       1.156  -1.957   0.962  0.00  0.00    +0.005 A 
ATOM     23  C   UNL     1       0.090  -2.735   0.551  0.00  0.00    +0.000 A 
ATOM     24  C   UNL     1      -1.013  -2.144  -0.041  0.00  0.00    +0.002 A 
ATOM     25  C   UNL     1      -1.053  -0.775  -0.217  0.00  0.00    +0.025 A 
ATOM     26  C   UNL     1       0.019   0.008   0.191  0.00  0.00    +0.051 A 
ENDBRANCH  18  26
ENDBRANCH  15  18
ENDBRANCH   1  15
TORSDOF 3
