REMARK  Name = ZINC12497914
REMARK  10 active torsions:
REMARK  status: ('A' for Active; 'I' for Inactive)
REMARK    1  A    between atoms: C_1  and  C_2
REMARK    2  A    between atoms: C_2  and  C_3
REMARK    3  A    between atoms: C_3  and  C_4
REMARK    4  A    between atoms: C_4  and  C_33
REMARK    5  A    between atoms: C_9  and  C_11
REMARK    6  A    between atoms: C_14  and  O_17
REMARK    7  A    between atoms: N_20  and  C_23
REMARK    8  A    between atoms: C_33  and  O_35
REMARK    9  A    between atoms: O_35  and  C_36
REMARK   10  A    between atoms: C_36  and  C_37
REMARK                            x       y       z     vdW  Elec       q    Type
REMARK                         _______ _______ _______ _____ _____    ______ ____
ROOT
ATOM      1  C   UNL     1       1.280   1.975   0.000  0.00  0.00    +0.044 C 
ATOM      2  C   UNL     1       2.377   1.118   0.624  0.00  0.00    +0.086 C 
ATOM      3  C   UNL     1       3.404   2.284   0.896  0.00  0.00    +0.077 C 
ATOM      4  C   UNL     1       2.584   3.326   1.527  0.00  0.00    -0.027 C 
ATOM      5  C   UNL     1       4.624   1.543   1.111  0.00  0.00    +0.229 C 
ATOM      6  O   UNL     1       5.531   1.817   1.867  0.00  0.00    -0.275 OA
ATOM      7  N   UNL     1       4.541   0.462   0.267  0.00  0.00    -0.210 N 
ATOM      8  C   UNL     1       3.279   0.279  -0.225  0.00  0.00    +0.229 C 
ATOM      9  O   UNL     1       2.955  -0.422  -1.159  0.00  0.00    -0.275 OA
ATOM     10  N   UNL     1       1.242   3.168   0.895  0.00  0.00    +0.395 N 
ATOM     11  H   UNL     1       0.530   3.033   1.623  0.00  0.00    -0.083 HD
ATOM     12  H   UNL     1       1.016   4.006   0.347  0.00  0.00    -0.083 HD
ENDROOT
BRANCH   7  13
ATOM     13  C   UNL     1       5.624  -0.375  -0.042  0.00  0.00    +0.048 A 
ATOM     14  C   UNL     1       5.444  -1.459  -0.890  0.00  0.00    +0.028 A 
ATOM     15  C   UNL     1       6.510  -2.283  -1.195  0.00  0.00    +0.051 A 
ATOM     16  C   UNL     1       7.762  -2.031  -0.654  0.00  0.00    +0.162 A 
ATOM     17  C   UNL     1       7.945  -0.946   0.195  0.00  0.00    +0.164 A 
ATOM     18  C   UNL     1       6.876  -0.116   0.495  0.00  0.00    +0.073 A 
ATOM     19  O   UNL     1       9.168  -0.680   0.732  0.00  0.00    -0.485 OA
ATOM     20  C   UNL     1      10.128  -1.742   0.703  0.00  0.00    +0.270 C 
ATOM     21  C   UNL     1      10.117  -2.361  -0.701  0.00  0.00    +0.270 C 
ATOM     22  O   UNL     1       8.800  -2.857  -0.962  0.00  0.00    -0.485 OA
ENDBRANCH   7  13
BRANCH   4  23
ATOM     23  C   UNL     1       2.499   3.102   3.015  0.00  0.00    -0.060 A 
ATOM     24  C   UNL     1       1.663   2.123   3.518  0.00  0.00    +0.005 A 
ATOM     25  C   UNL     1       1.587   1.911   4.882  0.00  0.00    +0.045 A 
ATOM     26  C   UNL     1       2.343   2.690   5.746  0.00  0.00    +0.117 A 
ATOM     27  C   UNL     1       3.177   3.675   5.238  0.00  0.00    +0.045 A 
ATOM     28  C   UNL     1       3.254   3.879   3.874  0.00  0.00    +0.005 A 
BRANCH  26  29
ATOM     29  O   UNL     1       2.266   2.488   7.088  0.00  0.00    -0.507 OA
ATOM     30  H   UNL     1       1.583   3.015   7.526  0.00  0.00    +0.292 HD
ENDBRANCH  26  29
ENDBRANCH   4  23
BRANCH   1  31
ATOM     31  C   UNL     1      -0.038   1.246   0.014  0.00  0.00    +0.297 C 
ATOM     32  O   UNL     1      -0.061   0.038  -0.003  0.00  0.00    -0.252 OA
BRANCH  31  33
ATOM     33  O   UNL     1      -1.188   1.938   0.040  0.00  0.00    -0.466 OA
BRANCH  33  34
ATOM     34  C   UNL     1      -2.420   1.170   0.045  0.00  0.00    +0.228 C 
ATOM     35  C   UNL     1      -3.616   2.124   0.075  0.00  0.00    +0.048 C 
ENDBRANCH  33  34
ENDBRANCH  31  33
ENDBRANCH   1  31
BRANCH   1  36
ATOM     36  C   UNL     1       1.657   2.381  -1.426  0.00  0.00    -0.001 C 
BRANCH  36  38
ATOM     37  C   UNL     1       0.929   3.667  -3.441  0.00  0.00    +0.004 C 
ATOM     38  C   UNL     1       0.552   3.261  -2.014  0.00  0.00    -0.004 C 
ENDBRANCH  36  38
ENDBRANCH   1  36
TORSDOF 8
