REMARK  Name = ZINC14625200
REMARK  12 active torsions:
REMARK  status: ('A' for Active; 'I' for Inactive)
REMARK    1  A    between atoms: C_1  and  C_2
REMARK    2  A    between atoms: C_2  and  C_3
REMARK    3  A    between atoms: C_3  and  C_4
REMARK    4  A    between atoms: C_4  and  N_5
REMARK    5  A    between atoms: C_6  and  N_32
REMARK    6  A    between atoms: C_7  and  N_14
REMARK    7  A    between atoms: N_14  and  C_15
REMARK    8  A    between atoms: C_15  and  C_16
REMARK    9  A    between atoms: C_22  and  C_24
REMARK   10  A    between atoms: C_26  and  C_31
REMARK   11  A    between atoms: C_27  and  C_29
REMARK   12  A    between atoms: C_29  and  C_30
REMARK                            x       y       z     vdW  Elec       q    Type
REMARK                         _______ _______ _______ _____ _____    ______ ____
ROOT
ATOM      1  N   UNL     1      -0.197  -3.071  -2.426  0.00  0.00    -0.255 N 
ATOM      2  C   UNL     1      -0.202  -2.896  -3.763  0.00  0.00    +0.258 C 
ATOM      3  O   UNL     1      -0.049  -1.782  -4.231  0.00  0.00    -0.269 OA
ENDROOT
BRANCH   1   6
ATOM      4  N   UNL     1       1.192  -0.588  -0.101  0.00  0.00    -0.280 N 
ATOM      5  C   UNL     1       1.112  -1.679  -0.935  0.00  0.00    +0.127 A 
ATOM      6  C   UNL     1      -0.082  -1.956  -1.569  0.00  0.00    +0.140 A 
ATOM      7  C   UNL     1      -1.181  -1.105  -1.350  0.00  0.00    +0.277 A 
ATOM      8  O   UNL     1      -2.246  -1.324  -1.901  0.00  0.00    -0.266 OA
ATOM      9  N   UNL     1      -1.048  -0.046  -0.527  0.00  0.00    -0.273 N 
ATOM     10  H   UNL     1      -1.828   0.559  -0.371  0.00  0.00    +0.173 HD
ATOM     11  C   UNL     1       0.122   0.205   0.086  0.00  0.00    +0.331 A 
ATOM     12  O   UNL     1       0.214   1.168   0.824  0.00  0.00    -0.246 OA
BRANCH   5  13
ATOM     13  N   UNL     1       2.207  -2.487  -1.130  0.00  0.00    -0.343 N 
ATOM     14  H   UNL     1       2.998  -2.373  -0.581  0.00  0.00    +0.144 HD
ATOM     15  H   UNL     1       2.189  -3.171  -1.818  0.00  0.00    +0.144 HD
ENDBRANCH   5  13
BRANCH   4  16
ATOM     16  C   UNL     1       2.452  -0.285   0.583  0.00  0.00    +0.128 C 
BRANCH  16  17
ATOM     17  C   UNL     1       2.481  -0.996   1.938  0.00  0.00    +0.021 C 
BRANCH  17  19
ATOM     18  C   UNL     1       3.825  -1.390   4.006  0.00  0.00    +0.004 C 
ATOM     19  C   UNL     1       3.796  -0.679   2.652  0.00  0.00    -0.002 C 
ENDBRANCH  17  19
ENDBRANCH  16  17
ENDBRANCH   4  16
ENDBRANCH   1   6
BRANCH   2  20
ATOM     20  C   UNL     1      -0.390  -4.045  -4.652  0.00  0.00    +0.075 A 
ATOM     21  C   UNL     1      -0.588  -4.066  -6.024  0.00  0.00    +0.024 A 
ATOM     22  C   UNL     1      -0.734  -5.295  -6.616  0.00  0.00    -0.040 A 
ATOM     23  C   UNL     1      -0.691  -6.413  -5.845  0.00  0.00    -0.007 A 
ATOM     24  S   UNL     1      -0.434  -5.783  -4.250  0.00  0.00    -0.088 S 
ATOM     25  C   UNL     1      -0.947  -5.404  -8.104  0.00  0.00    +0.044 C 
BRANCH  23  26
ATOM     26  C   UNL     1      -0.832  -7.851  -6.271  0.00  0.00    +0.039 C 
ATOM     27  C   UNL     1       0.547  -8.419  -6.613  0.00  0.00    +0.009 C 
ENDBRANCH  23  26
ENDBRANCH   2  20
BRANCH   1  28
ATOM     28  C   UNL     1      -0.311  -4.419  -1.864  0.00  0.00    +0.149 C 
BRANCH  28  29
ATOM     29  C   UNL     1      -1.748  -4.690  -1.497  0.00  0.00    -0.030 A 
ATOM     30  C   UNL     1      -2.171  -4.519  -0.192  0.00  0.00    +0.005 A 
ATOM     31  C   UNL     1      -3.490  -4.763   0.144  0.00  0.00    +0.000 A 
ATOM     32  C   UNL     1      -4.383  -5.187  -0.823  0.00  0.00    +0.000 A 
ATOM     33  C   UNL     1      -3.957  -5.362  -2.127  0.00  0.00    +0.000 A 
ATOM     34  C   UNL     1      -2.640  -5.114  -2.463  0.00  0.00    +0.005 A 
ENDBRANCH  28  29
ENDBRANCH   1  28
TORSDOF 9
