REMARK  Name = ZINC38979515
REMARK  7 active torsions:
REMARK  status: ('A' for Active; 'I' for Inactive)
REMARK    1  A    between atoms: C_1  and  C_2
REMARK    2  A    between atoms: C_2  and  C_3
REMARK    3  A    between atoms: C_5  and  C_17
REMARK    4  A    between atoms: C_7  and  C_15
REMARK    5  A    between atoms: C_8  and  N_14
REMARK    6  A    between atoms: N_29  and  C_30
REMARK    7  A    between atoms: C_30  and  C_31
REMARK                            x       y       z     vdW  Elec       q    Type
REMARK                         _______ _______ _______ _____ _____    ______ ____
ROOT
ATOM      1  C   UNL     1      -1.016  -0.958  -0.147  0.00  0.00    +0.069 C 
ATOM      2  C   UNL     1      -1.757  -1.148  -1.212  0.00  0.00    +0.030 C 
ATOM      3  C   UNL     1      -1.566  -0.851  -2.674  0.00  0.00    +0.098 C 
ATOM      4  C   UNL     1      -2.897  -0.300  -3.154  0.00  0.00    +0.097 C 
ATOM      5  C   UNL     1      -3.998  -0.327  -2.375  0.00  0.00    +0.195 C 
ATOM      6  O   UNL     1      -4.080  -0.791  -1.115  0.00  0.00    -0.448 OA
ATOM      7  C   UNL     1      -3.076  -1.714  -0.684  0.00  0.00    +0.343 C 
ATOM      8  N   UNL     1      -2.867  -1.669   0.767  0.00  0.00    -0.138 NA
ATOM      9  N   UNL     1      -1.713  -1.274   0.974  0.00  0.00    -0.155 NA
ENDROOT
BRANCH   3  10
ATOM     10  C   UNL     1      -0.478   0.175  -2.860  0.00  0.00    -0.034 A 
ATOM     11  C   UNL     1      -0.671   1.475  -2.419  0.00  0.00    +0.006 A 
ATOM     12  C   UNL     1       0.314   2.424  -2.580  0.00  0.00    +0.027 A 
ATOM     13  C   UNL     1       1.517   2.082  -3.191  0.00  0.00    +0.050 A 
ATOM     14  C   UNL     1       1.712   0.766  -3.637  0.00  0.00    +0.008 A 
ATOM     15  C   UNL     1       0.709  -0.184  -3.462  0.00  0.00    +0.015 A 
ATOM     16  C   UNL     1       3.062   0.721  -4.229  0.00  0.00    +0.008 A 
ATOM     17  C   UNL     1       3.812  -0.288  -4.828  0.00  0.00    +0.010 A 
ATOM     18  C   UNL     1       5.078  -0.014  -5.296  0.00  0.00    +0.001 A 
ATOM     19  C   UNL     1       5.608   1.262  -5.172  0.00  0.00    +0.002 A 
ATOM     20  C   UNL     1       4.877   2.269  -4.580  0.00  0.00    +0.026 A 
ATOM     21  C   UNL     1       3.595   2.011  -4.102  0.00  0.00    +0.050 A 
ATOM     22  N   UNL     1       2.656   2.813  -3.478  0.00  0.00    -0.340 N 
BRANCH  22  23
ATOM     23  C   UNL     1       2.841   4.233  -3.167  0.00  0.00    +0.119 C 
ATOM     24  C   UNL     1       3.457   4.373  -1.774  0.00  0.00    +0.027 C 
ENDBRANCH  22  23
ENDBRANCH   3  10
BRANCH   5  25
ATOM     25  N   UNL     1      -5.153   0.171  -2.924  0.00  0.00    -0.329 N 
ATOM     26  H   UNL     1      -5.149   0.518  -3.830  0.00  0.00    +0.145 HD
ATOM     27  H   UNL     1      -5.973   0.175  -2.406  0.00  0.00    +0.145 HD
ENDBRANCH   5  25
BRANCH   1  29
ATOM     28  C   UNL     1       1.360  -1.660  -0.263  0.00  0.00    +0.010 C 
ATOM     29  C   UNL     1       0.409  -0.466  -0.166  0.00  0.00    +0.054 C 
ENDBRANCH   1  29
BRANCH   4  30
ATOM     30  C   UNL     1      -2.986   0.262  -4.468  0.00  0.00    +0.101 C 
ATOM     31  N   UNL     1      -3.056   0.708  -5.511  0.00  0.00    -0.191 NA
ENDBRANCH   4  30
TORSDOF 5
