REMARK  Name = ZINC51675718
REMARK  6 active torsions:
REMARK  status: ('A' for Active; 'I' for Inactive)
REMARK    1  A    between atoms: C_1  and  C_2
REMARK    2  A    between atoms: C_5  and  C_7
REMARK    3  A    between atoms: N_9  and  C_10
REMARK    4  A    between atoms: N_18  and  C_19
REMARK    5  A    between atoms: C_24  and  C_29
REMARK    6  A    between atoms: C_26  and  C_28
REMARK                            x       y       z     vdW  Elec       q    Type
REMARK                         _______ _______ _______ _____ _____    ______ ____
ROOT
ATOM      1  C   UNL     1       3.902  -4.157  -0.043  0.00  0.00    +0.076 C 
ATOM      2  C   UNL     1       4.114  -4.629  -1.484  0.00  0.00    +0.041 C 
ATOM      3  C   UNL     1       5.040  -5.849  -1.487  0.00  0.00    +0.111 C 
ATOM      4  N   UNL     1       6.279  -5.503  -0.777  0.00  0.00    -0.286 N 
ATOM      5  C   UNL     1       6.185  -4.955   0.583  0.00  0.00    +0.111 C 
ATOM      6  C   UNL     1       5.246  -3.745   0.562  0.00  0.00    +0.041 C 
ATOM      7  C   UNL     1       7.480  -5.686  -1.362  0.00  0.00    +0.302 C 
ATOM      8  O   UNL     1       7.550  -6.225  -2.450  0.00  0.00    -0.253 OA
ATOM      9  N   UNL     1       8.602  -5.271  -0.742  0.00  0.00    -0.296 N 
ATOM     10  H   UNL     1       8.554  -4.909   0.156  0.00  0.00    +0.151 HD
ENDROOT
BRANCH   9  11
ATOM     11  C   UNL     1       9.895  -5.369  -1.424  0.00  0.00    +0.078 C 
ATOM     12  C   UNL     1      10.101  -4.134  -2.305  0.00  0.00    +0.022 C 
ATOM     13  C   UNL     1      11.451  -4.236  -3.017  0.00  0.00    +0.002 C 
ATOM     14  C   UNL     1      12.572  -4.314  -1.978  0.00  0.00    +0.003 C 
ATOM     15  C   UNL     1      12.365  -5.548  -1.098  0.00  0.00    -0.009 C 
ATOM     16  C   UNL     1      11.015  -5.447  -0.385  0.00  0.00    +0.009 C 
ATOM     17  C   UNL     1      10.809  -6.681   0.495  0.00  0.00    +0.009 C 
ATOM     18  C   UNL     1      12.389  -6.806  -1.969  0.00  0.00    +0.008 C 
ENDBRANCH   9  11
BRANCH   1  21
ATOM     19  C   UNL     1       1.657  -3.210  -0.029  0.00  0.00    +0.280 C 
ATOM     20  O   UNL     1       1.212  -4.343  -0.032  0.00  0.00    -0.267 OA
ATOM     21  N   UNL     1       2.990  -3.011  -0.034  0.00  0.00    -0.306 N 
ATOM     22  H   UNL     1       3.346  -2.108  -0.031  0.00  0.00    +0.149 HD
BRANCH  19  27
ATOM     23  C   UNL     1      -0.013   1.510   0.002  0.00  0.00    +0.086 C 
ATOM     24  C   UNL     1       0.006   0.004  -0.005  0.00  0.00    +0.103 A 
ATOM     25  C   UNL     1      -1.082  -0.797  -0.005  0.00  0.00    +0.045 A 
ATOM     26  C   UNL     1      -0.620  -2.123  -0.014  0.00  0.00    +0.055 A 
ATOM     27  C   UNL     1       0.744  -2.063  -0.019  0.00  0.00    +0.189 A 
ATOM     28  O   UNL     1       1.105  -0.762  -0.019  0.00  0.00    -0.455 OA
ENDBRANCH  19  27
ENDBRANCH   1  21
TORSDOF 3
