REMARK  Name = ZINC23358459
REMARK  9 active torsions:
REMARK  status: ('A' for Active; 'I' for Inactive)
REMARK    1  A    between atoms: C_1  and  C_2
REMARK    2  A    between atoms: C_5  and  C_8
REMARK    3  A    between atoms: C_11  and  S_14
REMARK    4  A    between atoms: N_12  and  N_13
REMARK    5  A    between atoms: S_14  and  C_15
REMARK    6  A    between atoms: C_15  and  C_17
REMARK    7  A    between atoms: C_15  and  C_18
REMARK    8  A    between atoms: N_20  and  C_21
REMARK    9  A    between atoms: C_21  and  C_22
REMARK                            x       y       z     vdW  Elec       q    Type
REMARK                         _______ _______ _______ _____ _____    ______ ____
ROOT
ATOM      1  C   UNL     1      -1.355  -4.425  -1.232  0.00  0.00    +0.182 A 
ATOM      2  N   UNL     1      -0.219  -4.279  -0.591  0.00  0.00    -0.127 NA
ATOM      3  N   UNL     1      -0.096  -3.066  -0.186  0.00  0.00    -0.121 NA
ATOM      4  C   UNL     1      -1.151  -2.364  -0.536  0.00  0.00    +0.209 A 
ATOM      5  N   UNL     1      -1.987  -3.203  -1.216  0.00  0.00    -0.224 N 
ENDROOT
BRANCH   1  10
ATOM      6  C   UNL     1      -3.324  -9.262  -3.649  0.00  0.00    +0.044 C 
ATOM      7  C   UNL     1      -2.808  -7.995  -3.016  0.00  0.00    -0.050 A 
ATOM      8  C   UNL     1      -3.358  -6.775  -3.369  0.00  0.00    +0.004 A 
ATOM      9  C   UNL     1      -2.891  -5.612  -2.793  0.00  0.00    +0.012 A 
ATOM     10  C   UNL     1      -1.861  -5.667  -1.853  0.00  0.00    +0.021 A 
ATOM     11  C   UNL     1      -1.307  -6.901  -1.505  0.00  0.00    +0.012 A 
ATOM     12  C   UNL     1      -1.787  -8.057  -2.085  0.00  0.00    +0.004 A 
ENDBRANCH   1  10
BRANCH   5  13
ATOM     13  N   UNL     1      -3.198  -2.893  -1.766  0.00  0.00    -0.295 N 
ATOM     14  H   UNL     1      -3.594  -1.870  -1.683  0.00  0.00    +0.163 HD
ATOM     15  H   UNL     1      -3.778  -3.666  -2.292  0.00  0.00    +0.163 HD
ENDBRANCH   5  13
BRANCH   4  16
ATOM     16  S   UNL     1      -1.430  -0.658  -0.198  0.00  0.00    -0.072 S 
BRANCH  16  17
ATOM     17  C   UNL     1       0.085  -0.266   0.713  0.00  0.00    +0.137 C 
ATOM     18  C   UNL     1       0.108  -1.051   2.026  0.00  0.00    +0.029 C 
BRANCH  17  19
ATOM     19  C   UNL     1       0.124   1.211   1.010  0.00  0.00    +0.226 C 
ATOM     20  O   UNL     1      -0.907   1.846   1.066  0.00  0.00    -0.275 OA
ATOM     21  N   UNL     1       1.307   1.827   1.207  0.00  0.00    -0.310 N 
ATOM     22  H   UNL     1       2.243   1.252   1.151  0.00  0.00    +0.149 HD
BRANCH  21  23
ATOM     23  C   UNL     1       1.345   3.263   1.496  0.00  0.00    +0.142 C 
BRANCH  23  24
ATOM     24  C   UNL     1       2.776   3.702   1.673  0.00  0.00    +0.005 A 
ATOM     25  C   UNL     1       3.294   3.873   2.943  0.00  0.00    +0.008 A 
ATOM     26  C   UNL     1       4.608   4.269   3.106  0.00  0.00    +0.000 A 
ATOM     27  C   UNL     1       5.402   4.506   2.000  0.00  0.00    +0.003 A 
ATOM     28  C   UNL     1       4.885   4.341   0.729  0.00  0.00    +0.038 A 
ATOM     29  C   UNL     1       3.570   3.938   0.564  0.00  0.00    +0.128 A 
ATOM     30  F   UNL     1       3.063   3.777  -0.677  0.00  0.00    -0.205 F 
ENDBRANCH  23  24
ENDBRANCH  21  23
ENDBRANCH  17  19
ENDBRANCH  16  17
ENDBRANCH   4  16
TORSDOF 7
