REMARK  Name = ZINC08735981
REMARK  6 active torsions:
REMARK  status: ('A' for Active; 'I' for Inactive)
REMARK    1  A    between atoms: C_1  and  C_2
REMARK    2  A    between atoms: C_3  and  N_13
REMARK    3  A    between atoms: C_14  and  C_16
REMARK    4  A    between atoms: C_16  and  C_17
REMARK    5  A    between atoms: C_17  and  C_18
REMARK    6  A    between atoms: C_17  and  C_19
REMARK                            x       y       z     vdW  Elec       q    Type
REMARK                         _______ _______ _______ _____ _____    ______ ____
ROOT
ATOM      1  C   UNL     1      -2.482  -0.423   0.349  0.00  0.00    +0.068 C 
ATOM      2  C   UNL     1      -2.414   1.081   0.296  0.00  0.00    +0.067 A 
ATOM      3  C   UNL     1      -1.193   1.714   0.129  0.00  0.00    +0.120 A 
ATOM      4  C   UNL     1      -1.159   3.118   0.077  0.00  0.00    +0.280 A 
ATOM      5  O   UNL     1      -0.101   3.708  -0.075  0.00  0.00    -0.265 OA
ATOM      6  N   UNL     1      -2.317   3.803   0.197  0.00  0.00    -0.267 N 
ATOM      7  C   UNL     1      -2.302   5.165   0.149  0.00  0.00    +0.096 A 
ATOM      8  C   UNL     1      -3.446   5.873   0.267  0.00  0.00    +0.018 A 
ATOM      9  C   UNL     1      -4.670   5.211   0.441  0.00  0.00    +0.005 A 
ATOM     10  C   UNL     1      -4.697   3.850   0.490  0.00  0.00    +0.047 A 
ATOM     11  C   UNL     1      -3.495   3.128   0.365  0.00  0.00    +0.141 A 
ATOM     12  N   UNL     1      -3.521   1.799   0.413  0.00  0.00    -0.232 NA
ENDROOT
BRANCH   3  13
ATOM     13  N   UNL     1      -0.011   0.966   0.007  0.00  0.00    -0.280 N 
ATOM     14  C   UNL     1       0.989   1.137   0.894  0.00  0.00    +0.218 C 
ATOM     15  O   UNL     1       0.902   1.994   1.749  0.00  0.00    -0.275 OA
ATOM     16  H   UNL     1       0.087   0.329  -0.717  0.00  0.00    +0.155 HD
BRANCH  14  17
ATOM     17  C   UNL     1       2.216   0.265   0.824  0.00  0.00    +0.099 C 
BRANCH  17  18
ATOM     18  C   UNL     1       3.189   0.664   1.936  0.00  0.00    -0.008 C 
ATOM     19  C   UNL     1       4.377  -0.301   1.944  0.00  0.00    +0.008 C 
ATOM     20  C   UNL     1       3.690   2.088   1.688  0.00  0.00    +0.008 C 
ENDBRANCH  17  18
ENDBRANCH  14  17
ENDBRANCH   3  13
TORSDOF 3
