REMARK  Name = ZINC03505401
REMARK  3 active torsions:
REMARK  status: ('A' for Active; 'I' for Inactive)
REMARK    1  A    between atoms: C_1  and  C_2
REMARK    2  A    between atoms: C_9  and  C_11
REMARK    3  A    between atoms: C_11  and  N_12
REMARK                            x       y       z     vdW  Elec       q    Type
REMARK                         _______ _______ _______ _____ _____    ______ ____
ROOT
ATOM      1  N   UNL     1      -0.335  -2.150  -3.025  0.00  0.00    -0.215 N 
ATOM      2  C   UNL     1       0.416  -1.678  -2.008  0.00  0.00    +0.247 C 
ATOM      3  O   UNL     1       1.063  -2.325  -1.213  0.00  0.00    -0.273 OA
ATOM      4  C   UNL     1       0.279  -0.174  -2.069  0.00  0.00    +0.113 C 
ATOM      5  C   UNL     1      -0.351   0.355  -0.785  0.00  0.00    +0.035 C 
ATOM      6  C   UNL     1      -0.506   1.875  -0.878  0.00  0.00    +0.003 C 
ATOM      7  C   UNL     1       0.867   2.514  -1.093  0.00  0.00    +0.000 C 
ATOM      8  C   UNL     1       1.475   1.993  -2.397  0.00  0.00    +0.003 C 
ATOM      9  C   UNL     1       1.639   0.473  -2.310  0.00  0.00    +0.035 C 
ATOM     10  N   UNL     1      -0.611   0.057  -3.213  0.00  0.00    -0.285 N 
ATOM     11  C   UNL     1      -0.918  -1.158  -3.708  0.00  0.00    +0.310 C 
ATOM     12  O   UNL     1      -1.643  -1.333  -4.668  0.00  0.00    -0.252 OA
ATOM     13  H   UNL     1      -0.918   0.914  -3.546  0.00  0.00    +0.151 HD
ENDROOT
BRANCH   1  14
ATOM     14  C   UNL     1      -0.493  -3.571  -3.341  0.00  0.00    +0.213 C 
BRANCH  14  22
ATOM     15  C   UNL     1      -3.772  -4.906  -1.099  0.00  0.00    +0.028 C 
ATOM     16  C   UNL     1      -3.084  -6.008  -1.907  0.00  0.00    +0.073 C 
ATOM     17  C   UNL     1      -4.103  -6.675  -2.844  0.00  0.00    +0.022 C 
ATOM     18  C   UNL     1      -3.379  -7.680  -3.743  0.00  0.00    +0.003 C 
ATOM     19  C   UNL     1      -2.344  -6.947  -4.600  0.00  0.00    +0.019 C 
ATOM     20  C   UNL     1      -1.309  -6.283  -3.687  0.00  0.00    +0.108 C 
ATOM     21  N   UNL     1      -2.011  -5.424  -2.723  0.00  0.00    -0.297 N 
ATOM     22  C   UNL     1      -1.673  -4.127  -2.587  0.00  0.00    +0.234 C 
ATOM     23  O   UNL     1      -2.319  -3.406  -1.856  0.00  0.00    -0.274 OA
ENDBRANCH  14  22
ENDBRANCH   1  14
TORSDOF 2
