REMARK  Name = ZINC13643889
REMARK  9 active torsions:
REMARK  status: ('A' for Active; 'I' for Inactive)
REMARK    1  A    between atoms: C_1  and  C_2
REMARK    2  A    between atoms: C_5  and  N_9
REMARK    3  A    between atoms: C_6  and  C_8
REMARK    4  A    between atoms: N_9  and  S_10
REMARK    5  A    between atoms: S_10  and  C_13
REMARK    6  A    between atoms: C_26  and  C_29
REMARK    7  A    between atoms: C_32  and  N_35
REMARK    8  A    between atoms: N_35  and  C_36
REMARK    9  A    between atoms: N_35  and  C_37
REMARK                            x       y       z     vdW  Elec       q    Type
REMARK                         _______ _______ _______ _____ _____    ______ ____
ROOT
ATOM      1  C   UNL     1       0.451  -2.876  -0.408  0.00  0.00    +0.109 A 
ATOM      2  C   UNL     1      -0.909  -2.621  -0.382  0.00  0.00    +0.030 A 
ATOM      3  C   UNL     1      -1.369  -1.321  -0.374  0.00  0.00    +0.025 A 
ATOM      4  C   UNL     1      -0.473  -0.258  -0.389  0.00  0.00    +0.031 A 
ATOM      5  C   UNL     1       0.900  -0.524  -0.402  0.00  0.00    -0.018 A 
ATOM      6  C   UNL     1       1.351  -1.827  -0.418  0.00  0.00    +0.034 A 
ATOM      7  C   UNL     1       1.820   0.633  -0.387  0.00  0.00    +0.049 C 
ATOM      8  C   UNL     1       3.192   0.557  -0.952  0.00  0.00    -0.023 C 
ATOM      9  C   UNL     1       3.525   1.755  -1.418  0.00  0.00    -0.030 C 
ATOM     10  C   UNL     1       2.364   2.732  -1.226  0.00  0.00    +0.033 C 
ATOM     11  C   UNL     1       1.159   1.782  -1.207  0.00  0.00    +0.029 C 
ATOM     12  C   UNL     1      -0.049   2.214  -0.395  0.00  0.00    +0.105 C 
ATOM     13  N   UNL     1      -0.965   1.052  -0.395  0.00  0.00    -0.336 N 
ATOM     14  H   UNL     1      -1.923   1.202  -0.402  0.00  0.00    +0.147 HD
ENDROOT
BRANCH  12  15
ATOM     15  C   UNL     1       0.364   2.552   1.014  0.00  0.00    -0.027 A 
ATOM     16  C   UNL     1       0.364   1.570   1.988  0.00  0.00    +0.007 A 
ATOM     17  C   UNL     1       0.747   1.875   3.279  0.00  0.00    +0.023 A 
ATOM     18  C   UNL     1       1.123   3.173   3.602  0.00  0.00    +0.029 A 
ATOM     19  C   UNL     1       1.116   4.158   2.623  0.00  0.00    +0.023 A 
ATOM     20  C   UNL     1       0.737   3.845   1.332  0.00  0.00    +0.007 A 
BRANCH  18  21
ATOM     21  N   UNL     1       1.506   3.486   4.908  0.00  0.00    -0.336 N 
ATOM     22  C   UNL     1       1.902   4.855   5.247  0.00  0.00    +0.129 C 
ATOM     23  C   UNL     1       1.512   2.445   5.939  0.00  0.00    +0.129 C 
ENDBRANCH  18  21
ENDBRANCH  12  15
BRANCH   1  24
ATOM     24  S   UNL     1       1.035  -4.538  -0.428  0.00  0.00    +0.072 S 
ATOM     25  O   UNL     1      -0.015  -5.331  -0.965  0.00  0.00    -0.150 OA
ATOM     26  O   UNL     1       2.334  -4.505  -1.002  0.00  0.00    -0.150 OA
BRANCH  24  27
ATOM     27  N   UNL     1       1.226  -5.010   1.148  0.00  0.00    -0.216 N 
ATOM     28  H   UNL     1       2.101  -5.273   1.473  0.00  0.00    +0.174 HD
BRANCH  27  33
ATOM     29  C   UNL     1      -3.238  -5.091   4.645  0.00  0.00    +0.044 C 
ATOM     30  C   UNL     1      -2.052  -5.069   3.715  0.00  0.00    -0.050 A 
ATOM     31  C   UNL     1      -2.212  -5.405   2.383  0.00  0.00    +0.005 A 
ATOM     32  C   UNL     1      -1.128  -5.387   1.529  0.00  0.00    +0.025 A 
ATOM     33  C   UNL     1       0.126  -5.029   2.009  0.00  0.00    +0.051 A 
ATOM     34  C   UNL     1       0.285  -4.696   3.348  0.00  0.00    -0.028 A 
ATOM     35  C   UNL     1      -0.805  -4.712   4.196  0.00  0.00    +0.008 A 
ATOM     36  C   UNL     1       1.644  -4.313   3.874  0.00  0.00    +0.046 C 
ENDBRANCH  27  33
ENDBRANCH  24  27
ENDBRANCH   1  24
TORSDOF 5
