REMARK  Name = ZINC35613637
REMARK  8 active torsions:
REMARK  status: ('A' for Active; 'I' for Inactive)
REMARK    1  A    between atoms: C_1  and  C_2
REMARK    2  A    between atoms: N_6  and  C_20
REMARK    3  A    between atoms: C_7  and  C_10
REMARK    4  A    between atoms: C_20  and  C_21
REMARK    5  A    between atoms: N_29  and  C_30
REMARK    6  A    between atoms: C_30  and  C_31
REMARK    7  A    between atoms: C_30  and  C_32
REMARK    8  A    between atoms: C_30  and  C_33
REMARK                            x       y       z     vdW  Elec       q    Type
REMARK                         _______ _______ _______ _____ _____    ______ ____
ROOT
ATOM      1  C   UNL     1      -0.010   1.538   0.020  0.00  0.00    +0.029 C 
ATOM      2  C   UNL     1       0.004   0.008   0.008  0.00  0.00    +0.131 C 
ATOM      3  C   UNL     1       0.784  -0.525  -1.184  0.00  0.00    +0.229 C 
ATOM      4  O   UNL     1       0.594  -0.095  -2.302  0.00  0.00    -0.274 OA
ATOM      5  N   UNL     1       1.679  -1.477  -0.956  0.00  0.00    -0.284 N 
ATOM      6  C   UNL     1       1.870  -1.972   0.420  0.00  0.00    +0.165 C 
ATOM      7  S   UNL     1       1.016  -0.661   1.399  0.00  0.00    -0.121 S 
ENDROOT
BRANCH   6   8
ATOM      8  C   UNL     1       1.206  -3.310   0.612  0.00  0.00    -0.013 A 
ATOM      9  C   UNL     1       0.079  -3.633  -0.122  0.00  0.00    +0.010 A 
ATOM     10  C   UNL     1      -0.534  -4.859   0.051  0.00  0.00    +0.050 A 
ATOM     11  C   UNL     1      -0.021  -5.770   0.963  0.00  0.00    +0.162 A 
ATOM     12  C   UNL     1       1.113  -5.447   1.699  0.00  0.00    +0.162 A 
ATOM     13  C   UNL     1       1.726  -4.216   1.517  0.00  0.00    +0.055 A 
ATOM     14  O   UNL     1       1.638  -6.329   2.593  0.00  0.00    -0.485 OA
ATOM     15  C   UNL     1       0.787  -7.401   3.014  0.00  0.00    +0.270 C 
ATOM     16  C   UNL     1       0.120  -8.002   1.770  0.00  0.00    +0.270 C 
ATOM     17  O   UNL     1      -0.638  -6.972   1.126  0.00  0.00    -0.485 OA
ENDBRANCH   6   8
BRANCH   5  18
ATOM     18  C   UNL     1       2.468  -2.031  -2.059  0.00  0.00    +0.113 C 
BRANCH  18  19
ATOM     19  C   UNL     1       3.755  -1.220  -2.223  0.00  0.00    +0.009 C 
ATOM     20  C   UNL     1       3.407   0.208  -2.650  0.00  0.00    +0.024 C 
ATOM     21  C   UNL     1       4.696   1.026  -2.779  0.00  0.00    +0.109 C 
ATOM     22  N   UNL     1       5.609   0.328  -3.695  0.00  0.00    -0.286 N 
ATOM     23  C   UNL     1       5.939  -1.078  -3.427  0.00  0.00    +0.109 C 
ATOM     24  C   UNL     1       4.637  -1.873  -3.290  0.00  0.00    +0.024 C 
ATOM     25  C   UNL     1       6.134   0.966  -4.759  0.00  0.00    +0.303 C 
ATOM     26  O   UNL     1       5.780   2.099  -5.024  0.00  0.00    -0.253 OA
ATOM     27  N   UNL     1       7.051   0.349  -5.530  0.00  0.00    -0.294 N 
ATOM     28  H   UNL     1       7.281  -0.578  -5.362  0.00  0.00    +0.151 HD
BRANCH  27  29
ATOM     29  C   UNL     1       7.700   1.078  -6.622  0.00  0.00    +0.028 C 
ATOM     30  C   UNL     1       8.448   2.287  -6.055  0.00  0.00    +0.031 C 
ATOM     31  C   UNL     1       8.690   0.154  -7.335  0.00  0.00    +0.031 C 
ATOM     32  C   UNL     1       6.641   1.556  -7.618  0.00  0.00    +0.031 C 
ENDBRANCH  27  29
ENDBRANCH  18  19
ENDBRANCH   5  18
TORSDOF 4
