REMARK  Name = ZINC36812497
REMARK  8 active torsions:
REMARK  status: ('A' for Active; 'I' for Inactive)
REMARK    1  A    between atoms: C_1  and  C_2
REMARK    2  A    between atoms: C_2  and  C_3
REMARK    3  A    between atoms: C_3  and  C_27
REMARK    4  A    between atoms: N_6  and  C_10
REMARK    5  A    between atoms: C_10  and  C_11
REMARK    6  A    between atoms: N_13  and  C_14
REMARK    7  A    between atoms: C_14  and  C_15
REMARK    8  A    between atoms: N_17  and  C_18
REMARK                            x       y       z     vdW  Elec       q    Type
REMARK                         _______ _______ _______ _____ _____    ______ ____
ROOT
ATOM      1  C   UNL     1      -4.191   1.350  -1.601  0.00  0.00    +0.213 C 
ENDROOT
BRANCH   1   5
ATOM      2  C   UNL     1      -1.403  -0.554  -0.052  0.00  0.00    +0.138 C 
ATOM      3  C   UNL     1      -2.171  -0.059  -1.262  0.00  0.00    +0.251 C 
ATOM      4  O   UNL     1      -1.921  -0.278  -2.427  0.00  0.00    -0.272 OA
ATOM      5  N   UNL     1      -3.189   0.676  -0.772  0.00  0.00    -0.215 N 
ATOM      6  C   UNL     1      -3.172   0.713   0.566  0.00  0.00    +0.310 C 
ATOM      7  O   UNL     1      -3.990   1.313   1.235  0.00  0.00    -0.252 OA
ATOM      8  N   UNL     1      -2.148   0.012   1.086  0.00  0.00    -0.281 N 
ATOM      9  H   UNL     1      -1.942  -0.099   2.027  0.00  0.00    +0.152 HD
BRANCH   2  10
ATOM     10  C   UNL     1      -1.411  -2.060   0.006  0.00  0.00    -0.015 A 
ATOM     11  C   UNL     1      -0.375  -2.778  -0.561  0.00  0.00    +0.007 A 
ATOM     12  C   UNL     1      -0.382  -4.159  -0.508  0.00  0.00    +0.020 A 
ATOM     13  C   UNL     1      -1.426  -4.823   0.111  0.00  0.00    +0.041 A 
ATOM     14  C   UNL     1      -2.463  -4.103   0.678  0.00  0.00    +0.020 A 
ATOM     15  C   UNL     1      -2.452  -2.722   0.630  0.00  0.00    +0.007 A 
ATOM     16 CL   UNL     1      -1.436  -6.557   0.177  0.00  0.00    -0.084 Cl
ENDBRANCH   2  10
BRANCH   2  18
ATOM     17  C   UNL     1       0.013   1.505  -0.058  0.00  0.00    +0.007 C 
ATOM     18  C   UNL     1       0.032  -0.025  -0.071  0.00  0.00    +0.037 C 
ENDBRANCH   2  18
ENDBRANCH   1   5
BRANCH   1  19
ATOM     19  C   UNL     1      -5.351   0.420  -1.843  0.00  0.00    +0.231 C 
ATOM     20  O   UNL     1      -5.343  -0.696  -1.370  0.00  0.00    -0.274 OA
ATOM     21  N   UNL     1      -6.399   0.829  -2.586  0.00  0.00    -0.305 N 
ATOM     22  H   UNL     1      -6.406   1.722  -2.965  0.00  0.00    +0.149 HD
BRANCH  21  23
ATOM     23  C   UNL     1      -7.527  -0.075  -2.822  0.00  0.00    +0.200 C 
BRANCH  23  24
ATOM     24  C   UNL     1      -8.557   0.619  -3.675  0.00  0.00    +0.234 C 
ATOM     25  O   UNL     1      -8.368   1.757  -4.050  0.00  0.00    -0.274 OA
ATOM     26  N   UNL     1      -9.690  -0.025  -4.022  0.00  0.00    -0.282 N 
ATOM     27  H   UNL     1      -9.813  -0.956  -3.778  0.00  0.00    +0.155 HD
BRANCH  26  28
ATOM     28  C   UNL     1     -10.689   0.650  -4.736  0.00  0.00    +0.072 A 
ATOM     29  C   UNL     1     -10.343   1.612  -5.675  0.00  0.00    +0.029 A 
ATOM     30  C   UNL     1     -11.328   2.278  -6.378  0.00  0.00    +0.043 A 
ATOM     31  C   UNL     1     -12.662   1.986  -6.149  0.00  0.00    +0.161 A 
ATOM     32  C   UNL     1     -13.013   1.026  -5.212  0.00  0.00    +0.195 A 
ATOM     33  C   UNL     1     -12.027   0.353  -4.509  0.00  0.00    +0.182 A 
ATOM     34  F   UNL     1     -12.367  -0.587  -3.600  0.00  0.00    -0.200 F 
ATOM     35  F   UNL     1     -14.315   0.744  -4.989  0.00  0.00    -0.199 F 
ATOM     36  F   UNL     1     -13.623   2.639  -6.838  0.00  0.00    -0.202 F 
ENDBRANCH  26  28
ENDBRANCH  23  24
ENDBRANCH  21  23
ENDBRANCH   1  19
TORSDOF 7
