REMARK  Name = ZINC65815775
REMARK  4 active torsions:
REMARK  status: ('A' for Active; 'I' for Inactive)
REMARK    1  A    between atoms: C_3  and  N_24
REMARK    2  A    between atoms: C_4  and  N_10
REMARK    3  A    between atoms: C_6  and  C_7
REMARK    4  A    between atoms: C_17  and  C_18
REMARK                            x       y       z     vdW  Elec       q    Type
REMARK                         _______ _______ _______ _____ _____    ______ ____
ROOT
ATOM      1  C   UNL     1       0.014   1.420   0.020  0.00  0.00    +0.015 A 
ATOM      2  C   UNL     1       1.111   1.983  -0.594  0.00  0.00    +0.026 A 
ATOM      3  C   UNL     1       2.322   1.301  -0.620  0.00  0.00    +0.051 A 
ATOM      4  C   UNL     1       2.431   0.042  -0.023  0.00  0.00    +0.057 A 
ATOM      5  C   UNL     1       1.333  -0.526   0.594  0.00  0.00    +0.038 A 
ATOM      6  C   UNL     1       0.115   0.161   0.618  0.00  0.00    +0.038 A 
ENDROOT
BRANCH   4   7
ATOM      7  N   UNL     1       3.653  -0.645  -0.051  0.00  0.00    -0.268 N 
ATOM      8  C   UNL     1       3.673  -1.989   0.048  0.00  0.00    +0.307 C 
ATOM      9  O   UNL     1       2.630  -2.614   0.056  0.00  0.00    -0.252 OA
ATOM     10  N   UNL     1       4.850  -2.640   0.137  0.00  0.00    -0.282 N 
ATOM     11  C   UNL     1       6.176  -2.007   0.252  0.00  0.00    +0.110 C 
ATOM     12  C   UNL     1       7.069  -3.076   0.929  0.00  0.00    +0.021 C 
ATOM     13  C   UNL     1       6.533  -4.383   0.286  0.00  0.00    +0.024 C 
ATOM     14  C   UNL     1       5.022  -4.100   0.143  0.00  0.00    +0.081 C 
ATOM     15  H   UNL     1       4.484  -0.153  -0.141  0.00  0.00    +0.156 HD
BRANCH  14  16
ATOM     16  C   UNL     1       4.507  -4.691  -1.171  0.00  0.00    +0.010 C 
ATOM     17  C   UNL     1       4.700  -6.208  -1.158  0.00  0.00    +0.005 C 
ATOM     18  C   UNL     1       4.185  -6.799  -2.473  0.00  0.00    +0.000 C 
ATOM     19  C   UNL     1       4.965  -6.196  -3.643  0.00  0.00    +0.000 C 
ATOM     20  C   UNL     1       4.773  -4.678  -3.655  0.00  0.00    +0.000 C 
ATOM     21  C   UNL     1       5.287  -4.088  -2.341  0.00  0.00    +0.005 C 
ENDBRANCH  14  16
ENDBRANCH   4   7
BRANCH   3  22
ATOM     22  N   UNL     1       3.429   1.874  -1.241  0.00  0.00    -0.328 N 
ATOM     23  C   UNL     1       3.690   1.641  -2.668  0.00  0.00    +0.105 C 
ATOM     24  C   UNL     1       3.845   2.994  -3.369  0.00  0.00    +0.019 C 
ATOM     25  C   UNL     1       4.925   3.812  -2.657  0.00  0.00    +0.003 C 
ATOM     26  C   UNL     1       4.505   4.064  -1.207  0.00  0.00    +0.019 C 
ATOM     27  C   UNL     1       4.355   2.728  -0.484  0.00  0.00    +0.105 C 
ENDBRANCH   3  22
BRANCH   6  28
ATOM     28  C   UNL     1      -1.060  -0.441   1.276  0.00  0.00    +0.242 C 
ATOM     29  O   UNL     1      -0.971  -1.536   1.796  0.00  0.00    -0.270 OA
ATOM     30  N   UNL     1      -2.233   0.222   1.299  0.00  0.00    -0.325 N 
ATOM     31  H   UNL     1      -2.304   1.096   0.884  0.00  0.00    +0.145 HD
ATOM     32  H   UNL     1      -3.006  -0.174   1.731  0.00  0.00    +0.145 HD
ENDBRANCH   6  28
TORSDOF 4
