REMARK  Name = ZINC20701478
REMARK  7 active torsions:
REMARK  status: ('A' for Active; 'I' for Inactive)
REMARK    1  A    between atoms: C_1  and  C_2
REMARK    2  A    between atoms: C_2  and  C_3
REMARK    3  A    between atoms: C_2  and  N_4
REMARK    4  A    between atoms: N_4  and  S_5
REMARK    5  A    between atoms: S_5  and  C_8
REMARK    6  A    between atoms: C_21  and  C_24
REMARK    7  A    between atoms: C_29  and  O_30
REMARK                            x       y       z     vdW  Elec       q    Type
REMARK                         _______ _______ _______ _____ _____    ______ ____
ROOT
ATOM      1  C   UNL     1      -5.197   3.282   1.989  0.00  0.00    +0.106 A 
ATOM      2  C   UNL     1      -4.925   3.236   3.345  0.00  0.00    +0.030 A 
ATOM      3  C   UNL     1      -3.786   2.607   3.802  0.00  0.00    +0.025 A 
ATOM      4  C   UNL     1      -2.902   2.017   2.907  0.00  0.00    +0.031 A 
ATOM      5  C   UNL     1      -3.189   2.058   1.538  0.00  0.00    -0.018 A 
ATOM      6  C   UNL     1      -4.327   2.692   1.090  0.00  0.00    +0.034 A 
ATOM      7  C   UNL     1      -2.234   1.398   0.620  0.00  0.00    +0.049 C 
ATOM      8  C   UNL     1      -2.088   1.821  -0.796  0.00  0.00    -0.023 C 
ATOM      9  C   UNL     1      -0.827   1.630  -1.167  0.00  0.00    -0.030 C 
ATOM     10  C   UNL     1      -0.013   1.086   0.008  0.00  0.00    +0.033 C 
ATOM     11  C   UNL     1      -0.807   1.618   1.208  0.00  0.00    +0.029 C 
ATOM     12  C   UNL     1      -0.767   0.772   2.477  0.00  0.00    +0.109 C 
ATOM     13  N   UNL     1      -1.734   1.417   3.392  0.00  0.00    -0.336 N 
ATOM     14  H   UNL     1      -1.542   1.429   4.475  0.00  0.00    +0.147 HD
ENDROOT
BRANCH  12  15
ATOM     15  C   UNL     1       0.615   0.798   3.078  0.00  0.00    +0.017 A 
ATOM     16  C   UNL     1       0.917   1.704   4.077  0.00  0.00    +0.029 A 
ATOM     17  C   UNL     1       2.184   1.725   4.634  0.00  0.00    +0.043 A 
ATOM     18  C   UNL     1       3.154   0.846   4.184  0.00  0.00    +0.043 A 
ATOM     19  C   UNL     1       2.857  -0.057   3.181  0.00  0.00    +0.084 A 
ATOM     20  C   UNL     1       1.585  -0.083   2.625  0.00  0.00    +0.140 A 
ATOM     21 CL   UNL     1       4.074  -1.159   2.616  0.00  0.00    -0.080 Cl
ATOM     22 CL   UNL     1       2.559   2.859   5.893  0.00  0.00    -0.083 Cl
BRANCH  20  23
ATOM     23  O   UNL     1       1.291  -0.971   1.639  0.00  0.00    -0.505 OA
ATOM     24  H   UNL     1       2.061  -1.670   1.280  0.00  0.00    +0.292 HD
ENDBRANCH  20  23
ENDBRANCH  12  15
BRANCH   1  25
ATOM     25  S   UNL     1      -6.650   4.092   1.408  0.00  0.00    +0.059 S 
ATOM     26  O   UNL     1      -6.953   3.523   0.142  0.00  0.00    -0.153 OA
ATOM     27  O   UNL     1      -7.575   4.089   2.487  0.00  0.00    -0.153 OA
BRANCH  25  28
ATOM     28  N   UNL     1      -6.250   5.675   1.132  0.00  0.00    -0.187 NA
ATOM     29  H   UNL     1      -6.586   6.446   1.842  0.00  0.00    +0.148 HD
BRANCH  28  31
ATOM     30  C   UNL     1      -5.684   7.339  -0.569  0.00  0.00    +0.025 C 
ATOM     31  C   UNL     1      -5.284   6.015   0.085  0.00  0.00    +0.070 C 
ATOM     32  C   UNL     1      -3.890   6.152   0.702  0.00  0.00    +0.025 C 
ENDBRANCH  28  31
ENDBRANCH  25  28
ENDBRANCH   1  25
TORSDOF 5
