REMARK  Name = ZINC16066286
REMARK  6 active torsions:
REMARK  status: ('A' for Active; 'I' for Inactive)
REMARK    1  A    between atoms: C_1  and  C_2
REMARK    2  A    between atoms: C_2  and  C_4
REMARK    3  A    between atoms: C_2  and  S_15
REMARK    4  A    between atoms: N_6  and  C_7
REMARK    5  A    between atoms: S_15  and  C_16
REMARK    6  A    between atoms: N_20  and  C_31
REMARK                            x       y       z     vdW  Elec       q    Type
REMARK                         _______ _______ _______ _____ _____    ______ ____
ROOT
ATOM      1  C   UNL     1       0.394   7.866  -0.498  0.00  0.00    +0.172 A 
ATOM      2  N   UNL     1      -0.104   6.716  -0.871  0.00  0.00    -0.202 NA
ATOM      3  C   UNL     1       0.491   5.560  -0.483  0.00  0.00    +0.190 A 
ATOM      4  N   UNL     1       0.253   4.287  -0.667  0.00  0.00    -0.143 NA
ATOM      5  N   UNL     1       1.216   3.500  -0.031  0.00  0.00    -0.194 N 
ATOM      6  C   UNL     1       2.119   4.281   0.601  0.00  0.00    +0.284 A 
ATOM      7  O   UNL     1       3.083   3.910   1.251  0.00  0.00    -0.265 OA
ATOM      8  C   UNL     1       1.710   5.659   0.347  0.00  0.00    +0.106 A 
ATOM      9  C   UNL     1       2.187   6.905   0.699  0.00  0.00    +0.037 A 
ATOM     10  N   UNL     1       1.515   7.995   0.293  0.00  0.00    -0.323 N 
ATOM     11  C   UNL     1       1.893   9.367   0.657  0.00  0.00    +0.124 C 
ATOM     12  C   UNL     1       3.398   9.508   0.869  0.00  0.00    +0.022 C 
ATOM     13  C   UNL     1       3.707   9.276   2.353  0.00  0.00    +0.002 C 
ATOM     14  C   UNL     1       3.259   7.870   2.740  0.00  0.00    +0.006 C 
ATOM     15  C   UNL     1       3.449   6.973   1.512  0.00  0.00    +0.054 C 
ENDROOT
BRANCH   5  16
ATOM     16  C   UNL     1       1.238   2.102  -0.041  0.00  0.00    +0.069 A 
ATOM     17  C   UNL     1       0.048   1.386  -0.027  0.00  0.00    +0.028 A 
ATOM     18  C   UNL     1       0.073   0.006  -0.037  0.00  0.00    +0.002 A 
ATOM     19  C   UNL     1       1.282  -0.665  -0.062  0.00  0.00    +0.000 A 
ATOM     20  C   UNL     1       2.470   0.044  -0.075  0.00  0.00    +0.002 A 
ATOM     21  C   UNL     1       2.451   1.425  -0.065  0.00  0.00    +0.028 A 
ENDBRANCH   5  16
BRANCH   1  22
ATOM     22  S   UNL     1      -0.415   9.335  -1.037  0.00  0.00    -0.075 S 
BRANCH  22  24
ATOM     23  C   UNL     1      -2.695   7.830  -1.073  0.00  0.00    +0.029 C 
ATOM     24  C   UNL     1      -1.766   8.614  -2.002  0.00  0.00    +0.137 C 
BRANCH  24  25
ATOM     25  C   UNL     1      -2.544   9.714  -2.678  0.00  0.00    +0.230 C 
ATOM     26  O   UNL     1      -2.472  10.851  -2.263  0.00  0.00    -0.274 OA
ATOM     27  N   UNL     1      -3.319   9.434  -3.744  0.00  0.00    -0.282 N 
ATOM     28  H   UNL     1      -3.327   8.538  -4.116  0.00  0.00    +0.155 HD
BRANCH  27  29
ATOM     29  C   UNL     1      -4.114  10.436  -4.315  0.00  0.00    +0.072 A 
ATOM     30  C   UNL     1      -3.662  11.748  -4.346  0.00  0.00    +0.064 A 
ATOM     31  C   UNL     1      -4.449  12.736  -4.911  0.00  0.00    +0.125 A 
ATOM     32  C   UNL     1      -5.686  12.417  -5.445  0.00  0.00    +0.041 A 
ATOM     33  C   UNL     1      -6.138  11.111  -5.415  0.00  0.00    +0.043 A 
ATOM     34  C   UNL     1      -5.354  10.118  -4.857  0.00  0.00    +0.145 A 
ATOM     35  F   UNL     1      -5.795   8.841  -4.833  0.00  0.00    -0.204 F 
ATOM     36  F   UNL     1      -4.010  14.013  -4.941  0.00  0.00    -0.205 F 
ENDBRANCH  27  29
ENDBRANCH  24  25
ENDBRANCH  22  24
ENDBRANCH   1  22
TORSDOF 5
