REMARK  Name = ZINC14291571
REMARK  2 active torsions:
REMARK  status: ('A' for Active; 'I' for Inactive)
REMARK    1  A    between atoms: C_6  and  C_7
REMARK    2  A    between atoms: N_9  and  C_10
REMARK                            x       y       z     vdW  Elec       q    Type
REMARK                         _______ _______ _______ _____ _____    ______ ____
ROOT
ATOM      1  C   UNL     1       0.097  -4.891   0.076  0.00  0.00    +0.248 C 
ATOM      2  O   UNL     1      -1.076  -4.571   0.089  0.00  0.00    -0.270 OA
ATOM      3  N   UNL     1       1.052  -3.946  -0.030  0.00  0.00    -0.276 N 
ATOM      4  H   UNL     1       1.984  -4.205  -0.110  0.00  0.00    +0.155 HD
ENDROOT
BRANCH   3   5
ATOM      5  C   UNL     1       0.699  -2.587  -0.025  0.00  0.00    +0.119 A 
ATOM      6  C   UNL     1       1.199  -1.742   0.949  0.00  0.00    +0.142 A 
ATOM      7  N   UNL     1       0.846  -0.458   0.927  0.00  0.00    -0.228 NA
ATOM      8  C   UNL     1       0.041   0.006   0.006  0.00  0.00    +0.199 A 
ATOM      9  N   UNL     1      -0.500  -0.756  -0.994  0.00  0.00    -0.170 N 
ATOM     10  C   UNL     1      -0.162  -2.079  -1.006  0.00  0.00    +0.296 A 
ATOM     11  O   UNL     1      -0.609  -2.817  -1.870  0.00  0.00    -0.264 OA
ATOM     12  N   UNL     1      -1.337  -0.094  -1.887  0.00  0.00    -0.163 NA
ATOM     13  C   UNL     1      -1.587   1.175  -1.775  0.00  0.00    +0.182 A 
ATOM     14  S   UNL     1      -0.633   1.618  -0.332  0.00  0.00    -0.036 S 
ENDBRANCH   3   5
BRANCH   1  20
ATOM     15  C   UNL     1       1.821  -6.687   0.155  0.00  0.00    +0.014 A 
ATOM     16  C   UNL     1       2.168  -8.018   0.254  0.00  0.00    +0.021 A 
ATOM     17  C   UNL     1       1.184  -8.987   0.363  0.00  0.00    +0.041 A 
ATOM     18  C   UNL     1      -0.153  -8.626   0.378  0.00  0.00    +0.021 A 
ATOM     19  C   UNL     1      -0.512  -7.297   0.286  0.00  0.00    +0.014 A 
ATOM     20  C   UNL     1       0.475  -6.316   0.176  0.00  0.00    +0.037 A 
ATOM     21 CL   UNL     1       1.629 -10.661   0.481  0.00  0.00    -0.084 Cl
ENDBRANCH   1  20
TORSDOF 2
