REMARK  Name = ZINC40982311
REMARK  10 active torsions:
REMARK  status: ('A' for Active; 'I' for Inactive)
REMARK    1  A    between atoms: C_1  and  C_2
REMARK    2  A    between atoms: C_2  and  C_3
REMARK    3  A    between atoms: C_3  and  S_4
REMARK    4  A    between atoms: S_4  and  C_5
REMARK    5  A    between atoms: C_10  and  C_19
REMARK    6  A    between atoms: C_12  and  C_16
REMARK    7  A    between atoms: C_13  and  C_15
REMARK    8  A    between atoms: C_24  and  O_25
REMARK    9  A    between atoms: O_25  and  C_26
REMARK   10  A    between atoms: C_26  and  C_27
REMARK                            x       y       z     vdW  Elec       q    Type
REMARK                         _______ _______ _______ _____ _____    ______ ____
ROOT
ATOM      1  C   UNL     1      -3.193  -2.614  -0.411  0.00  0.00    +0.210 A 
ATOM      2  N   UNL     1      -4.272  -1.821  -0.331  0.00  0.00    -0.187 NA
ATOM      3  C   UNL     1      -5.337  -2.553  -0.143  0.00  0.00    +0.219 A 
ATOM      4  N   UNL     1      -4.954  -3.853  -0.104  0.00  0.00    -0.220 N 
ATOM      5  N   UNL     1      -3.571  -3.867  -0.281  0.00  0.00    -0.141 NA
ATOM      6  C   UNL     1      -5.884  -4.964   0.081  0.00  0.00    +0.181 C 
ATOM      7  C   UNL     1      -7.224  -4.430   0.510  0.00  0.00    +0.060 C 
ATOM      8  C   UNL     1      -7.546  -3.129   0.453  0.00  0.00    +0.018 C 
ATOM      9  N   UNL     1      -6.665  -2.176   0.005  0.00  0.00    -0.287 N 
ATOM     10  C   UNL     1      -8.921  -2.700   0.896  0.00  0.00    +0.061 C 
ATOM     11  H   UNL     1      -6.959  -1.275  -0.200  0.00  0.00    +0.155 HD
ENDROOT
BRANCH   6  12
ATOM     12  C   UNL     1      -6.034  -5.715  -1.217  0.00  0.00    +0.023 A 
ATOM     13  C   UNL     1      -6.505  -5.065  -2.341  0.00  0.00    +0.009 A 
ATOM     14  C   UNL     1      -6.643  -5.754  -3.532  0.00  0.00    +0.001 A 
ATOM     15  C   UNL     1      -6.311  -7.094  -3.601  0.00  0.00    +0.004 A 
ATOM     16  C   UNL     1      -5.840  -7.749  -2.479  0.00  0.00    +0.046 A 
ATOM     17  C   UNL     1      -5.695  -7.059  -1.284  0.00  0.00    +0.127 A 
BRANCH  17  18
ATOM     18  O   UNL     1      -5.226  -7.699  -0.181  0.00  0.00    -0.487 OA
BRANCH  18  19
ATOM     19  C   UNL     1      -4.897  -9.082  -0.324  0.00  0.00    +0.266 C 
BRANCH  19  20
ATOM     20  C   UNL     1      -4.398  -9.618   0.993  0.00  0.00    +0.008 A 
ATOM     21  C   UNL     1      -4.327  -8.788   2.095  0.00  0.00    +0.010 A 
ATOM     22  C   UNL     1      -3.870  -9.279   3.303  0.00  0.00    +0.020 A 
ATOM     23  C   UNL     1      -3.483 -10.603   3.410  0.00  0.00    +0.042 A 
ATOM     24  C   UNL     1      -3.554 -11.435   2.307  0.00  0.00    +0.040 A 
ATOM     25  C   UNL     1      -4.017 -10.944   1.099  0.00  0.00    +0.049 A 
ATOM     26 CL   UNL     1      -4.112 -11.989  -0.284  0.00  0.00    -0.083 Cl
ATOM     27 CL   UNL     1      -2.908 -11.220   4.927  0.00  0.00    -0.083 Cl
ENDBRANCH  19  20
ENDBRANCH  18  19
ENDBRANCH  17  18
ENDBRANCH   6  12
BRANCH   7  28
ATOM     28  C   UNL     1      -8.190  -5.343   0.996  0.00  0.00    +0.241 C 
ATOM     29  O   UNL     1      -8.137  -5.728   2.150  0.00  0.00    -0.271 OA
ATOM     30  N   UNL     1      -9.168  -5.786   0.182  0.00  0.00    -0.325 N 
ATOM     31  H   UNL     1      -9.210  -5.479  -0.737  0.00  0.00    +0.145 HD
ATOM     32  H   UNL     1      -9.830  -6.412   0.515  0.00  0.00    +0.145 HD
ENDBRANCH   7  28
BRANCH   1  33
ATOM     33  S   UNL     1      -1.537  -2.065  -0.659  0.00  0.00    -0.084 S 
BRANCH  33  34
ATOM     34  C   UNL     1      -1.683  -0.260  -0.758  0.00  0.00    +0.077 C 
BRANCH  34  36
ATOM     35  C   UNL     1      -0.421   1.875  -1.059  0.00  0.00    +0.004 C 
ATOM     36  C   UNL     1      -0.298   0.353  -0.975  0.00  0.00    +0.008 C 
ENDBRANCH  34  36
ENDBRANCH  33  34
ENDBRANCH   1  33
TORSDOF 8
