REMARK  Name = ZINC09495549
REMARK  3 active torsions:
REMARK  status: ('A' for Active; 'I' for Inactive)
REMARK    1  A    between atoms: C_5  and  C_7
REMARK    2  A    between atoms: C_13  and  C_15
REMARK    3  A    between atoms: C_15  and  N_16
REMARK                            x       y       z     vdW  Elec       q    Type
REMARK                         _______ _______ _______ _____ _____    ______ ____
ROOT
ATOM      1  C   UNL     1      -0.018   1.503   0.010  0.00  0.00    +0.213 C 
ENDROOT
BRANCH   1   2
ATOM      2  N   UNL     1       1.356   2.010  -0.000  0.00  0.00    -0.215 N 
ATOM      3  C   UNL     1       2.055   2.278  -1.120  0.00  0.00    +0.247 C 
ATOM      4  O   UNL     1       1.679   2.145  -2.265  0.00  0.00    -0.273 OA
ATOM      5  C   UNL     1       3.411   2.779  -0.652  0.00  0.00    +0.113 C 
ATOM      6  C   UNL     1       3.534   4.264  -1.060  0.00  0.00    +0.035 C 
ATOM      7  C   UNL     1       4.528   4.934  -0.153  0.00  0.00    +0.003 C 
ATOM      8  C   UNL     1       5.953   4.951  -0.741  0.00  0.00    +0.000 C 
ATOM      9  C   UNL     1       6.338   3.620  -1.414  0.00  0.00    +0.000 C 
ATOM     10  C   UNL     1       5.881   2.426  -0.619  0.00  0.00    +0.003 C 
ATOM     11  C   UNL     1       4.513   1.973  -1.163  0.00  0.00    +0.035 C 
ATOM     12  N   UNL     1       3.303   2.723   0.820  0.00  0.00    -0.285 N 
ATOM     13  C   UNL     1       2.069   2.269   1.101  0.00  0.00    +0.310 C 
ATOM     14  O   UNL     1       1.649   2.110   2.231  0.00  0.00    -0.252 OA
ATOM     15  H   UNL     1       3.988   2.969   1.460  0.00  0.00    +0.151 HD
ENDBRANCH   1   2
BRANCH   1  21
ATOM     16  C   UNL     1      -1.187  -2.169  -0.004  0.00  0.00    +0.167 C 
ATOM     17  N   UNL     1      -1.156  -0.694   0.009  0.00  0.00    -0.283 N 
ATOM     18  C   UNL     1      -2.454  -0.025   0.025  0.00  0.00    +0.120 C 
ATOM     19  C   UNL     1      -3.507  -0.879   0.791  0.00  0.00    +0.090 C 
ATOM     20  S   UNL     1      -2.978  -2.551   0.204  0.00  0.00    -0.132 S 
ATOM     21  C   UNL     1       0.002  -0.004   0.002  0.00  0.00    +0.235 C 
ATOM     22  O   UNL     1       1.060  -0.596  -0.011  0.00  0.00    -0.274 OA
BRANCH  16  27
ATOM     23  C   UNL     1       0.489  -2.356  -3.382  0.00  0.00    +0.001 A 
ATOM     24  C   UNL     1       0.263  -3.675  -3.731  0.00  0.00    +0.003 A 
ATOM     25  C   UNL     1      -0.433  -4.507  -2.875  0.00  0.00    +0.039 A 
ATOM     26  C   UNL     1      -0.903  -4.020  -1.667  0.00  0.00    +0.129 A 
ATOM     27  C   UNL     1      -0.675  -2.700  -1.318  0.00  0.00    +0.018 A 
ATOM     28  C   UNL     1       0.015  -1.868  -2.179  0.00  0.00    +0.009 A 
ATOM     29  F   UNL     1      -1.583  -4.833  -0.830  0.00  0.00    -0.205 F 
ENDBRANCH  16  27
ENDBRANCH   1  21
TORSDOF 3
