REMARK  Name = ZINC10707317
REMARK  10 active torsions:
REMARK  status: ('A' for Active; 'I' for Inactive)
REMARK    1  A    between atoms: C_1  and  C_2
REMARK    2  A    between atoms: C_10  and  C_16
REMARK    3  A    between atoms: N_18  and  C_19
REMARK    4  A    between atoms: C_19  and  C_20
REMARK    5  A    between atoms: C_25  and  C_26
REMARK    6  A    between atoms: C_26  and  S_27
REMARK    7  A    between atoms: S_27  and  N_30
REMARK    8  A    between atoms: N_30  and  C_31
REMARK    9  A    between atoms: C_31  and  C_32
REMARK   10  A    between atoms: C_31  and  C_33
REMARK                            x       y       z     vdW  Elec       q    Type
REMARK                         _______ _______ _______ _____ _____    ______ ____
ROOT
ATOM      1  C   UNL     1       5.012  -0.574   1.347  0.00  0.00    +0.244 C 
ATOM      2  O   UNL     1       5.299  -0.381   0.181  0.00  0.00    -0.270 OA
ATOM      3  N   UNL     1       3.926  -1.307   1.661  0.00  0.00    -0.307 N 
ATOM      4  H   UNL     1       3.697  -1.460   2.591  0.00  0.00    +0.149 HD
ENDROOT
BRANCH   1  13
ATOM      5  C   UNL     1      11.671   4.141   1.387  0.00  0.00    +0.008 C 
ATOM      6  C   UNL     1      10.677   3.757   2.486  0.00  0.00    -0.009 C 
ATOM      7  C   UNL     1      11.442   3.262   3.717  0.00  0.00    +0.009 C 
ATOM      8  C   UNL     1      10.474   3.115   4.896  0.00  0.00    +0.054 C 
ATOM      9  C   UNL     1       9.279   2.309   4.439  0.00  0.00    +0.020 A 
ATOM     10  C   UNL     1       8.970   2.103   3.145  0.00  0.00    -0.019 A 
ATOM     11  C   UNL     1       7.761   1.285   3.112  0.00  0.00    +0.004 A 
ATOM     12  C   UNL     1       6.975   0.753   2.093  0.00  0.00    +0.023 A 
ATOM     13  C   UNL     1       5.854  -0.004   2.418  0.00  0.00    +0.037 A 
ATOM     14  C   UNL     1       5.519  -0.222   3.762  0.00  0.00    +0.015 A 
ATOM     15  C   UNL     1       6.290   0.292   4.762  0.00  0.00    +0.027 A 
ATOM     16  C   UNL     1       7.417   1.052   4.460  0.00  0.00    +0.047 A 
ATOM     17  N   UNL     1       8.359   1.687   5.235  0.00  0.00    -0.358 N 
ATOM     18  H   UNL     1       8.369   1.692   6.205  0.00  0.00    +0.166 HD
ATOM     19  C   UNL     1       9.758   2.640   1.978  0.00  0.00    +0.040 C 
ENDBRANCH   1  13
BRANCH   3  20
ATOM     20  C   UNL     1       3.091  -1.872   0.598  0.00  0.00    +0.140 C 
BRANCH  20  21
ATOM     21  C   UNL     1       1.950  -2.642   1.211  0.00  0.00    -0.026 A 
ATOM     22  C   UNL     1       2.016  -4.020   1.303  0.00  0.00    +0.005 A 
ATOM     23  C   UNL     1       0.969  -4.726   1.866  0.00  0.00    +0.000 A 
ATOM     24  C   UNL     1      -0.143  -4.054   2.337  0.00  0.00    +0.000 A 
ATOM     25  C   UNL     1      -0.208  -2.676   2.249  0.00  0.00    +0.005 A 
ATOM     26  C   UNL     1       0.837  -1.971   1.681  0.00  0.00    -0.020 A 
BRANCH  26  27
ATOM     27  C   UNL     1       0.764  -0.469   1.581  0.00  0.00    +0.220 C 
BRANCH  27  28
ATOM     28  S   UNL     1       0.002  -0.004   0.002  0.00  0.00    +0.034 S 
ATOM     29  O   UNL     1      -1.367  -0.385  -0.012  0.00  0.00    -0.158 OA
ATOM     30  O   UNL     1       0.861  -0.349  -1.076  0.00  0.00    -0.158 OA
BRANCH  28  31
ATOM     31  N   UNL     1      -0.020   1.652   0.011  0.00  0.00    -0.192 NA
ATOM     32  H   UNL     1      -0.867   2.125   0.018  0.00  0.00    +0.148 HD
BRANCH  31  33
ATOM     33  C   UNL     1       1.238   2.401   0.003  0.00  0.00    +0.070 C 
ATOM     34  C   UNL     1       1.064   3.682  -0.816  0.00  0.00    +0.025 C 
ATOM     35  C   UNL     1       1.626   2.763   1.438  0.00  0.00    +0.025 C 
ENDBRANCH  31  33
ENDBRANCH  28  31
ENDBRANCH  27  28
ENDBRANCH  26  27
ENDBRANCH  20  21
ENDBRANCH   3  20
TORSDOF 7
