REMARK  Name = ZINC04559052
REMARK  5 active torsions:
REMARK  status: ('A' for Active; 'I' for Inactive)
REMARK    1  A    between atoms: C_1  and  C_2
REMARK    2  A    between atoms: C_9  and  C_13
REMARK    3  A    between atoms: C_9  and  O_17
REMARK    4  A    between atoms: C_18  and  C_20
REMARK    5  A    between atoms: C_25  and  O_26
REMARK                            x       y       z     vdW  Elec       q    Type
REMARK                         _______ _______ _______ _____ _____    ______ ____
ROOT
ATOM      1  C   UNL     1       0.146   1.113   2.499  0.00  0.00    +0.007 C 
ATOM      2  C   UNL     1      -0.690   1.509   1.281  0.00  0.00    -0.013 C 
ATOM      3  C   UNL     1      -2.080   0.876   1.389  0.00  0.00    +0.009 C 
ATOM      4  C   UNL     1      -2.968   1.343   0.224  0.00  0.00    +0.053 C 
ATOM      5  C   UNL     1      -2.186   1.088  -1.048  0.00  0.00    +0.045 C 
ATOM      6  N   UNL     1      -2.531   0.427  -2.067  0.00  0.00    -0.183 NA
ATOM      7  N   UNL     1      -1.517   0.252  -3.010  0.00  0.00    -0.148 N 
ATOM      8  C   UNL     1      -0.271   0.899  -2.505  0.00  0.00    +0.259 C 
ATOM      9  C   UNL     1      -0.749   1.562  -1.206  0.00  0.00    +0.096 C 
ATOM     10  C   UNL     1       0.025   1.043   0.008  0.00  0.00    +0.017 C 
ATOM     11  C   UNL     1      -1.644  -0.388  -4.190  0.00  0.00    +0.272 C 
ATOM     12  O   UNL     1      -0.712  -0.413  -4.971  0.00  0.00    -0.268 OA
ENDROOT
BRANCH  11  13
ATOM     13  C   UNL     1      -2.913  -1.057  -4.534  0.00  0.00    +0.080 A 
ATOM     14  C   UNL     1      -4.025  -0.925  -3.699  0.00  0.00    +0.017 A 
ATOM     15  C   UNL     1      -5.209  -1.548  -4.029  0.00  0.00    +0.001 A 
ATOM     16  C   UNL     1      -5.299  -2.314  -5.179  0.00  0.00    +0.004 A 
ATOM     17  C   UNL     1      -4.206  -2.458  -6.010  0.00  0.00    +0.046 A 
ATOM     18  C   UNL     1      -3.008  -1.833  -5.697  0.00  0.00    +0.129 A 
BRANCH  18  19
ATOM     19  O   UNL     1      -1.933  -1.973  -6.512  0.00  0.00    -0.506 OA
ATOM     20  H   UNL     1      -1.368  -2.727  -6.293  0.00  0.00    +0.292 HD
ENDBRANCH  18  19
ENDBRANCH  11  13
BRANCH   8  21
ATOM     21  C   UNL     1       0.248   1.949  -3.489  0.00  0.00    +0.438 C 
ATOM     22  F   UNL     1       1.319   2.640  -2.913  0.00  0.00    -0.166 F 
ATOM     23  F   UNL     1       0.676   1.319  -4.662  0.00  0.00    -0.166 F 
ATOM     24  F   UNL     1      -0.779   2.850  -3.792  0.00  0.00    -0.166 F 
ENDBRANCH   8  21
BRANCH   8  25
ATOM     25  O   UNL     1       0.736  -0.079  -2.232  0.00  0.00    -0.363 OA
ATOM     26  H   UNL     1       1.072  -0.527  -3.019  0.00  0.00    +0.212 HD
ENDBRANCH   8  25
TORSDOF 4
