REMARK  Name = ZINC08789560
REMARK  7 active torsions:
REMARK  status: ('A' for Active; 'I' for Inactive)
REMARK    1  A    between atoms: C_1  and  C_2
REMARK    2  A    between atoms: C_2  and  O_3
REMARK    3  A    between atoms: O_3  and  C_4
REMARK    4  A    between atoms: C_4  and  C_6
REMARK    5  A    between atoms: C_9  and  N_12
REMARK    6  A    between atoms: C_17  and  C_34
REMARK    7  A    between atoms: C_34  and  C_35
REMARK                            x       y       z     vdW  Elec       q    Type
REMARK                         _______ _______ _______ _____ _____    ______ ____
ROOT
ATOM      1  N   UNL     1      -4.847  -2.892   0.033  0.00  0.00    -0.210 N 
ATOM      2  C   UNL     1      -4.896  -4.225  -0.078  0.00  0.00    +0.228 C 
ATOM      3  O   UNL     1      -3.934  -4.954  -0.194  0.00  0.00    -0.275 OA
ATOM      4  C   UNL     1      -6.337  -4.680  -0.031  0.00  0.00    +0.074 C 
ATOM      5  C   UNL     1      -6.739  -5.217  -1.422  0.00  0.00    -0.049 C 
ATOM      6  C   UNL     1      -7.943  -3.231  -1.168  0.00  0.00    +0.050 C 
ATOM      7  C   UNL     1      -7.127  -3.351   0.124  0.00  0.00    +0.088 C 
ATOM      8  C   UNL     1      -6.041  -2.300   0.145  0.00  0.00    +0.229 C 
ATOM      9  O   UNL     1      -6.224  -1.106   0.247  0.00  0.00    -0.275 OA
ATOM     10  C   UNL     1      -9.292  -2.619  -0.913  0.00  0.00    -0.026 A 
ATOM     11  C   UNL     1     -10.357  -2.972  -0.116  0.00  0.00    +0.024 A 
ATOM     12  C   UNL     1     -11.496  -2.185  -0.093  0.00  0.00    +0.041 A 
ATOM     13  C   UNL     1     -11.559  -1.044  -0.874  0.00  0.00    +0.022 A 
ATOM     14  C   UNL     1     -10.494  -0.688  -1.674  0.00  0.00    +0.025 A 
ATOM     15  C   UNL     1      -9.344  -1.474  -1.702  0.00  0.00    +0.036 A 
ATOM     16  N   UNL     1      -8.153  -1.324  -2.417  0.00  0.00    -0.286 N 
ATOM     17  C   UNL     1      -7.278  -2.314  -2.157  0.00  0.00    +0.211 C 
ATOM     18  O   UNL     1      -6.168  -2.442  -2.630  0.00  0.00    -0.277 OA
ATOM     19 CL   UNL     1     -12.840  -2.627   0.913  0.00  0.00    -0.084 Cl
ATOM     20  H   UNL     1      -7.977  -0.593  -3.029  0.00  0.00    +0.155 HD
ATOM     21  N   UNL     1      -8.034  -4.586  -1.684  0.00  0.00    +0.394 N 
ATOM     22  H   UNL     1      -8.782  -5.099  -1.204  0.00  0.00    -0.083 HD
ATOM     23  H   UNL     1      -8.223  -4.569  -2.693  0.00  0.00    -0.083 HD
ENDROOT
BRANCH   1  27
ATOM     24  C   UNL     1      -1.265  -0.759   0.010  0.00  0.00    +0.059 A 
ATOM     25  C   UNL     1      -1.692  -1.423  -1.143  0.00  0.00    +0.017 A 
ATOM     26  C   UNL     1      -2.873  -2.132  -1.130  0.00  0.00    +0.025 A 
ATOM     27  C   UNL     1      -3.646  -2.177   0.025  0.00  0.00    +0.044 A 
ATOM     28  C   UNL     1      -3.227  -1.513   1.173  0.00  0.00    +0.025 A 
ATOM     29  C   UNL     1      -2.045  -0.807   1.169  0.00  0.00    +0.017 A 
BRANCH  24  30
ATOM     30  C   UNL     1       0.002  -0.004   0.002  0.00  0.00    +0.339 C 
ATOM     31  O   UNL     1       0.369   0.577   1.004  0.00  0.00    -0.245 OA
BRANCH  30  32
ATOM     32  O   UNL     1       0.752   0.041  -1.116  0.00  0.00    -0.461 OA
BRANCH  32  34
ATOM     33  C   UNL     1       2.697   0.739  -2.405  0.00  0.00    +0.048 C 
ATOM     34  C   UNL     1       1.987   0.803  -1.052  0.00  0.00    +0.229 C 
ENDBRANCH  32  34
ENDBRANCH  30  32
ENDBRANCH  24  30
ENDBRANCH   1  27
BRANCH   5  35
ATOM     35  C   UNL     1      -6.857  -6.742  -1.390  0.00  0.00    +0.080 C 
BRANCH  35  36
ATOM     36  C   UNL     1      -7.128  -7.254  -2.781  0.00  0.00    +0.209 C 
ATOM     37  O   UNL     1      -7.218  -6.476  -3.707  0.00  0.00    -0.276 OA
ATOM     38  N   UNL     1      -7.270  -8.577  -2.997  0.00  0.00    -0.329 N 
ATOM     39  H   UNL     1      -7.198  -9.200  -2.256  0.00  0.00    +0.145 HD
ATOM     40  H   UNL     1      -7.445  -8.906  -3.892  0.00  0.00    +0.145 HD
ENDBRANCH  35  36
ENDBRANCH   5  35
TORSDOF 6
