REMARK  Name = ZINC38671077
REMARK  8 active torsions:
REMARK  status: ('A' for Active; 'I' for Inactive)
REMARK    1  A    between atoms: C_1  and  N_2
REMARK    2  A    between atoms: C_10  and  C_12
REMARK    3  A    between atoms: C_12  and  C_14
REMARK    4  A    between atoms: C_12  and  N_32
REMARK    5  A    between atoms: C_14  and  N_15
REMARK    6  A    between atoms: C_16  and  C_18
REMARK    7  A    between atoms: C_21  and  S_24
REMARK    8  A    between atoms: S_24  and  N_27
REMARK                            x       y       z     vdW  Elec       q    Type
REMARK                         _______ _______ _______ _____ _____    ______ ____
ROOT
ATOM      1  C   UNL     1       4.992  -2.838  -0.469  0.00  0.00    -0.020 C 
ENDROOT
BRANCH   1  11
ATOM      2  C   UNL     1      -0.096   0.925   1.119  0.00  0.00    +0.129 C 
ATOM      3  N   UNL     1      -0.019  -0.501   0.794  0.00  0.00    -0.333 N 
ATOM      4  C   UNL     1      -1.232  -1.331   0.785  0.00  0.00    +0.105 C 
ATOM      5  C   UNL     1      -0.907  -2.643   1.511  0.00  0.00    +0.024 C 
ATOM      6  C   UNL     1       0.176  -3.385   0.728  0.00  0.00    +0.038 C 
ATOM      7  C   UNL     1       1.343  -2.474   0.449  0.00  0.00    -0.026 A 
ATOM      8  C   UNL     1       1.209  -1.093   0.481  0.00  0.00    +0.033 A 
ATOM      9  C   UNL     1       2.303  -0.280   0.208  0.00  0.00    +0.023 A 
ATOM     10  C   UNL     1       3.525  -0.846  -0.099  0.00  0.00    +0.004 A 
ATOM     11  C   UNL     1       3.658  -2.221  -0.135  0.00  0.00    -0.059 A 
ATOM     12  C   UNL     1       2.572  -3.034   0.146  0.00  0.00    +0.007 A 
ENDBRANCH   1  11
BRANCH   1  13
ATOM     13  N   UNL     1       6.063  -2.073   0.183  0.00  0.00    +0.385 N 
ATOM     14  C   UNL     1       7.356  -2.712  -0.091  0.00  0.00    -0.078 C 
ATOM     15  C   UNL     1       8.482  -1.873   0.517  0.00  0.00    -0.019 C 
ATOM     16  C   UNL     1       8.273  -1.769   2.031  0.00  0.00    -0.004 C 
ATOM     17  C   UNL     1       6.891  -1.169   2.305  0.00  0.00    -0.019 C 
ATOM     18  C   UNL     1       5.823  -2.034   1.630  0.00  0.00    -0.078 C 
ATOM     19  H   UNL     1       6.071  -1.132  -0.181  0.00  0.00    -0.081 HD
ENDBRANCH   1  13
BRANCH   1  20
ATOM     20  C   UNL     1       5.199  -2.816  -1.985  0.00  0.00    +0.094 C 
BRANCH  20  21
ATOM     21  N   UNL     1       4.185  -3.656  -2.628  0.00  0.00    -0.313 N 
ATOM     22  C   UNL     1       4.162  -3.775  -3.970  0.00  0.00    +0.244 C 
ATOM     23  O   UNL     1       4.982  -3.186  -4.647  0.00  0.00    -0.270 OA
ATOM     24  H   UNL     1       3.531  -4.126  -2.088  0.00  0.00    +0.149 HD
BRANCH  22  25
ATOM     25  C   UNL     1       3.139  -4.622  -4.620  0.00  0.00    +0.037 A 
ATOM     26  C   UNL     1       2.192  -5.295  -3.846  0.00  0.00    +0.015 A 
ATOM     27  C   UNL     1       1.240  -6.084  -4.459  0.00  0.00    +0.029 A 
ATOM     28  C   UNL     1       1.223  -6.208  -5.836  0.00  0.00    +0.106 A 
ATOM     29  C   UNL     1       2.159  -5.544  -6.609  0.00  0.00    +0.029 A 
ATOM     30  C   UNL     1       3.112  -4.747  -6.010  0.00  0.00    +0.015 A 
BRANCH  28  31
ATOM     31  S   UNL     1       0.004  -7.218  -6.610  0.00  0.00    +0.061 S 
ATOM     32  O   UNL     1       0.536  -7.604  -7.870  0.00  0.00    -0.153 OA
ATOM     33  O   UNL     1      -0.416  -8.165  -5.638  0.00  0.00    -0.153 OA
BRANCH  31  34
ATOM     34  N   UNL     1      -1.304  -6.252  -6.926  0.00  0.00    -0.177 NA
ATOM     35  C   UNL     1      -2.434  -6.016  -6.016  0.00  0.00    +0.109 C 
ATOM     36  C   UNL     1      -3.418  -5.074  -6.742  0.00  0.00    +0.018 C 
ATOM     37  C   UNL     1      -3.061  -5.285  -8.238  0.00  0.00    +0.018 C 
ATOM     38  C   UNL     1      -1.524  -5.481  -8.163  0.00  0.00    +0.109 C 
ENDBRANCH  31  34
ENDBRANCH  28  31
ENDBRANCH  22  25
ENDBRANCH  20  21
ENDBRANCH   1  20
TORSDOF 7
