REMARK  Name = ZINC39673258
REMARK  6 active torsions:
REMARK  status: ('A' for Active; 'I' for Inactive)
REMARK    1  A    between atoms: C_4  and  C_8
REMARK    2  A    between atoms: C_12  and  C_21
REMARK    3  A    between atoms: N_23  and  C_24
REMARK    4  A    between atoms: C_24  and  C_25
REMARK    5  A    between atoms: C_28  and  O_31
REMARK    6  A    between atoms: O_31  and  C_32
REMARK                            x       y       z     vdW  Elec       q    Type
REMARK                         _______ _______ _______ _____ _____    ______ ____
ROOT
ATOM      1  C   UNL     1       3.818  -0.791  -0.005  0.00  0.00    +0.249 C 
ATOM      2  O   UNL     1       4.409  -1.056   1.024  0.00  0.00    -0.270 OA
ATOM      3  N   UNL     1       4.384  -1.065  -1.197  0.00  0.00    -0.296 N 
ATOM      4  C   UNL     1       3.826  -0.812  -2.547  0.00  0.00    +0.121 C 
ATOM      5  C   UNL     1       5.035  -0.340  -3.385  0.00  0.00    +0.100 C 
ATOM      6  C   UNL     1       6.264  -0.920  -2.665  0.00  0.00    -0.004 C 
ATOM      7  C   UNL     1       5.706  -1.683  -1.454  0.00  0.00    +0.115 C 
ATOM      8  C   UNL     1       7.181   0.204  -2.195  0.00  0.00    -0.010 C 
ATOM      9  C   UNL     1       8.422  -0.399  -1.532  0.00  0.00    -0.082 C 
ATOM     10  N   UNL     1       9.123  -1.260  -2.493  0.00  0.00    +0.379 N 
ATOM     11  C   UNL     1       8.267  -2.391  -2.869  0.00  0.00    -0.082 C 
ATOM     12  C   UNL     1       7.018  -1.872  -3.588  0.00  0.00    -0.010 C 
ATOM     13  H   UNL     1       9.352  -0.725  -3.317  0.00  0.00    -0.086 HD
ATOM     14  H   UNL     1       9.972  -1.608  -2.074  0.00  0.00    -0.086 HD
ENDROOT
BRANCH   1  18
ATOM     15  C   UNL     1      -0.030   1.001   0.156  0.00  0.00    +0.003 A 
ATOM     16  C   UNL     1       1.099   1.799   0.120  0.00  0.00    +0.021 A 
ATOM     17  C   UNL     1       2.353   1.224   0.068  0.00  0.00    +0.054 A 
ATOM     18  C   UNL     1       2.480  -0.168   0.052  0.00  0.00    +0.073 A 
ATOM     19  C   UNL     1       1.334  -0.967   0.088  0.00  0.00    +0.054 A 
ATOM     20  C   UNL     1       0.087  -0.377   0.140  0.00  0.00    +0.021 A 
ATOM     21 CL   UNL     1       1.479  -2.697   0.068  0.00  0.00    -0.083 Cl
ATOM     22 CL   UNL     1       3.770   2.227   0.022  0.00  0.00    -0.083 Cl
ENDBRANCH   1  18
BRANCH   5  23
ATOM     23  C   UNL     1       4.943  -0.882  -4.789  0.00  0.00    +0.218 C 
ATOM     24  O   UNL     1       4.405  -1.949  -4.993  0.00  0.00    -0.275 OA
ATOM     25  N   UNL     1       5.460  -0.180  -5.817  0.00  0.00    -0.311 N 
ATOM     26  H   UNL     1       5.890   0.674  -5.654  0.00  0.00    +0.149 HD
BRANCH  25  27
ATOM     27  C   UNL     1       5.370  -0.706  -7.181  0.00  0.00    +0.139 C 
BRANCH  27  28
ATOM     28  C   UNL     1       6.018   0.263  -8.137  0.00  0.00    -0.030 A 
ATOM     29  C   UNL     1       5.266   1.268  -8.716  0.00  0.00    +0.009 A 
ATOM     30  C   UNL     1       5.857   2.157  -9.593  0.00  0.00    +0.046 A 
ATOM     31  C   UNL     1       7.207   2.041  -9.891  0.00  0.00    +0.127 A 
ATOM     32  C   UNL     1       7.959   1.032  -9.308  0.00  0.00    +0.046 A 
ATOM     33  C   UNL     1       7.364   0.149  -8.428  0.00  0.00    +0.009 A 
BRANCH  31  34
ATOM     34  O   UNL     1       7.791   2.914 -10.754  0.00  0.00    -0.434 OA
BRANCH  34  35
ATOM     35  C   UNL     1       9.184   2.734 -11.014  0.00  0.00    +0.541 C 
ATOM     36  F   UNL     1       9.901   2.851  -9.819  0.00  0.00    -0.166 F 
ATOM     37  F   UNL     1       9.396   1.465 -11.563  0.00  0.00    -0.166 F 
ENDBRANCH  34  35
ENDBRANCH  31  34
ENDBRANCH  27  28
ENDBRANCH  25  27
ENDBRANCH   5  23
TORSDOF 6
