REMARK  Name = ZINC16572386
REMARK  9 active torsions:
REMARK  status: ('A' for Active; 'I' for Inactive)
REMARK    1  A    between atoms: C_1  and  C_2
REMARK    2  A    between atoms: C_2  and  C_3
REMARK    3  A    between atoms: C_3  and  C_5
REMARK    4  A    between atoms: C_3  and  C_6
REMARK    5  A    between atoms: C_6  and  C_8
REMARK    6  A    between atoms: C_6  and  N_23
REMARK    7  A    between atoms: C_14  and  C_16
REMARK    8  A    between atoms: N_26  and  C_27
REMARK    9  A    between atoms: C_30  and  C_33
REMARK                            x       y       z     vdW  Elec       q    Type
REMARK                         _______ _______ _______ _____ _____    ______ ____
ROOT
ATOM      1  C   UNL     1      -1.772   2.330   1.225  0.00  0.00    +0.163 C 
ENDROOT
BRANCH   1   2
ATOM      2  C   UNL     1      -1.232   2.508   2.621  0.00  0.00    +0.239 C 
ATOM      3  O   UNL     1      -0.787   3.583   2.967  0.00  0.00    -0.273 OA
ATOM      4  N   UNL     1      -1.244   1.474   3.485  0.00  0.00    -0.262 N 
ATOM      5  C   UNL     1      -0.851   1.667   4.804  0.00  0.00    +0.188 A 
ATOM      6  N   UNL     1      -0.429   2.766   5.416  0.00  0.00    -0.125 NA
ATOM      7  N   UNL     1      -0.112   2.769   6.637  0.00  0.00    -0.140 NA
ATOM      8  C   UNL     1      -0.171   1.670   7.379  0.00  0.00    +0.134 A 
ATOM      9  S   UNL     1      -0.763   0.500   6.160  0.00  0.00    -0.030 S 
ATOM     10  H   UNL     1      -1.526   0.596   3.186  0.00  0.00    +0.157 HD
BRANCH   8  11
ATOM     11  C   UNL     1       0.159   1.469   8.806  0.00  0.00    +0.009 A 
ATOM     12  C   UNL     1       0.015   0.208   9.388  0.00  0.00    +0.012 A 
ATOM     13  C   UNL     1       0.329   0.026  10.719  0.00  0.00    +0.016 A 
ATOM     14  C   UNL     1       0.777   1.092  11.479  0.00  0.00    +0.018 A 
ATOM     15  C   UNL     1       0.917   2.346  10.910  0.00  0.00    +0.016 A 
ATOM     16  C   UNL     1       0.611   2.540   9.579  0.00  0.00    +0.012 A 
ATOM     17 BR   UNL     1       1.200   0.835  13.305  0.00  0.00    -0.050 Br
ENDBRANCH   8  11
ENDBRANCH   1   2
BRANCH   1  18
ATOM     18  N   UNL     1      -2.030   3.643   0.630  0.00  0.00    -0.288 N 
ATOM     19  C   UNL     1      -2.945   3.770  -0.352  0.00  0.00    +0.304 C 
ATOM     20  O   UNL     1      -3.555   2.794  -0.744  0.00  0.00    -0.252 OA
ATOM     21  N   UNL     1      -3.183   4.978  -0.899  0.00  0.00    -0.269 N 
ATOM     22  H   UNL     1      -1.544   4.422   0.943  0.00  0.00    +0.151 HD
ATOM     23  H   UNL     1      -2.650   5.744  -0.635  0.00  0.00    +0.156 HD
BRANCH  21  24
ATOM     24  C   UNL     1      -4.196   5.128  -1.847  0.00  0.00    +0.035 A 
ATOM     25  C   UNL     1      -4.424   4.124  -2.783  0.00  0.00    +0.024 A 
ATOM     26  C   UNL     1      -5.426   4.265  -3.717  0.00  0.00    +0.020 A 
ATOM     27  C   UNL     1      -6.207   5.424  -3.731  0.00  0.00    +0.052 A 
ATOM     28  C   UNL     1      -5.971   6.433  -2.792  0.00  0.00    +0.020 A 
ATOM     29  C   UNL     1      -4.971   6.282  -1.858  0.00  0.00    +0.024 A 
BRANCH  27  30
ATOM     30  C   UNL     1      -7.247   5.577  -4.704  0.00  0.00    +0.099 C 
ATOM     31  N   UNL     1      -8.072   5.699  -5.475  0.00  0.00    -0.191 NA
ENDBRANCH  27  30
ENDBRANCH  21  24
ENDBRANCH   1  18
BRANCH   1  32
ATOM     32  C   UNL     1      -0.746   1.578   0.374  0.00  0.00    +0.015 C 
ATOM     33  C   UNL     1       0.492   2.454   0.175  0.00  0.00    +0.010 C 
BRANCH  32  35
ATOM     34  C   UNL     1      -2.492   0.232  -0.802  0.00  0.00    +0.004 C 
ATOM     35  C   UNL     1      -1.360   1.244  -0.987  0.00  0.00    +0.002 C 
ENDBRANCH  32  35
ENDBRANCH   1  32
TORSDOF 7
