REMARK  Name = ZINC15728011
REMARK  2 active torsions:
REMARK  status: ('A' for Active; 'I' for Inactive)
REMARK    1  A    between atoms: C_15  and  C_18
REMARK    2  A    between atoms: N_20  and  C_21
REMARK                            x       y       z     vdW  Elec       q    Type
REMARK                         _______ _______ _______ _____ _____    ______ ____
ROOT
ATOM      1  C   UNL     1       1.444  -7.624   3.271  0.00  0.00    +0.019 A 
ATOM      2  C   UNL     1       0.670  -8.040   2.169  0.00  0.00    +0.019 A 
ATOM      3  C   UNL     1       0.320  -6.935   1.480  0.00  0.00    +0.093 A 
ATOM      4  N   UNL     1       0.851  -5.849   2.116  0.00  0.00    -0.301 N 
ATOM      5  C   UNL     1       1.544  -6.280   3.212  0.00  0.00    +0.093 A 
ATOM      6  C   UNL     1       0.713  -4.520   1.712  0.00  0.00    +0.202 A 
ATOM      7  N   UNL     1       0.072  -4.010   0.674  0.00  0.00    -0.121 NA
ATOM      8  N   UNL     1       0.040  -2.769   0.452  0.00  0.00    -0.124 NA
ATOM      9  C   UNL     1       0.656  -1.900   1.240  0.00  0.00    +0.186 A 
ATOM     10  S   UNL     1       1.352  -3.020   2.451  0.00  0.00    -0.013 S 
ATOM     11  N   UNL     1       0.734  -0.516   1.154  0.00  0.00    -0.307 N 
ATOM     12  C   UNL     1       2.133  -0.069   1.137  0.00  0.00    +0.107 C 
ATOM     13  C   UNL     1       2.181   1.460   1.190  0.00  0.00    +0.020 C 
ATOM     14  C   UNL     1       1.428   2.031  -0.015  0.00  0.00    +0.016 C 
ATOM     15  C   UNL     1      -0.012   1.511  -0.000  0.00  0.00    +0.093 C 
ATOM     16  C   UNL     1       0.003  -0.019  -0.018  0.00  0.00    +0.119 C 
ENDROOT
BRANCH  15  17
ATOM     17  C   UNL     1      -0.744   2.021  -1.215  0.00  0.00    +0.222 C 
ATOM     18  O   UNL     1      -0.172   2.733  -2.013  0.00  0.00    -0.275 OA
ATOM     19  N   UNL     1      -2.034   1.685  -1.415  0.00  0.00    -0.283 N 
ATOM     20  H   UNL     1      -2.472   1.063  -0.813  0.00  0.00    +0.155 HD
BRANCH  19  21
ATOM     21  C   UNL     1      -2.741   2.233  -2.493  0.00  0.00    +0.069 A 
ATOM     22  C   UNL     1      -2.091   2.491  -3.692  0.00  0.00    +0.027 A 
ATOM     23  C   UNL     1      -2.792   3.026  -4.755  0.00  0.00    +0.017 A 
ATOM     24  C   UNL     1      -4.139   3.316  -4.623  0.00  0.00    +0.021 A 
ATOM     25  C   UNL     1      -4.790   3.065  -3.428  0.00  0.00    +0.055 A 
ATOM     26  C   UNL     1      -4.094   2.524  -2.362  0.00  0.00    +0.146 A 
ATOM     27  F   UNL     1      -4.729   2.280  -1.195  0.00  0.00    -0.204 F 
ATOM     28 BR   UNL     1      -5.092   4.056  -6.079  0.00  0.00    -0.050 Br
ENDBRANCH  19  21
ENDBRANCH  15  17
TORSDOF 2
