REMARK  Name = ZINC12980822
REMARK  7 active torsions:
REMARK  status: ('A' for Active; 'I' for Inactive)
REMARK    1  A    between atoms: C_1  and  C_2
REMARK    2  A    between atoms: C_15  and  C_17
REMARK    3  A    between atoms: C_17  and  C_19
REMARK    4  A    between atoms: C_17  and  N_63
REMARK    5  A    between atoms: C_22  and  C_25
REMARK    6  A    between atoms: N_27  and  C_28
REMARK    7  A    between atoms: C_33  and  O_34
REMARK                            x       y       z     vdW  Elec       q    Type
REMARK                         _______ _______ _______ _____ _____    ______ ____
ROOT
ATOM      1  C   UNL     1      -3.534   6.102   0.508  0.00  0.00    -0.077 C 
ATOM      2  C   UNL     1      -3.228   7.595   0.642  0.00  0.00    -0.006 C 
ATOM      3  C   UNL     1      -2.799   8.147  -0.721  0.00  0.00    +0.072 C 
ATOM      4  C   UNL     1      -1.582   7.364  -1.220  0.00  0.00    -0.006 C 
ATOM      5  C   UNL     1      -1.936   5.877  -1.300  0.00  0.00    -0.077 C 
ATOM      6  N   UNL     1      -2.316   5.401   0.047  0.00  0.00    +0.386 N 
ATOM      7  H   UNL     1      -1.550   5.602   0.700  0.00  0.00    -0.081 HD
ENDROOT
BRANCH   3   8
ATOM      8  C   UNL     1      -2.438   9.604  -0.583  0.00  0.00    +0.220 C 
ATOM      9  O   UNL     1      -1.318   9.980  -0.857  0.00  0.00    -0.275 OA
ATOM     10  N   UNL     1      -3.360  10.489  -0.155  0.00  0.00    -0.282 N 
ATOM     11  H   UNL     1      -4.232  10.179   0.134  0.00  0.00    +0.155 HD
BRANCH  10  12
ATOM     12  C   UNL     1      -3.058  11.857  -0.129  0.00  0.00    +0.075 A 
ATOM     13  C   UNL     1      -2.080  12.370  -0.967  0.00  0.00    +0.027 A 
ATOM     14  C   UNL     1      -1.784  13.720  -0.939  0.00  0.00    +0.002 A 
ATOM     15  C   UNL     1      -2.462  14.562  -0.077  0.00  0.00    +0.004 A 
ATOM     16  C   UNL     1      -3.438  14.058   0.762  0.00  0.00    +0.047 A 
ATOM     17  C   UNL     1      -3.745  12.707   0.736  0.00  0.00    +0.138 A 
BRANCH  17  18
ATOM     18  O   UNL     1      -4.709  12.211   1.556  0.00  0.00    -0.505 OA
ATOM     19  H   UNL     1      -4.382  11.921   2.418  0.00  0.00    +0.292 HD
ENDBRANCH  17  18
ENDBRANCH  10  12
ENDBRANCH   3   8
BRANCH   6  20
ATOM     20  C   UNL     1      -2.553   3.943   0.020  0.00  0.00    -0.004 C 
ATOM     21  C   UNL     1      -3.409   3.561  -1.190  0.00  0.00    -0.005 C 
BRANCH  20  35
ATOM     22  C   UNL     1       6.723   0.267  -0.522  0.00  0.00    +0.008 C 
ATOM     23  C   UNL     1       5.269   0.680  -0.760  0.00  0.00    -0.009 C 
ATOM     24  C   UNL     1       4.334  -0.280  -0.018  0.00  0.00    +0.008 C 
ATOM     25  C   UNL     1       2.887  -0.032  -0.445  0.00  0.00    +0.037 C 
ATOM     26  C   UNL     1       2.573   1.453  -0.281  0.00  0.00    -0.023 A 
ATOM     27  C   UNL     1       3.567   2.361  -0.186  0.00  0.00    -0.004 A 
ATOM     28  S   UNL     1       2.747   3.923  -0.010  0.00  0.00    -0.073 S 
ATOM     29  C   UNL     1       1.068   3.349  -0.065  0.00  0.00    +0.116 A 
ATOM     30  C   UNL     1       1.203   1.960  -0.217  0.00  0.00    +0.075 A 
ATOM     31  C   UNL     1      -0.024   1.223  -0.291  0.00  0.00    +0.260 A 
ATOM     32  O   UNL     1      -0.012   0.011  -0.424  0.00  0.00    -0.267 OA
ATOM     33  N   UNL     1      -1.190   1.891  -0.218  0.00  0.00    -0.312 N 
ATOM     34  H   UNL     1      -2.024   1.399  -0.272  0.00  0.00    +0.170 HD
ATOM     35  C   UNL     1      -1.223   3.240  -0.064  0.00  0.00    +0.097 A 
ATOM     36  N   UNL     1      -0.122   3.939   0.006  0.00  0.00    -0.228 NA
ATOM     37  C   UNL     1       5.042   2.100  -0.223  0.00  0.00    +0.046 C 
ENDBRANCH  20  35
ENDBRANCH   6  20
TORSDOF 5
