REMARK  Name = ZINC02648752
REMARK  10 active torsions:
REMARK  status: ('A' for Active; 'I' for Inactive)
REMARK    1  A    between atoms: C_4  and  S_7
REMARK    2  A    between atoms: S_7  and  C_8
REMARK    3  A    between atoms: C_8  and  C_9
REMARK    4  A    between atoms: C_9  and  C_10
REMARK    5  A    between atoms: C_13  and  C_15
REMARK    6  A    between atoms: C_15  and  O_16
REMARK    7  A    between atoms: O_16  and  C_17
REMARK    8  A    between atoms: C_17  and  C_19
REMARK    9  A    between atoms: C_22  and  S_25
REMARK   10  A    between atoms: S_25  and  N_28
REMARK                            x       y       z     vdW  Elec       q    Type
REMARK                         _______ _______ _______ _____ _____    ______ ____
ROOT
ATOM      1  C   UNL     1      -0.014   1.210   0.009  0.00  0.00    +0.340 C 
ATOM      2  O   UNL     1       0.002  -0.004   0.002  0.00  0.00    -0.245 OA
ENDROOT
BRANCH   1   3
ATOM      3  C   UNL     1      -1.304   1.932   0.019  0.00  0.00    +0.059 A 
ATOM      4  C   UNL     1      -1.326   3.328   0.032  0.00  0.00    +0.017 A 
ATOM      5  C   UNL     1      -2.534   3.995   0.036  0.00  0.00    +0.029 A 
ATOM      6  C   UNL     1      -3.720   3.284   0.037  0.00  0.00    +0.106 A 
ATOM      7  C   UNL     1      -3.705   1.900   0.030  0.00  0.00    +0.029 A 
ATOM      8  C   UNL     1      -2.505   1.220   0.021  0.00  0.00    +0.017 A 
BRANCH   6   9
ATOM      9  S   UNL     1      -5.258   4.144   0.050  0.00  0.00    +0.061 S 
ATOM     10  O   UNL     1      -5.008   5.432  -0.495  0.00  0.00    -0.153 OA
ATOM     11  O   UNL     1      -6.223   3.258  -0.501  0.00  0.00    -0.153 OA
BRANCH   9  12
ATOM     12  N   UNL     1      -5.678   4.374   1.635  0.00  0.00    -0.172 NA
ATOM     13  C   UNL     1      -6.490   3.386   2.364  0.00  0.00    +0.114 C 
ATOM     14  C   UNL     1      -5.626   2.816   3.493  0.00  0.00    +0.052 C 
ATOM     15  C   UNL     1      -4.943   3.921   4.255  0.00  0.00    -0.042 A 
ATOM     16  C   UNL     1      -4.475   3.630   5.531  0.00  0.00    +0.004 A 
ATOM     17  C   UNL     1      -3.829   4.593   6.278  0.00  0.00    +0.000 A 
ATOM     18  C   UNL     1      -3.645   5.859   5.756  0.00  0.00    +0.000 A 
ATOM     19  C   UNL     1      -4.112   6.152   4.491  0.00  0.00    +0.005 A 
ATOM     20  C   UNL     1      -4.765   5.185   3.739  0.00  0.00    -0.028 A 
ATOM     21  C   UNL     1      -5.259   5.574   2.369  0.00  0.00    +0.144 C 
ENDBRANCH   9  12
ENDBRANCH   6   9
ENDBRANCH   1   3
BRANCH   1  22
ATOM     22  O   UNL     1       1.143   1.900   0.001  0.00  0.00    -0.452 OA
BRANCH  22  23
ATOM     23  C   UNL     1       2.371   1.126  -0.015  0.00  0.00    +0.328 C 
BRANCH  23  27
ATOM     24  C   UNL     1       5.864   2.397  -0.041  0.00  0.00    +0.220 C 
ATOM     25  O   UNL     1       5.688   3.597  -0.033  0.00  0.00    -0.275 OA
ATOM     26  N   UNL     1       4.806   1.562  -0.035  0.00  0.00    -0.254 N 
ATOM     27  C   UNL     1       3.554   2.060  -0.021  0.00  0.00    +0.257 C 
ATOM     28  O   UNL     1       3.379   3.259  -0.013  0.00  0.00    -0.272 OA
ATOM     29  H   UNL     1       4.946   0.602  -0.042  0.00  0.00    +0.158 HD
BRANCH  24  30
ATOM     30  C   UNL     1       7.264   1.840  -0.057  0.00  0.00    +0.107 C 
BRANCH  30  31
ATOM     31  C   UNL     1       8.271   2.992  -0.061  0.00  0.00    +0.083 C 
BRANCH  31  32
ATOM     32  S   UNL     1       9.956   2.322  -0.081  0.00  0.00    -0.125 S 
BRANCH  32  36
ATOM     33  C   UNL     1      12.599   6.000  -0.086  0.00  0.00    +0.000 A 
ATOM     34  C   UNL     1      13.170   4.740  -0.098  0.00  0.00    +0.001 A 
ATOM     35  C   UNL     1      12.367   3.617  -0.097  0.00  0.00    +0.015 A 
ATOM     36  C   UNL     1      10.984   3.753  -0.083  0.00  0.00    +0.008 A 
ATOM     37  C   UNL     1      10.414   5.020  -0.076  0.00  0.00    +0.015 A 
ATOM     38  C   UNL     1      11.223   6.139  -0.072  0.00  0.00    +0.001 A 
ENDBRANCH  32  36
ENDBRANCH  31  32
ENDBRANCH  30  31
ENDBRANCH  24  30
ENDBRANCH  23  27
ENDBRANCH  22  23
ENDBRANCH   1  22
TORSDOF 10
