REMARK  Name = ZINC45192680
REMARK  9 active torsions:
REMARK  status: ('A' for Active; 'I' for Inactive)
REMARK    1  A    between atoms: C_4  and  C_7
REMARK    2  A    between atoms: C_7  and  N_8
REMARK    3  A    between atoms: N_8  and  C_9
REMARK    4  A    between atoms: C_9  and  C_10
REMARK    5  A    between atoms: C_10  and  N_11
REMARK    6  A    between atoms: C_16  and  N_28
REMARK    7  A    between atoms: C_19  and  C_20
REMARK    8  A    between atoms: C_22  and  C_26
REMARK    9  A    between atoms: C_32  and  N_35
REMARK                            x       y       z     vdW  Elec       q    Type
REMARK                         _______ _______ _______ _____ _____    ______ ____
ROOT
ATOM      1  N   UNL     1       7.209  -2.630   2.970  0.00  0.00    -0.325 N 
ATOM      2  C   UNL     1       7.370  -4.001   2.967  0.00  0.00    +0.071 A 
ATOM      3  C   UNL     1       6.518  -5.071   3.216  0.00  0.00    +0.028 A 
ATOM      4  C   UNL     1       6.991  -6.363   3.130  0.00  0.00    +0.004 A 
ATOM      5  C   UNL     1       8.315  -6.608   2.796  0.00  0.00    +0.025 A 
ATOM      6  C   UNL     1       9.180  -5.560   2.545  0.00  0.00    +0.057 A 
ATOM      7  C   UNL     1       8.712  -4.238   2.628  0.00  0.00    +0.111 A 
ATOM      8  N   UNL     1       9.298  -3.030   2.444  0.00  0.00    -0.226 NA
ATOM      9  C   UNL     1       8.418  -2.079   2.637  0.00  0.00    +0.143 A 
ENDROOT
BRANCH   9  10
ATOM     10  C   UNL     1       8.691  -0.630   2.519  0.00  0.00    +0.037 A 
ATOM     11  C   UNL     1       7.645   0.272   2.306  0.00  0.00    +0.033 A 
ATOM     12  C   UNL     1       7.958   1.631   2.201  0.00  0.00    +0.070 A 
ATOM     13  C   UNL     1       9.292   2.029   2.313  0.00  0.00    +0.129 A 
ATOM     14  N   UNL     1      10.247   1.145   2.513  0.00  0.00    -0.261 NA
ATOM     15  C   UNL     1       9.995  -0.144   2.624  0.00  0.00    +0.122 A 
BRANCH  12  16
ATOM     16  C   UNL     1       6.926   2.599   1.982  0.00  0.00    +0.101 C 
ATOM     17  N   UNL     1       6.107   3.367   1.808  0.00  0.00    -0.191 NA
ENDBRANCH  12  16
ENDBRANCH   9  10
BRANCH   6  18
ATOM     18  N   UNL     1      10.511  -5.813   2.209  0.00  0.00    -0.330 N 
ATOM     19  C   UNL     1      11.539  -5.922   3.254  0.00  0.00    +0.105 C 
ATOM     20  C   UNL     1      12.680  -4.955   2.925  0.00  0.00    +0.017 C 
ATOM     21  C   UNL     1      13.191  -5.237   1.510  0.00  0.00    -0.013 C 
ATOM     22  C   UNL     1      12.060  -5.009   0.504  0.00  0.00    -0.058 C 
ATOM     23  C   UNL     1      10.910  -5.982   0.806  0.00  0.00    +0.089 C 
BRANCH  22  24
ATOM     24  N   UNL     1      12.559  -5.248  -0.857  0.00  0.00    +0.381 N 
ATOM     25  H   UNL     1      12.890  -6.199  -0.931  0.00  0.00    -0.090 HD
ATOM     26  H   UNL     1      11.814  -5.098  -1.520  0.00  0.00    -0.090 HD
ATOM     27  H   UNL     1      13.318  -4.612  -1.053  0.00  0.00    -0.090 HD
ENDBRANCH  22  24
ENDBRANCH   6  18
BRANCH   1  28
ATOM     28  C   UNL     1       5.974  -1.900   3.267  0.00  0.00    +0.105 C 
BRANCH  28  29
ATOM     29  C   UNL     1       5.118  -1.809   2.002  0.00  0.00    -0.060 C 
BRANCH  29  30
ATOM     30  N   UNL     1       3.880  -1.077   2.300  0.00  0.00    +0.383 N 
ATOM     31  H   UNL     1       4.107  -0.147   2.620  0.00  0.00    -0.085 HD
ATOM     32  H   UNL     1       3.366  -1.564   3.020  0.00  0.00    -0.085 HD
BRANCH  30  33
ATOM     33  C   UNL     1       3.058  -0.989   1.086  0.00  0.00    -0.047 C 
BRANCH  33  37
ATOM     34  C   UNL     1      -0.543   1.139   1.950  0.00  0.00    +0.000 A 
ATOM     35  C   UNL     1       0.578   1.823   1.521  0.00  0.00    +0.000 A 
ATOM     36  C   UNL     1       1.744   1.135   1.242  0.00  0.00    +0.002 A 
ATOM     37  C   UNL     1       1.788  -0.239   1.392  0.00  0.00    -0.064 A 
ATOM     38  C   UNL     1       0.667  -0.923   1.822  0.00  0.00    +0.002 A 
ATOM     39  C   UNL     1      -0.499  -0.235   2.100  0.00  0.00    +0.000 A 
ENDBRANCH  33  37
ENDBRANCH  30  33
ENDBRANCH  29  30
ENDBRANCH  28  29
ENDBRANCH   1  28
TORSDOF 9
