REMARK  Name = ZINC11882317
REMARK  9 active torsions:
REMARK  status: ('A' for Active; 'I' for Inactive)
REMARK    1  A    between atoms: C_4  and  C_7
REMARK    2  A    between atoms: C_7  and  C_8
REMARK    3  A    between atoms: C_8  and  C_9
REMARK    4  A    between atoms: C_9  and  C_10
REMARK    5  A    between atoms: C_10  and  C_17
REMARK    6  A    between atoms: C_22  and  C_23
REMARK    7  A    between atoms: C_22  and  N_72
REMARK    8  A    between atoms: C_26  and  C_28
REMARK    9  A    between atoms: C_28  and  N_74
REMARK                            x       y       z     vdW  Elec       q    Type
REMARK                         _______ _______ _______ _____ _____    ______ ____
ROOT
ATOM      1  C   UNL     1      11.516  -1.168   3.586  0.00  0.00    +0.018 C 
ATOM      2  C   UNL     1      11.376  -1.918   2.259  0.00  0.00    -0.013 C 
ATOM      3  C   UNL     1      10.603  -1.048   1.265  0.00  0.00    -0.078 C 
ATOM      4  C   UNL     1       9.386   0.026   3.065  0.00  0.00    -0.078 C 
ATOM      5  C   UNL     1      10.123  -0.812   4.112  0.00  0.00    -0.013 C 
ATOM      6  N   UNL     1       9.263  -0.761   1.820  0.00  0.00    +0.383 N 
ATOM      7  H   UNL     1       8.794  -1.649   2.033  0.00  0.00    -0.081 HD
ENDROOT
BRANCH   1   8
ATOM      8  C   UNL     1      12.235  -2.057   4.603  0.00  0.00    +0.115 C 
ATOM      9  C   UNL     1      11.594  -3.429   4.658  0.00  0.00    +0.244 C 
ATOM     10  O   UNL     1      10.453  -3.693   4.973  0.00  0.00    -0.273 OA
ATOM     11  N   UNL     1      12.557  -4.296   4.286  0.00  0.00    -0.238 N 
ATOM     12  C   UNL     1      13.704  -3.668   4.006  0.00  0.00    +0.307 C 
ATOM     13  O   UNL     1      14.716  -4.239   3.648  0.00  0.00    -0.252 OA
ATOM     14  N   UNL     1      13.613  -2.336   4.165  0.00  0.00    -0.285 N 
ATOM     15  H   UNL     1      12.432  -5.256   4.227  0.00  0.00    +0.159 HD
ATOM     16  H   UNL     1      14.318  -1.685   4.019  0.00  0.00    +0.151 HD
BRANCH   8  17
ATOM     17  C   UNL     1      12.232  -1.402   5.986  0.00  0.00    +0.036 C 
BRANCH  17  18
ATOM     18  C   UNL     1      13.061  -2.248   6.953  0.00  0.00    +0.007 C 
BRANCH  18  19
ATOM     19  C   UNL     1      13.058  -1.593   8.336  0.00  0.00    +0.035 C 
BRANCH  19  23
ATOM     20  C   UNL     1      15.374  -3.957  11.037  0.00  0.00    +0.000 A 
ATOM     21  C   UNL     1      15.979  -2.951  10.306  0.00  0.00    +0.000 A 
ATOM     22  C   UNL     1      15.229  -2.186   9.432  0.00  0.00    +0.003 A 
ATOM     23  C   UNL     1      13.875  -2.427   9.289  0.00  0.00    -0.047 A 
ATOM     24  C   UNL     1      13.270  -3.430  10.023  0.00  0.00    +0.003 A 
ATOM     25  C   UNL     1      14.021  -4.197  10.894  0.00  0.00    +0.000 A 
ENDBRANCH  19  23
ENDBRANCH  18  19
ENDBRANCH  17  18
ENDBRANCH   8  17
ENDBRANCH   1   8
BRANCH   6  26
ATOM     26  C   UNL     1       8.456  -0.018   0.830  0.00  0.00    -0.036 C 
BRANCH  26  27
ATOM     27  C   UNL     1       7.036   0.069   1.329  0.00  0.00    -0.027 A 
ATOM     28  C   UNL     1       6.456   1.029   2.089  0.00  0.00    +0.009 A 
ATOM     29  C   UNL     1       5.121   0.902   2.425  0.00  0.00    +0.009 A 
ATOM     30  C   UNL     1       4.435  -0.185   1.993  0.00  0.00    -0.027 A 
ATOM     31  S   UNL     1       5.683  -1.067   1.070  0.00  0.00    -0.102 S 
BRANCH  30  32
ATOM     32  C   UNL     1       2.991  -0.550   2.226  0.00  0.00    -0.036 C 
BRANCH  32  38
ATOM     33  C   UNL     1       0.793  -0.505   1.212  0.00  0.00    -0.078 C 
ATOM     34  C   UNL     1       0.002  -0.004   0.002  0.00  0.00    -0.019 C 
ATOM     35  C   UNL     1      -0.019   1.527   0.010  0.00  0.00    -0.004 C 
ATOM     36  C   UNL     1       1.421   2.049  -0.001  0.00  0.00    -0.019 C 
ATOM     37  C   UNL     1       2.171   1.488   1.210  0.00  0.00    -0.078 C 
ATOM     38  N   UNL     1       2.176   0.012   1.129  0.00  0.00    +0.383 N 
ATOM     39  H   UNL     1       2.584  -0.271   0.231  0.00  0.00    -0.081 HD
ENDBRANCH  32  38
ENDBRANCH  30  32
ENDBRANCH  26  27
ENDBRANCH   6  26
TORSDOF 9
