REMARK  Name = ZINC53160999
REMARK  4 active torsions:
REMARK  status: ('A' for Active; 'I' for Inactive)
REMARK    1  A    between atoms: C_3  and  C_8
REMARK    2  A    between atoms: C_8  and  N_9
REMARK    3  A    between atoms: C_10  and  C_14
REMARK    4  A    between atoms: C_19  and  N_20
REMARK                            x       y       z     vdW  Elec       q    Type
REMARK                         _______ _______ _______ _____ _____    ______ ____
ROOT
ATOM      1  N   UNL     1       4.023   2.382   1.388  0.00  0.00    -0.221 N 
ATOM      2  C   UNL     1       3.584   3.363   2.216  0.00  0.00    +0.184 A 
ATOM      3  N   UNL     1       4.106   3.128   3.402  0.00  0.00    -0.108 NA
ATOM      4  N   UNL     1       4.836   2.072   3.371  0.00  0.00    -0.023 NA
ATOM      5  N   UNL     1       4.833   1.558   2.189  0.00  0.00    -0.043 NA
ENDROOT
BRANCH   2   6
ATOM      6  C   UNL     1       2.691   4.484   1.854  0.00  0.00    +0.041 A 
ATOM      7  C   UNL     1       2.105   4.533   0.589  0.00  0.00    +0.015 A 
ATOM      8  C   UNL     1       1.272   5.581   0.258  0.00  0.00    +0.021 A 
ATOM      9  C   UNL     1       1.012   6.586   1.176  0.00  0.00    +0.043 A 
ATOM     10  C   UNL     1       1.587   6.549   2.432  0.00  0.00    +0.043 A 
ATOM     11  C   UNL     1       2.423   5.498   2.783  0.00  0.00    +0.037 A 
ATOM     12 CL   UNL     1      -0.039   7.899   0.745  0.00  0.00    -0.083 Cl
BRANCH  11  13
ATOM     13  N   UNL     1       2.998   5.456   4.051  0.00  0.00    -0.357 N 
ATOM     14  H   UNL     1       3.585   4.723   4.293  0.00  0.00    +0.142 HD
ATOM     15  H   UNL     1       2.811   6.159   4.692  0.00  0.00    +0.142 HD
ENDBRANCH  11  13
ENDBRANCH   2   6
BRANCH   1  16
ATOM     16  C   UNL     1       3.713   2.213  -0.034  0.00  0.00    +0.182 C 
BRANCH  16  19
ATOM     17  C   UNL     1       4.719  -1.304  -0.970  0.00  0.00    +0.002 A 
ATOM     18  C   UNL     1       4.000  -0.236  -0.465  0.00  0.00    +0.005 A 
ATOM     19  C   UNL     1       4.497   1.049  -0.584  0.00  0.00    -0.025 A 
ATOM     20  C   UNL     1       5.711   1.266  -1.208  0.00  0.00    +0.025 A 
ATOM     21  C   UNL     1       6.430   0.198  -1.712  0.00  0.00    +0.041 A 
ATOM     22  C   UNL     1       5.933  -1.088  -1.593  0.00  0.00    +0.020 A 
ATOM     23 CL   UNL     1       7.955   0.470  -2.496  0.00  0.00    -0.084 Cl
ENDBRANCH  16  19
ENDBRANCH   1  16
TORSDOF 4
