REMARK  Name = ZINC63401556
REMARK  6 active torsions:
REMARK  status: ('A' for Active; 'I' for Inactive)
REMARK    1  A    between atoms: C_2  and  C_3
REMARK    2  A    between atoms: C_3  and  N_4
REMARK    3  A    between atoms: N_4  and  C_5
REMARK    4  A    between atoms: C_5  and  C_6
REMARK    5  A    between atoms: N_13  and  C_14
REMARK    6  A    between atoms: C_14  and  C_15
REMARK                            x       y       z     vdW  Elec       q    Type
REMARK                         _______ _______ _______ _____ _____    ______ ____
ROOT
ATOM      1  C   UNL     1       2.064   2.205   3.585  0.00  0.00    +0.142 C 
ENDROOT
BRANCH   1   2
ATOM      2  C   UNL     1       1.165   1.863   4.745  0.00  0.00    -0.014 A 
ATOM      3  C   UNL     1       0.508   2.867   5.444  0.00  0.00    +0.010 A 
ATOM      4  C   UNL     1      -0.307   2.510   6.503  0.00  0.00    +0.042 A 
ATOM      5  C   UNL     1      -0.440   1.164   6.830  0.00  0.00    +0.099 A 
ATOM      6  N   UNL     1       0.204   0.236   6.139  0.00  0.00    -0.349 N 
ATOM      7  C   UNL     1       0.983   0.547   5.121  0.00  0.00    +0.089 A 
ATOM      8  N   UNL     1      -1.256   0.790   7.892  0.00  0.00    -0.317 N 
ATOM      9  C   UNL     1      -2.061   1.803   8.537  0.00  0.00    +0.106 C 
ATOM     10  C   UNL     1      -1.255   2.452   9.689  0.00  0.00    +0.019 C 
ATOM     11  C   UNL     1      -1.108   1.507  10.806  0.00  0.00    +0.002 C 
ATOM     12  C   UNL     1      -0.325   0.244  10.461  0.00  0.00    +0.002 C 
ATOM     13  C   UNL     1      -1.257  -0.771   9.847  0.00  0.00    +0.019 C 
ATOM     14  C   UNL     1      -1.268  -0.625   8.311  0.00  0.00    +0.106 C 
ATOM     15  H   UNL     1       0.097  -0.697   6.385  0.00  0.00    +0.167 HD
ENDBRANCH   1   2
BRANCH   1  19
ATOM     16  N   UNL     1       1.155   2.517   0.036  0.00  0.00    -0.267 N 
ATOM     17  C   UNL     1       1.877   2.504   1.174  0.00  0.00    +0.304 C 
ATOM     18  O   UNL     1       3.068   2.748   1.142  0.00  0.00    -0.253 OA
ATOM     19  N   UNL     1       1.279   2.220   2.348  0.00  0.00    -0.295 N 
ATOM     20  H   UNL     1       0.329   2.024   2.373  0.00  0.00    +0.151 HD
BRANCH  16  21
ATOM     21  C   UNL     1      -0.279   2.222   0.074  0.00  0.00    +0.198 C 
BRANCH  21  23
ATOM     22  C   UNL     1      -0.654  -0.379  -0.239  0.00  0.00    +0.005 C 
ATOM     23  C   UNL     1      -0.488   0.775  -0.100  0.00  0.00    -0.086 C 
ENDBRANCH  21  23
ENDBRANCH  16  21
BRANCH  16  24
ATOM     24  C   UNL     1       1.805   2.825  -1.240  0.00  0.00    +0.184 C 
BRANCH  24  25
ATOM     25  C   UNL     1       1.750   4.311  -1.486  0.00  0.00    +0.122 A 
ATOM     26  C   UNL     1       2.678   5.207  -1.103  0.00  0.00    +0.046 A 
ATOM     27  C   UNL     1       2.226   6.475  -1.536  0.00  0.00    +0.041 A 
ATOM     28  C   UNL     1       1.049   6.278  -2.157  0.00  0.00    +0.195 A 
ATOM     29  O   UNL     1       0.768   4.965  -2.128  0.00  0.00    -0.466 OA
ENDBRANCH  24  25
ENDBRANCH  16  24
ENDBRANCH   1  19
TORSDOF 6
