REMARK  Name = ZINC50641599
REMARK  3 active torsions:
REMARK  status: ('A' for Active; 'I' for Inactive)
REMARK    1  A    between atoms: C_1  and  N_2
REMARK    2  A    between atoms: C_6  and  S_9
REMARK    3  A    between atoms: S_9  and  N_12
REMARK                            x       y       z     vdW  Elec       q    Type
REMARK                         _______ _______ _______ _____ _____    ______ ____
ROOT
ATOM      1  S   UNL     1       2.516  -2.976  -4.396  0.00  0.00    +0.076 S 
ATOM      2  O   UNL     1       1.889  -4.252  -4.395  0.00  0.00    -0.150 OA
ATOM      3  O   UNL     1       2.527  -2.134  -5.541  0.00  0.00    -0.150 OA
ENDROOT
BRANCH   1   9
ATOM      4  C   UNL     1      -0.018   1.461   0.010  0.00  0.00    +0.127 C 
ATOM      5  N   UNL     1       0.002  -0.004   0.002  0.00  0.00    -0.332 N 
ATOM      6  C   UNL     1       0.603  -0.685  -1.050  0.00  0.00    +0.119 A 
ATOM      7  C   UNL     1       1.190   0.030  -2.089  0.00  0.00    +0.045 A 
ATOM      8  C   UNL     1       1.784  -0.660  -3.130  0.00  0.00    +0.034 A 
ATOM      9  C   UNL     1       1.773  -2.048  -3.096  0.00  0.00    +0.127 A 
ATOM     10  C   UNL     1       1.173  -2.694  -2.033  0.00  0.00    +0.141 A 
ATOM     11  N   UNL     1       0.618  -2.009  -1.051  0.00  0.00    -0.239 NA
ATOM     12  H   UNL     1      -0.404  -0.499   0.731  0.00  0.00    +0.147 HD
ENDBRANCH   1   9
BRANCH   1  13
ATOM     13  N   UNL     1       4.098  -3.226  -3.977  0.00  0.00    -0.202 N 
ATOM     14  C   UNL     1       5.208  -2.329  -4.312  0.00  0.00    +0.136 C 
ATOM     15  C   UNL     1       6.457  -2.991  -3.709  0.00  0.00    +0.058 C 
ATOM     16  C   UNL     1       5.941  -4.254  -3.057  0.00  0.00    -0.023 A 
ATOM     17  C   UNL     1       4.569  -4.319  -3.248  0.00  0.00    +0.054 A 
ATOM     18  C   UNL     1       3.864  -5.405  -2.725  0.00  0.00    +0.025 A 
ATOM     19  C   UNL     1       4.525  -6.392  -2.026  0.00  0.00    +0.002 A 
ATOM     20  C   UNL     1       5.892  -6.315  -1.837  0.00  0.00    +0.000 A 
ATOM     21  C   UNL     1       6.600  -5.248  -2.360  0.00  0.00    +0.005 A 
ENDBRANCH   1  13
TORSDOF 2
