REMARK  Name = ZINC12502754
REMARK  9 active torsions:
REMARK  status: ('A' for Active; 'I' for Inactive)
REMARK    1  A    between atoms: C_4  and  C_7
REMARK    2  A    between atoms: C_7  and  C_8
REMARK    3  A    between atoms: C_7  and  C_14
REMARK    4  A    between atoms: N_16  and  C_17
REMARK    5  A    between atoms: C_17  and  N_19
REMARK    6  A    between atoms: N_19  and  N_20
REMARK    7  A    between atoms: C_21  and  C_23
REMARK    8  A    between atoms: C_26  and  N_29
REMARK    9  A    between atoms: C_30  and  C_32
REMARK                            x       y       z     vdW  Elec       q    Type
REMARK                         _______ _______ _______ _____ _____    ______ ____
ROOT
ATOM      1  C   UNL     1      -0.042  -2.997   2.188  0.00  0.00    +0.153 C 
ATOM      2  S   UNL     1      -0.520  -2.291   3.672  0.00  0.00    -0.017 S 
ENDROOT
BRANCH   1   5
ATOM      3  C   UNL     1       0.517  -0.886   1.364  0.00  0.00    +0.230 C 
ATOM      4  O   UNL     1       0.178  -0.386   2.415  0.00  0.00    -0.274 OA
ATOM      5  N   UNL     1       0.426  -2.220   1.192  0.00  0.00    -0.266 N 
ATOM      6  H   UNL     1       0.697  -2.620   0.351  0.00  0.00    +0.157 HD
BRANCH   3   7
ATOM      7  C   UNL     1       1.040  -0.016   0.249  0.00  0.00    +0.135 C 
BRANCH   7  11
ATOM      8  C   UNL     1       1.040   4.066   1.508  0.00  0.00    +0.000 A 
ATOM      9  C   UNL     1       2.195   3.498   1.004  0.00  0.00    +0.000 A 
ATOM     10  C   UNL     1       2.195   2.177   0.597  0.00  0.00    +0.005 A 
ATOM     11  C   UNL     1       1.040   1.424   0.694  0.00  0.00    -0.031 A 
ATOM     12  C   UNL     1      -0.116   1.993   1.193  0.00  0.00    +0.005 A 
ATOM     13  C   UNL     1      -0.115   3.313   1.605  0.00  0.00    +0.000 A 
ENDBRANCH   7  11
BRANCH   7  14
ATOM     14  C   UNL     1       0.157  -0.168  -0.963  0.00  0.00    -0.031 A 
ATOM     15  C   UNL     1      -1.214  -0.044  -0.839  0.00  0.00    +0.005 A 
ATOM     16  C   UNL     1      -2.023  -0.178  -1.952  0.00  0.00    +0.000 A 
ATOM     17  C   UNL     1      -1.462  -0.447  -3.186  0.00  0.00    +0.000 A 
ATOM     18  C   UNL     1      -0.091  -0.577  -3.309  0.00  0.00    +0.000 A 
ATOM     19  C   UNL     1       0.718  -0.437  -2.197  0.00  0.00    +0.005 A 
ENDBRANCH   7  14
ENDBRANCH   3   7
ENDBRANCH   1   5
BRANCH   1  20
ATOM     20  N   UNL     1      -0.133  -4.331   2.017  0.00  0.00    -0.245 N 
ATOM     21  H   UNL     1      -0.469  -4.890   2.734  0.00  0.00    +0.172 HD
BRANCH  20  22
ATOM     22  N   UNL     1       0.259  -4.909   0.802  0.00  0.00    -0.231 N 
ATOM     23  C   UNL     1       0.169  -6.242   0.630  0.00  0.00    +0.260 C 
ATOM     24  O   UNL     1      -0.253  -6.944   1.529  0.00  0.00    -0.269 OA
ATOM     25  H   UNL     1       0.596  -4.349   0.085  0.00  0.00    +0.173 HD
BRANCH  23  26
ATOM     26  C   UNL     1       0.581  -6.852  -0.649  0.00  0.00    +0.038 A 
ATOM     27  C   UNL     1       1.061  -6.046  -1.686  0.00  0.00    +0.015 A 
ATOM     28  C   UNL     1       1.450  -6.618  -2.876  0.00  0.00    +0.024 A 
ATOM     29  C   UNL     1       1.355  -7.995  -3.052  0.00  0.00    +0.033 A 
ATOM     30  C   UNL     1       0.873  -8.799  -2.024  0.00  0.00    +0.024 A 
ATOM     31  C   UNL     1       0.488  -8.234  -0.829  0.00  0.00    +0.015 A 
BRANCH  29  32
ATOM     32  N   UNL     1       1.745  -8.570  -4.261  0.00  0.00    -0.285 N 
ATOM     33  C   UNL     1       2.305  -9.796  -4.274  0.00  0.00    +0.220 C 
ATOM     34  O   UNL     1       2.557 -10.359  -3.230  0.00  0.00    -0.275 OA
ATOM     35  H   UNL     1       1.612  -8.088  -5.092  0.00  0.00    +0.155 HD
BRANCH  33  36
ATOM     36  C   UNL     1       2.620 -10.466  -5.587  0.00  0.00    +0.075 C 
ATOM     37  C   UNL     1       1.796 -11.699  -5.965  0.00  0.00    +0.013 C 
ATOM     38  C   UNL     1       3.256 -11.857  -5.535  0.00  0.00    +0.013 C 
ENDBRANCH  33  36
ENDBRANCH  29  32
ENDBRANCH  23  26
ENDBRANCH  20  22
ENDBRANCH   1  20
TORSDOF 9
