REMARK  Name = ZINC43003393
REMARK  5 active torsions:
REMARK  status: ('A' for Active; 'I' for Inactive)
REMARK    1  A    between atoms: C_4  and  C_7
REMARK    2  A    between atoms: C_7  and  C_8
REMARK    3  A    between atoms: C_7  and  N_14
REMARK    4  A    between atoms: N_17  and  N_18
REMARK    5  A    between atoms: C_19  and  C_21
REMARK                            x       y       z     vdW  Elec       q    Type
REMARK                         _______ _______ _______ _____ _____    ______ ____
ROOT
ATOM      1  N   UNL     1       3.611  -1.865  -0.930  0.00  0.00    -0.287 N 
ATOM      2  C   UNL     1       4.721  -2.370  -1.504  0.00  0.00    +0.317 C 
ATOM      3  O   UNL     1       5.805  -1.866  -1.281  0.00  0.00    -0.251 OA
ATOM      4  N   UNL     1       4.629  -3.435  -2.325  0.00  0.00    -0.218 N 
ATOM      5  H   UNL     1       2.747  -2.267  -1.108  0.00  0.00    +0.151 HD
ATOM      6  H   UNL     1       5.428  -3.799  -2.738  0.00  0.00    +0.174 HD
ENDROOT
BRANCH   4   7
ATOM      7  N   UNL     1       3.381  -4.016  -2.582  0.00  0.00    -0.228 N 
ATOM      8  C   UNL     1       3.289  -5.081  -3.404  0.00  0.00    +0.279 C 
ATOM      9  O   UNL     1       4.289  -5.537  -3.921  0.00  0.00    -0.267 OA
ATOM     10  H   UNL     1       2.582  -3.652  -2.169  0.00  0.00    +0.173 HD
BRANCH   8  11
ATOM     11  C   UNL     1       1.967  -5.696  -3.676  0.00  0.00    +0.127 A 
ATOM     12  C   UNL     1       1.891  -6.807  -4.528  0.00  0.00    +0.034 A 
ATOM     13  C   UNL     1       0.680  -7.382  -4.787  0.00  0.00    +0.012 A 
ATOM     14  C   UNL     1      -0.463  -6.830  -4.179  0.00  0.00    +0.000 A 
ATOM     15  C   UNL     1      -1.739  -7.371  -4.401  0.00  0.00    +0.010 A 
ATOM     16  C   UNL     1      -2.822  -6.811  -3.795  0.00  0.00    +0.001 A 
ATOM     17  C   UNL     1      -2.683  -5.706  -2.957  0.00  0.00    +0.002 A 
ATOM     18  C   UNL     1      -1.462  -5.154  -2.719  0.00  0.00    +0.028 A 
ATOM     19  C   UNL     1      -0.317  -5.705  -3.326  0.00  0.00    +0.072 A 
ATOM     20  N   UNL     1       0.891  -5.188  -3.106  0.00  0.00    -0.242 NA
ENDBRANCH   8  11
ENDBRANCH   4   7
BRANCH   1  21
ATOM     21  C   UNL     1       3.711  -0.707  -0.038  0.00  0.00    +0.135 C 
BRANCH  21  25
ATOM     22  C   UNL     1      -0.017   1.378   0.010  0.00  0.00    +0.000 A 
ATOM     23  C   UNL     1       1.171   2.086   0.002  0.00  0.00    +0.000 A 
ATOM     24  C   UNL     1       2.377   1.411  -0.013  0.00  0.00    +0.006 A 
ATOM     25  C   UNL     1       2.396   0.029  -0.020  0.00  0.00    -0.023 A 
ATOM     26  C   UNL     1       1.208  -0.679  -0.012  0.00  0.00    +0.006 A 
ATOM     27  C   UNL     1       0.002  -0.004   0.002  0.00  0.00    +0.000 A 
ENDBRANCH  21  25
BRANCH  21  28
ATOM     28  C   UNL     1       4.044  -1.175   1.356  0.00  0.00    -0.023 A 
ATOM     29  C   UNL     1       3.455  -2.320   1.860  0.00  0.00    +0.006 A 
ATOM     30  C   UNL     1       3.760  -2.748   3.138  0.00  0.00    +0.000 A 
ATOM     31  C   UNL     1       4.654  -2.033   3.912  0.00  0.00    +0.000 A 
ATOM     32  C   UNL     1       5.243  -0.888   3.408  0.00  0.00    +0.000 A 
ATOM     33  C   UNL     1       4.941  -0.462   2.128  0.00  0.00    +0.006 A 
ENDBRANCH  21  28
ENDBRANCH   1  21
TORSDOF 5
