REMARK  Name = ZINC39639102
REMARK  14 active torsions:
REMARK  status: ('A' for Active; 'I' for Inactive)
REMARK    1  A    between atoms: C_1  and  C_2
REMARK    2  A    between atoms: C_2  and  C_3
REMARK    3  A    between atoms: C_3  and  C_4
REMARK    4  A    between atoms: C_3  and  C_6
REMARK    5  A    between atoms: C_4  and  C_5
REMARK    6  A    between atoms: C_10  and  C_19
REMARK    7  A    between atoms: N_21  and  C_22
REMARK    8  A    between atoms: C_22  and  C_23
REMARK    9  A    between atoms: C_24  and  O_33
REMARK   10  A    between atoms: C_26  and  O_31
REMARK   11  A    between atoms: C_28  and  O_29
REMARK   12  A    between atoms: O_29  and  C_30
REMARK   13  A    between atoms: O_31  and  C_32
REMARK   14  A    between atoms: O_33  and  C_34
REMARK                            x       y       z     vdW  Elec       q    Type
REMARK                         _______ _______ _______ _____ _____    ______ ____
ROOT
ATOM      1  C   UNL     1       0.948  -2.158   1.082  0.00  0.00    +0.219 C 
ATOM      2  O   UNL     1       0.636  -2.720   0.053  0.00  0.00    -0.275 OA
ATOM      3  N   UNL     1       1.441  -2.869   2.115  0.00  0.00    -0.300 N 
ATOM      4  C   UNL     1       1.958  -2.356   3.406  0.00  0.00    +0.121 C 
ATOM      5  C   UNL     1       1.448  -3.365   4.459  0.00  0.00    +0.100 C 
ATOM      6  C   UNL     1       1.209  -4.665   3.674  0.00  0.00    -0.004 C 
ATOM      7  C   UNL     1       1.582  -4.341   2.220  0.00  0.00    +0.115 C 
ATOM      8  C   UNL     1      -0.260  -5.070   3.757  0.00  0.00    -0.010 C 
ATOM      9  C   UNL     1      -0.462  -6.395   3.017  0.00  0.00    -0.082 C 
ATOM     10  N   UNL     1       0.387  -7.430   3.621  0.00  0.00    +0.379 N 
ATOM     11  C   UNL     1       1.802  -7.077   3.454  0.00  0.00    -0.082 C 
ATOM     12  C   UNL     1       2.100  -5.780   4.213  0.00  0.00    -0.010 C 
ATOM     13  H   UNL     1       0.174  -7.505   4.604  0.00  0.00    -0.086 HD
ATOM     14  H   UNL     1       0.208  -8.315   3.171  0.00  0.00    -0.086 HD
ENDROOT
BRANCH   5  15
ATOM     15  C   UNL     1       0.162  -2.876   5.074  0.00  0.00    +0.218 C 
ATOM     16  O   UNL     1      -0.629  -2.245   4.405  0.00  0.00    -0.275 OA
ATOM     17  N   UNL     1      -0.110  -3.140   6.367  0.00  0.00    -0.311 N 
ATOM     18  H   UNL     1       0.522  -3.644   6.903  0.00  0.00    +0.149 HD
BRANCH  17  19
ATOM     19  C   UNL     1      -1.360  -2.665   6.965  0.00  0.00    +0.147 C 
BRANCH  19  20
ATOM     20  C   UNL     1      -1.420  -3.089   8.410  0.00  0.00    +0.053 A 
ATOM     21  C   UNL     1      -1.984  -4.309   8.752  0.00  0.00    +0.132 A 
ATOM     22  C   UNL     1      -2.039  -4.699  10.081  0.00  0.00    +0.091 A 
ATOM     23  C   UNL     1      -1.529  -3.870  11.069  0.00  0.00    +0.127 A 
ATOM     24  C   UNL     1      -0.963  -2.651  10.727  0.00  0.00    +0.091 A 
ATOM     25  C   UNL     1      -0.905  -2.263   9.397  0.00  0.00    +0.132 A 
BRANCH  25  26
ATOM     26  O   UNL     1      -0.347  -1.070   9.061  0.00  0.00    -0.495 OA
ATOM     27  C   UNL     1       0.164  -0.269  10.129  0.00  0.00    +0.277 C 
ENDBRANCH  25  26
BRANCH  23  28
ATOM     28  O   UNL     1      -1.583  -4.253  12.372  0.00  0.00    -0.495 OA
ATOM     29  C   UNL     1      -1.039  -3.349  13.336  0.00  0.00    +0.277 C 
ENDBRANCH  23  28
BRANCH  21  30
ATOM     30  O   UNL     1      -2.484  -5.121   7.784  0.00  0.00    -0.495 OA
ATOM     31  C   UNL     1      -3.051  -6.363   8.207  0.00  0.00    +0.277 C 
ENDBRANCH  21  30
ENDBRANCH  19  20
ENDBRANCH  17  19
ENDBRANCH   5  15
BRANCH   1  32
ATOM     32  C   UNL     1       0.785  -0.665   1.204  0.00  0.00    +0.075 C 
BRANCH  32  34
ATOM     33  C   UNL     1       1.911   1.540   0.864  0.00  0.00    +0.004 C 
ATOM     34  C   UNL     1       2.020   0.032   0.628  0.00  0.00    +0.009 C 
ENDBRANCH  32  34
BRANCH  32  35
ATOM     35  C   UNL     1      -0.458  -0.222   0.430  0.00  0.00    +0.009 C 
ATOM     36  C   UNL     1      -1.706  -0.808   1.092  0.00  0.00    +0.004 C 
ENDBRANCH  32  35
ENDBRANCH   1  32
TORSDOF 9
