REMARK  Name = ZINC20728660
REMARK  4 active torsions:
REMARK  status: ('A' for Active; 'I' for Inactive)
REMARK    1  A    between atoms: C_9  and  S_14
REMARK    2  A    between atoms: C_11  and  O_13
REMARK    3  A    between atoms: S_14  and  C_15
REMARK    4  A    between atoms: N_19  and  C_20
REMARK                            x       y       z     vdW  Elec       q    Type
REMARK                         _______ _______ _______ _____ _____    ______ ____
ROOT
ATOM      1  C   UNL     1      -0.017   1.373   0.010  0.00  0.00    +0.000 A 
ATOM      2  C   UNL     1       1.178   2.071   0.002  0.00  0.00    +0.002 A 
ATOM      3  C   UNL     1       2.366   1.387  -0.018  0.00  0.00    +0.028 A 
ATOM      4  C   UNL     1       2.401  -0.025  -0.029  0.00  0.00    +0.071 A 
ATOM      5  C   UNL     1       1.200  -0.715  -0.012  0.00  0.00    -0.022 A 
ATOM      6  C   UNL     1       0.002  -0.004   0.002  0.00  0.00    +0.006 A 
ATOM      7  C   UNL     1       1.071  -2.206   0.008  0.00  0.00    +0.039 C 
ATOM      8  C   UNL     1       2.115  -2.952  -0.764  0.00  0.00    +0.029 C 
ATOM      9  C   UNL     1       3.449  -3.006  -0.061  0.00  0.00    +0.140 C 
ATOM     10  C   UNL     1       4.160  -1.701  -0.109  0.00  0.00    +0.201 C 
ATOM     11  N   UNL     1       3.635  -0.562  -0.062  0.00  0.00    -0.216 NA
ENDROOT
BRANCH  10  12
ATOM     12  O   UNL     1       5.504  -1.746  -0.213  0.00  0.00    -0.495 OA
ATOM     13  H   UNL     1       5.925  -0.876  -0.240  0.00  0.00    +0.293 HD
ENDBRANCH  10  12
BRANCH   9  14
ATOM     14  S   UNL     1       4.483  -4.267  -0.856  0.00  0.00    -0.071 S 
BRANCH  14  15
ATOM     15  C   UNL     1       5.931  -4.324   0.146  0.00  0.00    +0.215 A 
ATOM     16  N   UNL     1       6.167  -3.603   1.222  0.00  0.00    -0.101 NA
ATOM     17  N   UNL     1       7.318  -3.893   1.713  0.00  0.00    -0.022 NA
ATOM     18  N   UNL     1       7.894  -4.801   1.004  0.00  0.00    -0.038 NA
ATOM     19  N   UNL     1       7.012  -5.122  -0.042  0.00  0.00    -0.187 N 
BRANCH  19  20
ATOM     20  C   UNL     1       7.207  -6.064  -1.063  0.00  0.00    +0.070 A 
ATOM     21  C   UNL     1       6.131  -6.789  -1.556  0.00  0.00    +0.029 A 
ATOM     22  C   UNL     1       6.326  -7.715  -2.562  0.00  0.00    +0.022 A 
ATOM     23  C   UNL     1       7.593  -7.921  -3.078  0.00  0.00    +0.041 A 
ATOM     24  C   UNL     1       8.668  -7.200  -2.587  0.00  0.00    +0.022 A 
ATOM     25  C   UNL     1       8.477  -6.269  -1.586  0.00  0.00    +0.029 A 
ATOM     26 CL   UNL     1       7.836  -9.087  -4.341  0.00  0.00    -0.084 Cl
ENDBRANCH  19  20
ENDBRANCH  14  15
ENDBRANCH   9  14
TORSDOF 4
