REMARK  Name = ZINC10696391
REMARK  7 active torsions:
REMARK  status: ('A' for Active; 'I' for Inactive)
REMARK    1  A    between atoms: C_4  and  C_7
REMARK    2  A    between atoms: C_7  and  C_9
REMARK    3  A    between atoms: C_7  and  C_23
REMARK    4  A    between atoms: C_9  and  N_10
REMARK    5  A    between atoms: C_11  and  C_13
REMARK    6  A    between atoms: C_13  and  N_14
REMARK    7  A    between atoms: C_15  and  C_17
REMARK                            x       y       z     vdW  Elec       q    Type
REMARK                         _______ _______ _______ _____ _____    ______ ____
ROOT
ATOM      1  C   UNL     1      -3.778   3.868   0.060  0.00  0.00    +0.068 C 
ENDROOT
BRANCH   1   2
ATOM      2  C   UNL     1      -2.295   4.136   0.046  0.00  0.00    -0.013 A 
ATOM      3  C   UNL     1      -1.702   5.341   0.047  0.00  0.00    +0.088 A 
ATOM      4  N   UNL     1      -0.342   5.191   0.033  0.00  0.00    -0.360 N 
ATOM      5  H   UNL     1       0.299   5.919   0.030  0.00  0.00    +0.165 HD
ATOM      6  C   UNL     1      -0.018   3.852   0.022  0.00  0.00    +0.047 A 
ATOM      7  C   UNL     1      -1.228   3.133   0.031  0.00  0.00    +0.003 A 
ATOM      8  C   UNL     1      -1.208   1.738   0.017  0.00  0.00    +0.010 A 
ATOM      9  C   UNL     1      -0.013   1.076   0.008  0.00  0.00    +0.001 A 
ATOM     10  C   UNL     1       1.183   1.781   0.000  0.00  0.00    +0.002 A 
ATOM     11  C   UNL     1       1.187   3.158   0.007  0.00  0.00    +0.026 A 
ENDBRANCH   1   2
BRANCH   1  15
ATOM     12  C   UNL     1      -5.501   5.574   3.577  0.00  0.00    +0.000 A 
ATOM     13  C   UNL     1      -5.597   4.214   3.350  0.00  0.00    +0.000 A 
ATOM     14  C   UNL     1      -5.039   3.662   2.213  0.00  0.00    +0.004 A 
ATOM     15  C   UNL     1      -4.386   4.470   1.301  0.00  0.00    -0.038 A 
ATOM     16  C   UNL     1      -4.286   5.830   1.529  0.00  0.00    +0.004 A 
ATOM     17  C   UNL     1      -4.848   6.382   2.665  0.00  0.00    +0.000 A 
ENDBRANCH   1  15
BRANCH   1  18
ATOM     18  C   UNL     1      -4.421   4.494  -1.179  0.00  0.00    +0.117 C 
BRANCH  18  19
ATOM     19  N   UNL     1      -5.840   4.132  -1.228  0.00  0.00    -0.313 N 
ATOM     20  C   UNL     1      -6.614   4.574  -2.239  0.00  0.00    +0.230 C 
ATOM     21  O   UNL     1      -6.135   5.271  -3.109  0.00  0.00    -0.274 OA
ATOM     22  H   UNL     1      -6.223   3.574  -0.533  0.00  0.00    +0.149 HD
BRANCH  20  23
ATOM     23  C   UNL     1      -8.073   4.202  -2.290  0.00  0.00    +0.200 C 
BRANCH  23  24
ATOM     24  N   UNL     1      -8.689   4.801  -3.476  0.00  0.00    -0.300 N 
ATOM     25  C   UNL     1      -9.998   4.603  -3.729  0.00  0.00    +0.280 C 
ATOM     26  O   UNL     1     -10.668   3.925  -2.972  0.00  0.00    -0.267 OA
ATOM     27  H   UNL     1      -8.155   5.341  -4.080  0.00  0.00    +0.150 HD
BRANCH  25  28
ATOM     28  C   UNL     1     -10.614   5.202  -4.916  0.00  0.00    +0.191 A 
ATOM     29  C   UNL     1     -11.922   5.081  -5.289  0.00  0.00    +0.056 A 
ATOM     30  C   UNL     1     -12.073   5.811  -6.477  0.00  0.00    +0.058 A 
ATOM     31  C   UNL     1     -10.864   6.340  -6.776  0.00  0.00    +0.171 A 
ATOM     32  O   UNL     1      -9.989   5.976  -5.829  0.00  0.00    -0.444 OA
ATOM     33 BR   UNL     1     -10.475   7.423  -8.277  0.00  0.00    -0.008 Br
ENDBRANCH  25  28
ENDBRANCH  23  24
ENDBRANCH  20  23
ENDBRANCH  18  19
ENDBRANCH   1  18
TORSDOF 7
