REMARK  Name = ZINC21237887
REMARK  7 active torsions:
REMARK  status: ('A' for Active; 'I' for Inactive)
REMARK    1  A    between atoms: C_1  and  C_2
REMARK    2  A    between atoms: C_5  and  C_9
REMARK    3  A    between atoms: C_14  and  C_19
REMARK    4  A    between atoms: C_21  and  O_27
REMARK    5  A    between atoms: C_24  and  O_25
REMARK    6  A    between atoms: O_25  and  C_26
REMARK    7  A    between atoms: O_27  and  C_28
REMARK                            x       y       z     vdW  Elec       q    Type
REMARK                         _______ _______ _______ _____ _____    ______ ____
ROOT
ATOM      1  C   UNL     1       4.430   1.944  -1.282  0.00  0.00    +0.136 C 
ATOM      2  C   UNL     1       5.085   0.611  -1.550  0.00  0.00    +0.036 C 
ATOM      3  C   UNL     1       4.764  -0.557  -0.966  0.00  0.00    +0.017 C 
ATOM      4  C   UNL     1       5.513  -1.830  -1.321  0.00  0.00    +0.060 C 
ATOM      5  C   UNL     1       5.968  -1.780  -2.778  0.00  0.00    +0.036 C 
ATOM      6  C   UNL     1       6.878  -0.557  -2.942  0.00  0.00    +0.088 C 
ATOM      7  C   UNL     1       6.119   0.663  -2.514  0.00  0.00    +0.163 C 
ATOM      8  O   UNL     1       6.402   1.734  -3.013  0.00  0.00    -0.292 OA
ATOM      9  N   UNL     1       3.789  -0.708  -0.035  0.00  0.00    -0.316 N 
ATOM     10  C   UNL     1       2.510  -0.175  -0.129  0.00  0.00    +0.052 A 
ATOM     11  C   UNL     1       1.380  -0.971  -0.202  0.00  0.00    +0.025 A 
ATOM     12  C   UNL     1       0.129  -0.377  -0.202  0.00  0.00    +0.002 A 
ATOM     13  C   UNL     1       0.010   0.999  -0.129  0.00  0.00    +0.002 A 
ATOM     14  C   UNL     1       1.139   1.798  -0.073  0.00  0.00    +0.025 A 
ATOM     15  C   UNL     1       2.391   1.207  -0.091  0.00  0.00    +0.049 A 
ATOM     16  N   UNL     1       3.559   1.969  -0.127  0.00  0.00    -0.331 N 
ATOM     17  H   UNL     1       3.985  -1.290   0.878  0.00  0.00    +0.152 HD
ATOM     18  H   UNL     1       3.814   2.595   0.741  0.00  0.00    +0.147 HD
ENDROOT
BRANCH   1  23
ATOM     19  C   UNL     1       1.337   3.428  -5.934  0.00  0.00    +0.045 C 
ATOM     20  C   UNL     1       2.144   3.041  -4.721  0.00  0.00    -0.036 A 
ATOM     21  C   UNL     1       1.787   1.931  -3.978  0.00  0.00    +0.005 A 
ATOM     22  C   UNL     1       2.530   1.573  -2.869  0.00  0.00    +0.006 A 
ATOM     23  C   UNL     1       3.624   2.332  -2.495  0.00  0.00    -0.022 A 
ATOM     24  C   UNL     1       3.982   3.441  -3.237  0.00  0.00    +0.021 A 
ATOM     25  C   UNL     1       3.242   3.797  -4.351  0.00  0.00    +0.021 A 
ATOM     26 BR   UNL     1       3.730   5.315  -5.366  0.00  0.00    -0.050 Br
ENDBRANCH   1  23
BRANCH   5  27
ATOM     27  C   UNL     1       6.731  -3.035  -3.119  0.00  0.00    +0.002 A 
ATOM     28  C   UNL     1       7.886  -3.348  -2.430  0.00  0.00    +0.053 A 
ATOM     29  C   UNL     1       8.586  -4.505  -2.739  0.00  0.00    +0.121 A 
ATOM     30  C   UNL     1       8.131  -5.341  -3.748  0.00  0.00    +0.049 A 
ATOM     31  C   UNL     1       6.979  -5.025  -4.441  0.00  0.00    +0.049 A 
ATOM     32  C   UNL     1       6.276  -3.871  -4.127  0.00  0.00    +0.124 A 
BRANCH  32  33
ATOM     33  O   UNL     1       5.141  -3.559  -4.808  0.00  0.00    -0.495 OA
ATOM     34  C   UNL     1       4.731  -4.466  -5.834  0.00  0.00    +0.277 C 
ENDBRANCH  32  33
BRANCH  29  35
ATOM     35  O   UNL     1       9.721  -4.816  -2.058  0.00  0.00    -0.495 OA
ATOM     36  C   UNL     1      10.393  -6.020  -2.434  0.00  0.00    +0.277 C 
ENDBRANCH  29  35
ENDBRANCH   5  27
TORSDOF 4
