REMARK  Name = ZINC05072525
REMARK  7 active torsions:
REMARK  status: ('A' for Active; 'I' for Inactive)
REMARK    1  A    between atoms: C_1  and  O_2
REMARK    2  A    between atoms: O_2  and  C_3
REMARK    3  A    between atoms: C_3  and  C_5
REMARK    4  A    between atoms: C_6  and  C_20
REMARK    5  A    between atoms: C_11  and  C_13
REMARK    6  A    between atoms: C_20  and  S_21
REMARK    7  A    between atoms: S_21  and  C_22
REMARK                            x       y       z     vdW  Elec       q    Type
REMARK                         _______ _______ _______ _____ _____    ______ ____
ROOT
ATOM      1  C   UNL     1      -0.938   2.084  -0.982  0.00  0.00    +0.079 C 
ATOM      2  C   UNL     1      -0.376   2.537  -2.124  0.00  0.00    +0.034 C 
ATOM      3  N   UNL     1       0.962   2.801  -2.193  0.00  0.00    -0.272 N 
ATOM      4  C   UNL     1       1.805   2.640  -1.166  0.00  0.00    +0.304 C 
ATOM      5  O   UNL     1       2.982   2.903  -1.324  0.00  0.00    -0.252 OA
ATOM      6  N   UNL     1       1.392   2.197   0.038  0.00  0.00    -0.288 N 
ATOM      7  C   UNL     1      -0.035   1.882   0.217  0.00  0.00    +0.144 C 
ATOM      8  H   UNL     1       1.321   3.124  -3.035  0.00  0.00    +0.156 HD
ATOM      9  H   UNL     1       2.021   2.088   0.769  0.00  0.00    +0.151 HD
ENDROOT
BRANCH   7  10
ATOM     10  C   UNL     1      -0.143   0.441   0.643  0.00  0.00    -0.022 A 
ATOM     11  C   UNL     1       0.672  -0.513   0.062  0.00  0.00    +0.008 A 
ATOM     12  C   UNL     1       0.578  -1.835   0.456  0.00  0.00    +0.038 A 
ATOM     13  C   UNL     1      -0.341  -2.205   1.423  0.00  0.00    +0.123 A 
ATOM     14  C   UNL     1      -1.160  -1.249   2.000  0.00  0.00    +0.038 A 
ATOM     15  C   UNL     1      -1.060   0.073   1.609  0.00  0.00    +0.008 A 
ATOM     16  F   UNL     1      -0.438  -3.498   1.804  0.00  0.00    -0.205 F 
ENDBRANCH   7  10
BRANCH   1  17
ATOM     17  C   UNL     1      -2.324   1.810  -0.908  0.00  0.00    +0.339 C 
ATOM     18  O   UNL     1      -3.052   2.100  -1.839  0.00  0.00    -0.245 OA
BRANCH  17  20
ATOM     19  C   UNL     1      -4.246   0.978   0.200  0.00  0.00    +0.280 C 
ATOM     20  O   UNL     1      -2.839   1.226   0.194  0.00  0.00    -0.465 OA
ENDBRANCH  17  20
ENDBRANCH   1  17
BRANCH   2  21
ATOM     21  C   UNL     1      -1.239   2.752  -3.340  0.00  0.00    +0.128 C 
BRANCH  21  22
ATOM     22  S   UNL     1      -1.829   4.463  -3.367  0.00  0.00    -0.082 S 
BRANCH  22  23
ATOM     23  C   UNL     1      -2.782   4.435  -4.848  0.00  0.00    +0.168 A 
ATOM     24  N   UNL     1      -3.475   5.497  -5.356  0.00  0.00    -0.333 N 
ATOM     25  H   UNL     1      -3.532   6.413  -4.959  0.00  0.00    +0.168 HD
ATOM     26  C   UNL     1      -4.084   5.069  -6.525  0.00  0.00    +0.067 A 
ATOM     27  C   UNL     1      -4.899   5.682  -7.464  0.00  0.00    +0.028 A 
ATOM     28  C   UNL     1      -5.362   4.962  -8.547  0.00  0.00    +0.002 A 
ATOM     29  C   UNL     1      -5.016   3.628  -8.702  0.00  0.00    +0.002 A 
ATOM     30  C   UNL     1      -4.207   3.003  -7.779  0.00  0.00    +0.030 A 
ATOM     31  C   UNL     1      -3.731   3.718  -6.678  0.00  0.00    +0.090 A 
ATOM     32  N   UNL     1      -2.937   3.390  -5.625  0.00  0.00    -0.222 NA
ENDBRANCH  22  23
ENDBRANCH  21  22
ENDBRANCH   2  21
TORSDOF 6
