REMARK  Name = ZINC05447866
REMARK  4 active torsions:
REMARK  status: ('A' for Active; 'I' for Inactive)
REMARK    1  A    between atoms: C_6  and  N_7
REMARK    2  A    between atoms: C_8  and  C_10
REMARK    3  A    between atoms: C_10  and  C_11
REMARK    4  A    between atoms: N_17  and  N_18
REMARK                            x       y       z     vdW  Elec       q    Type
REMARK                         _______ _______ _______ _____ _____    ______ ____
ROOT
ATOM      1  C   UNL     1      -2.182  -4.324  -0.316  0.00  0.00    +0.149 C 
ATOM      2  C   UNL     1      -3.463  -5.132  -0.453  0.00  0.00    +0.233 C 
ATOM      3  O   UNL     1      -4.214  -4.994  -1.395  0.00  0.00    -0.274 OA
ATOM      4  N   UNL     1      -3.707  -5.995   0.519  0.00  0.00    -0.263 N 
ATOM      5  C   UNL     1      -2.857  -6.158   1.593  0.00  0.00    +0.183 C 
ATOM      6  N   UNL     1      -2.988  -6.977   2.614  0.00  0.00    -0.127 NA
ATOM      7  S   UNL     1      -1.537  -4.997   1.271  0.00  0.00    -0.075 S 
ATOM      8  H   UNL     1      -4.513  -6.532   0.474  0.00  0.00    +0.157 HD
ENDROOT
BRANCH   6   9
ATOM      9  N   UNL     1      -4.103  -7.822   2.696  0.00  0.00    -0.156 NA
ATOM     10  C   UNL     1      -4.232  -8.627   3.700  0.00  0.00    +0.041 C 
ATOM     11  C   UNL     1      -3.194  -8.667   4.800  0.00  0.00    +0.053 C 
ATOM     12  C   UNL     1      -3.907  -8.523   6.149  0.00  0.00    +0.006 C 
ATOM     13  C   UNL     1      -4.992  -9.595   6.267  0.00  0.00    +0.001 C 
ATOM     14  C   UNL     1      -6.057  -9.375   5.190  0.00  0.00    +0.006 C 
ATOM     15  C   UNL     1      -5.427  -9.547   3.809  0.00  0.00    +0.053 C 
ENDBRANCH   6   9
BRANCH   1  16
ATOM     16  C   UNL     1      -2.480  -2.828  -0.204  0.00  0.00    +0.120 C 
BRANCH  16  18
ATOM     17  N   UNL     1      -1.200  -0.722   0.010  0.00  0.00    -0.285 N 
ATOM     18  C   UNL     1      -1.184  -2.065  -0.099  0.00  0.00    +0.219 C 
ATOM     19  O   UNL     1      -0.127  -2.660  -0.113  0.00  0.00    -0.275 OA
ATOM     20  H   UNL     1      -2.045  -0.252   0.098  0.00  0.00    +0.155 HD
BRANCH  17  26
ATOM     21  C   UNL     1       1.071  -0.454  -0.766  0.00  0.00    +0.026 A 
ATOM     22  C   UNL     1       2.256   0.256  -0.779  0.00  0.00    +0.040 A 
ATOM     23  C   UNL     1       2.378   1.416  -0.032  0.00  0.00    +0.124 A 
ATOM     24  C   UNL     1       1.312   1.866   0.730  0.00  0.00    +0.040 A 
ATOM     25  C   UNL     1       0.126   1.159   0.745  0.00  0.00    +0.026 A 
ATOM     26  C   UNL     1       0.002  -0.004  -0.004  0.00  0.00    +0.034 A 
ATOM     27  F   UNL     1       3.538   2.108  -0.045  0.00  0.00    -0.205 F 
ENDBRANCH  17  26
ENDBRANCH  16  18
ENDBRANCH   1  16
TORSDOF 4
