REMARK  Name = ZINC39957170
REMARK  7 active torsions:
REMARK  status: ('A' for Active; 'I' for Inactive)
REMARK    1  A    between atoms: C_1  and  C_2
REMARK    2  A    between atoms: C_2  and  C_25
REMARK    3  A    between atoms: C_6  and  C_21
REMARK    4  A    between atoms: C_17  and  C_19
REMARK    5  A    between atoms: C_17  and  C_20
REMARK    6  A    between atoms: C_22  and  C_23
REMARK    7  A    between atoms: C_23  and  O_24
REMARK                            x       y       z     vdW  Elec       q    Type
REMARK                         _______ _______ _______ _____ _____    ______ ____
ROOT
ATOM      1  C   UNL     1      -0.019   1.526   0.010  0.00  0.00    +0.074 C 
ATOM      2  C   UNL     1       0.002  -0.004   0.002  0.00  0.00    +0.166 C 
ATOM      3  O   UNL     1      -1.349  -0.507   0.028  0.00  0.00    -0.340 OA
ATOM      4  C   UNL     1      -1.589  -0.776   1.421  0.00  0.00    +0.186 C 
ATOM      5  C   UNL     1      -2.718  -1.760   1.640  0.00  0.00    +0.176 C 
ATOM      6  O   UNL     1      -2.406  -3.009   1.026  0.00  0.00    -0.339 OA
ATOM      7  C   UNL     1      -1.244  -3.639   1.515  0.00  0.00    +0.286 C 
ATOM      8  C   UNL     1       0.008  -2.757   1.386  0.00  0.00    +0.209 C 
ATOM      9  C   UNL     1      -0.235  -1.332   1.889  0.00  0.00    +0.187 C 
ATOM     10  O   UNL     1       0.696  -0.484   1.164  0.00  0.00    -0.341 OA
ATOM     11  O   UNL     1       0.907  -3.381   2.342  0.00  0.00    -0.338 OA
ATOM     12  C   UNL     1       0.087  -4.064   3.301  0.00  0.00    +0.168 C 
ATOM     13  O   UNL     1      -1.290  -3.889   2.930  0.00  0.00    -0.318 OA
ATOM     14  C   UNL     1       0.445  -5.552   3.317  0.00  0.00    +0.074 C 
ATOM     15  C   UNL     1       0.316  -3.469   4.692  0.00  0.00    +0.074 C 
ATOM     16  C   UNL     1       0.709  -0.502  -1.261  0.00  0.00    +0.074 C 
ENDROOT
BRANCH   5  17
ATOM     17  C   UNL     1      -3.984  -1.211   1.034  0.00  0.00    +0.005 C 
ATOM     18  C   UNL     1      -4.651  -1.919   0.157  0.00  0.00    -0.001 C 
BRANCH  18  19
ATOM     19  C   UNL     1      -5.917  -1.370  -0.450  0.00  0.00    +0.183 C 
BRANCH  19  20
ATOM     20  O   UNL     1      -5.908  -1.598  -1.860  0.00  0.00    -0.391 OA
ATOM     21  H   UNL     1      -6.694  -1.270  -2.317  0.00  0.00    +0.210 HD
ENDBRANCH  19  20
ENDBRANCH  18  19
ENDBRANCH   5  17
TORSDOF 3
