REMARK  Name = ZINC59787772
REMARK  9 active torsions:
REMARK  status: ('A' for Active; 'I' for Inactive)
REMARK    1  A    between atoms: C_1  and  C_2
REMARK    2  A    between atoms: C_2  and  C_28
REMARK    3  A    between atoms: C_4  and  N_10
REMARK    4  A    between atoms: C_6  and  C_8
REMARK    5  A    between atoms: C_6  and  C_9
REMARK    6  A    between atoms: C_11  and  C_13
REMARK    7  A    between atoms: C_13  and  S_14
REMARK    8  A    between atoms: S_14  and  C_15
REMARK    9  A    between atoms: C_18  and  C_21
REMARK                            x       y       z     vdW  Elec       q    Type
REMARK                         _______ _______ _______ _____ _____    ______ ____
ROOT
ATOM      1  N   UNL     1      -3.540  -0.922   1.007  0.00  0.00    -0.312 N 
ATOM      2  C   UNL     1      -4.546  -0.473   1.784  0.00  0.00    +0.224 C 
ATOM      3  O   UNL     1      -4.333   0.384   2.615  0.00  0.00    -0.275 OA
ATOM      4  H   UNL     1      -3.710  -1.608   0.342  0.00  0.00    +0.149 HD
ENDROOT
BRANCH   1   8
ATOM      5  C   UNL     1      -0.019   1.528   0.010  0.00  0.00    -0.010 C 
ATOM      6  C   UNL     1       0.002  -0.004   0.002  0.00  0.00    -0.072 C 
ATOM      7  C   UNL     1      -1.419  -0.538  -0.145  0.00  0.00    +0.009 C 
ATOM      8  C   UNL     1      -2.188  -0.373   1.166  0.00  0.00    +0.070 C 
ATOM      9  C   UNL     1      -1.451  -1.155   2.253  0.00  0.00    +0.009 C 
ATOM     10  C   UNL     1      -0.030  -0.627   2.418  0.00  0.00    -0.072 C 
ATOM     11  N   UNL     1       0.697  -0.529   1.164  0.00  0.00    +0.386 N 
ATOM     12  C   UNL     1       0.730  -1.621   3.326  0.00  0.00    -0.010 C 
ATOM     13  C   UNL     1      -0.059   0.719   3.151  0.00  0.00    -0.010 C 
ATOM     14  C   UNL     1       0.791  -0.440  -1.254  0.00  0.00    -0.010 C 
ATOM     15  H   UNL     1       1.056  -1.460   0.929  0.00  0.00    -0.084 HD
ATOM     16  H   UNL     1       1.534   0.040   1.322  0.00  0.00    -0.084 HD
ENDBRANCH   1   8
BRANCH   2  17
ATOM     17  C   UNL     1      -5.934  -1.037   1.621  0.00  0.00    +0.173 C 
BRANCH  17  18
ATOM     18  S   UNL     1      -7.054  -0.236   2.801  0.00  0.00    -0.077 S 
BRANCH  18  19
ATOM     19  C   UNL     1      -8.614  -0.994   2.488  0.00  0.00    +0.185 A 
ATOM     20  N   UNL     1      -8.856  -1.924   1.591  0.00  0.00    -0.201 NA
ATOM     21  H   UNL     1      -9.901  -0.083   3.849  0.00  0.00    +0.191 HD
ATOM     22  C   UNL     1     -10.152  -2.264   1.632  0.00  0.00    +0.182 A 
ATOM     23  N   UNL     1     -10.750  -1.552   2.559  0.00  0.00    -0.152 NA
ATOM     24  N   UNL     1      -9.771  -0.724   3.133  0.00  0.00    -0.253 N 
BRANCH  22  25
ATOM     25  C   UNL     1     -10.805  -3.280   0.769  0.00  0.00    +0.021 A 
ATOM     26  C   UNL     1     -10.058  -3.976  -0.179  0.00  0.00    +0.013 A 
ATOM     27  C   UNL     1     -10.670  -4.920  -0.979  0.00  0.00    +0.016 A 
ATOM     28  C   UNL     1     -12.023  -5.176  -0.840  0.00  0.00    +0.018 A 
ATOM     29  C   UNL     1     -12.770  -4.487   0.101  0.00  0.00    +0.016 A 
ATOM     30  C   UNL     1     -12.166  -3.545   0.909  0.00  0.00    +0.013 A 
ATOM     31 BR   UNL     1     -12.855  -6.470  -1.939  0.00  0.00    -0.050 Br
ENDBRANCH  22  25
ENDBRANCH  18  19
ENDBRANCH  17  18
ENDBRANCH   2  17
TORSDOF 5
