REMARK  Name = ZINC22011303
REMARK  11 active torsions:
REMARK  status: ('A' for Active; 'I' for Inactive)
REMARK    1  A    between atoms: C_1  and  C_2
REMARK    2  A    between atoms: C_2  and  C_4
REMARK    3  A    between atoms: C_2  and  N_14
REMARK    4  A    between atoms: C_7  and  S_10
REMARK    5  A    between atoms: S_10  and  N_13
REMARK    6  A    between atoms: N_14  and  C_15
REMARK    7  A    between atoms: N_14  and  C_16
REMARK    8  A    between atoms: C_16  and  C_17
REMARK    9  A    between atoms: C_26  and  C_28
REMARK   10  A    between atoms: C_31  and  O_34
REMARK   11  A    between atoms: O_34  and  C_35
REMARK                            x       y       z     vdW  Elec       q    Type
REMARK                         _______ _______ _______ _____ _____    ______ ____
ROOT
ATOM      1  C   UNL     1      -4.456   6.418   5.918  0.00  0.00    +0.094 A 
ATOM      2  N   UNL     1      -5.139   7.018   6.928  0.00  0.00    -0.311 N 
ATOM      3  H   UNL     1      -5.551   6.414   7.749  0.00  0.00    +0.170 HD
ATOM      4  C   UNL     1      -5.306   8.363   6.910  0.00  0.00    +0.266 A 
ATOM      5  O   UNL     1      -5.914   8.931   7.802  0.00  0.00    -0.267 OA
ATOM      6  C   UNL     1      -4.762   9.079   5.845  0.00  0.00    +0.102 A 
ATOM      7  C   UNL     1      -4.059   8.433   4.811  0.00  0.00    +0.086 A 
ATOM      8  N   UNL     1      -3.942   7.068   4.925  0.00  0.00    -0.235 NA
ATOM      9  C   UNL     1      -3.566   9.266   3.803  0.00  0.00    +0.044 A 
ATOM     10  C   UNL     1      -3.780  10.611   3.865  0.00  0.00    +0.022 A 
ATOM     11  S   UNL     1      -4.709  10.789   5.379  0.00  0.00    -0.081 S 
ENDROOT
BRANCH  10  12
ATOM     12  C   UNL     1      -3.351  11.661   2.917  0.00  0.00    -0.011 A 
ATOM     13  C   UNL     1      -2.618  11.318   1.779  0.00  0.00    +0.012 A 
ATOM     14  C   UNL     1      -2.223  12.298   0.894  0.00  0.00    +0.046 A 
ATOM     15  C   UNL     1      -2.545  13.627   1.139  0.00  0.00    +0.120 A 
ATOM     16  C   UNL     1      -3.270  13.973   2.272  0.00  0.00    +0.046 A 
ATOM     17  C   UNL     1      -3.672  12.997   3.159  0.00  0.00    +0.012 A 
BRANCH  15  18
ATOM     18  O   UNL     1      -2.150  14.591   0.267  0.00  0.00    -0.495 OA
ATOM     19  C   UNL     1      -1.408  14.166  -0.878  0.00  0.00    +0.277 C 
ENDBRANCH  15  18
ENDBRANCH  10  12
BRANCH   1  20
ATOM     20  C   UNL     1      -4.284   4.921   5.960  0.00  0.00    -0.003 C 
BRANCH  20  21
ATOM     21  N   UNL     1      -3.523   4.482   4.783  0.00  0.00    +0.387 N 
ATOM     22  C   UNL     1      -4.284   4.712   3.548  0.00  0.00    -0.095 C 
ATOM     23  H   UNL     1      -2.604   5.085   4.731  0.00  0.00    -0.081 HD
BRANCH  21  25
ATOM     24  C   UNL     1      -2.259   2.891   6.150  0.00  0.00    -0.008 C 
ATOM     25  C   UNL     1      -3.131   3.072   4.906  0.00  0.00    -0.041 C 
BRANCH  25  26
ATOM     26  C   UNL     1      -2.353   2.659   3.683  0.00  0.00    -0.061 A 
ATOM     27  C   UNL     1      -2.559   1.412   3.122  0.00  0.00    +0.004 A 
ATOM     28  C   UNL     1      -1.846   1.033   2.000  0.00  0.00    +0.029 A 
ATOM     29  C   UNL     1      -0.927   1.900   1.439  0.00  0.00    +0.105 A 
ATOM     30  C   UNL     1      -0.717   3.145   2.004  0.00  0.00    +0.029 A 
ATOM     31  C   UNL     1      -1.435   3.526   3.122  0.00  0.00    +0.004 A 
BRANCH  29  32
ATOM     32  S   UNL     1      -0.017   1.417   0.010  0.00  0.00    +0.056 S 
ATOM     33  O   UNL     1       0.002  -0.004   0.002  0.00  0.00    -0.153 OA
ATOM     34  O   UNL     1       1.172   2.195   0.003  0.00  0.00    -0.153 OA
BRANCH  32  35
ATOM     35  N   UNL     1      -0.897   1.885  -1.312  0.00  0.00    -0.204 NA
ATOM     36  H   UNL     1      -0.361   1.601  -2.229  0.00  0.00    +0.144 HD
ATOM     37  H   UNL     1      -1.036   2.977  -1.292  0.00  0.00    +0.144 HD
ENDBRANCH  32  35
ENDBRANCH  29  32
ENDBRANCH  25  26
ENDBRANCH  21  25
ENDBRANCH  20  21
ENDBRANCH   1  20
TORSDOF 8
