REMARK  Name = ZINC20092818
REMARK  5 active torsions:
REMARK  status: ('A' for Active; 'I' for Inactive)
REMARK    1  A    between atoms: C_3  and  C_8
REMARK    2  A    between atoms: C_21  and  S_23
REMARK    3  A    between atoms: S_23  and  C_24
REMARK    4  A    between atoms: C_24  and  C_25
REMARK    5  A    between atoms: C_28  and  N_31
REMARK                            x       y       z     vdW  Elec       q    Type
REMARK                         _______ _______ _______ _____ _____    ______ ____
ROOT
ATOM      1  C   UNL     1     -10.084   6.851   2.682  0.00  0.00    +0.175 C 
ATOM      2  C   UNL     1     -11.185   7.083   1.671  0.00  0.00    +0.041 C 
ATOM      3  C   UNL     1     -10.974   6.977   0.342  0.00  0.00    +0.020 C 
ATOM      4  C   UNL     1     -12.094   7.214  -0.644  0.00  0.00    +0.052 C 
ATOM      5  C   UNL     1     -13.073   8.241  -0.072  0.00  0.00    +0.014 C 
ATOM      6  C   UNL     1     -13.612   7.705   1.258  0.00  0.00    +0.080 C 
ATOM      7  C   UNL     1     -12.454   7.423   2.175  0.00  0.00    +0.163 C 
ATOM      8  O   UNL     1     -12.618   7.489   3.377  0.00  0.00    -0.292 OA
ATOM      9  N   UNL     1      -9.742   6.646  -0.171  0.00  0.00    -0.287 N 
ATOM     10  C   UNL     1      -8.796   6.123   0.695  0.00  0.00    +0.219 A 
ATOM     11  N   UNL     1      -8.945   6.206   2.040  0.00  0.00    -0.220 N 
ATOM     12  N   UNL     1      -7.835   5.581   2.604  0.00  0.00    -0.141 NA
ATOM     13  C   UNL     1      -7.086   5.165   1.605  0.00  0.00    +0.211 A 
ATOM     14  N   UNL     1      -7.674   5.504   0.448  0.00  0.00    -0.187 NA
ATOM     15  H   UNL     1      -9.533   6.798  -1.240  0.00  0.00    +0.155 HD
ENDROOT
BRANCH   1  18
ATOM     16  C   UNL     1      -9.369   9.619   5.148  0.00  0.00    +0.002 A 
ATOM     17  C   UNL     1      -9.768   8.407   4.617  0.00  0.00    +0.006 A 
ATOM     18  C   UNL     1      -9.649   8.173   3.260  0.00  0.00    -0.017 A 
ATOM     19  C   UNL     1      -9.126   9.150   2.433  0.00  0.00    +0.026 A 
ATOM     20  C   UNL     1      -8.731  10.366   2.964  0.00  0.00    +0.041 A 
ATOM     21  C   UNL     1      -8.850  10.598   4.322  0.00  0.00    +0.020 A 
ATOM     22 CL   UNL     1      -8.081  11.596   1.926  0.00  0.00    -0.084 Cl
ENDBRANCH   1  18
BRANCH  13  23
ATOM     23  S   UNL     1      -5.554   4.308   1.762  0.00  0.00    -0.080 S 
BRANCH  23  24
ATOM     24  C   UNL     1      -5.034   4.022   0.048  0.00  0.00    +0.112 C 
BRANCH  24  25
ATOM     25  C   UNL     1      -3.719   3.286   0.038  0.00  0.00    -0.037 A 
ATOM     26  C   UNL     1      -3.700   1.904   0.030  0.00  0.00    +0.007 A 
ATOM     27  C   UNL     1      -2.494   1.229   0.021  0.00  0.00    +0.033 A 
ATOM     28  C   UNL     1      -1.306   1.936   0.019  0.00  0.00    +0.126 A 
ATOM     29  C   UNL     1      -1.325   3.319   0.032  0.00  0.00    +0.033 A 
ATOM     30  C   UNL     1      -2.531   3.993   0.036  0.00  0.00    +0.007 A 
BRANCH  28  31
ATOM     31  N   UNL     1      -0.014   1.214   0.009  0.00  0.00    +0.056 N 
ATOM     32  O   UNL     1       0.002  -0.004   0.002  0.00  0.00    -0.126 OA
ATOM     33  O   UNL     1       1.032   1.837   0.002  0.00  0.00    -0.126 OA
ENDBRANCH  28  31
ENDBRANCH  24  25
ENDBRANCH  23  24
ENDBRANCH  13  23
TORSDOF 5
