REMARK  Name = ZINC35745325
REMARK  16 active torsions:
REMARK  status: ('A' for Active; 'I' for Inactive)
REMARK    1  A    between atoms: C_1  and  C_2
REMARK    2  A    between atoms: C_2  and  C_3
REMARK    3  A    between atoms: C_2  and  C_4
REMARK    4  A    between atoms: C_4  and  N_5
REMARK    5  A    between atoms: N_5  and  C_6
REMARK    6  A    between atoms: N_5  and  C_14
REMARK    7  A    between atoms: C_6  and  C_7
REMARK    8  A    between atoms: C_14  and  C_15
REMARK    9  A    between atoms: C_18  and  C_20
REMARK   10  A    between atoms: C_20  and  C_21
REMARK   11  A    between atoms: C_20  and  C_29
REMARK   12  A    between atoms: C_20  and  O_37
REMARK   13  A    between atoms: C_24  and  O_27
REMARK   14  A    between atoms: O_27  and  C_28
REMARK   15  A    between atoms: C_32  and  O_35
REMARK   16  A    between atoms: O_35  and  C_36
REMARK                            x       y       z     vdW  Elec       q    Type
REMARK                         _______ _______ _______ _____ _____    ______ ____
ROOT
ATOM      1  C   UNL     1      -4.167   1.083   0.073  0.00  0.00    +0.089 A 
ATOM      2  C   UNL     1      -4.646   2.334   0.198  0.00  0.00    +0.043 A 
ATOM      3  C   UNL     1      -5.045   2.489   1.545  0.00  0.00    +0.048 A 
ATOM      4  C   UNL     1      -4.785   1.323   2.164  0.00  0.00    +0.146 A 
ATOM      5  O   UNL     1      -4.259   0.473   1.267  0.00  0.00    -0.463 OA
ENDROOT
BRANCH   1   6
ATOM      6  C   UNL     1      -3.626   0.469  -1.191  0.00  0.00    -0.003 C 
BRANCH   6   7
ATOM      7  N   UNL     1      -2.180   0.717  -1.276  0.00  0.00    +0.387 N 
ATOM      8  H   UNL     1      -2.004   1.707  -1.203  0.00  0.00    -0.081 HD
BRANCH   7   9
ATOM      9  C   UNL     1      -1.498   0.016  -0.180  0.00  0.00    -0.075 C 
BRANCH   9  11
ATOM     10  C   UNL     1       0.126   1.879   0.187  0.00  0.00    +0.005 C 
ATOM     11  C   UNL     1      -0.017   0.398  -0.174  0.00  0.00    -0.034 C 
ATOM     12  C   UNL     1       0.726  -0.452   0.859  0.00  0.00    +0.005 C 
ENDBRANCH   9  11
ENDBRANCH   7   9
BRANCH   7  13
ATOM     13  C   UNL     1      -1.673   0.223  -2.563  0.00  0.00    -0.042 C 
BRANCH  13  14
ATOM     14  C   UNL     1      -2.273   1.033  -3.683  0.00  0.00    -0.061 A 
ATOM     15  C   UNL     1      -3.396   0.572  -4.345  0.00  0.00    +0.002 A 
ATOM     16  C   UNL     1      -3.947   1.314  -5.373  0.00  0.00    +0.003 A 
ATOM     17  C   UNL     1      -3.376   2.518  -5.740  0.00  0.00    +0.038 A 
ATOM     18  C   UNL     1      -2.252   2.981  -5.078  0.00  0.00    +0.124 A 
ATOM     19  C   UNL     1      -1.704   2.239  -4.045  0.00  0.00    +0.040 A 
ATOM     20  F   UNL     1      -1.692   4.157  -5.437  0.00  0.00    -0.205 F 
ENDBRANCH  13  14
ENDBRANCH   7  13
ENDBRANCH   6   7
ENDBRANCH   1   6
BRANCH   4  21
ATOM     21  C   UNL     1      -5.046   1.019   3.617  0.00  0.00    +0.174 C 
BRANCH  21  22
ATOM     22  C   UNL     1      -5.337  -0.450   3.779  0.00  0.00    -0.004 A 
ATOM     23  C   UNL     1      -6.596  -0.865   4.175  0.00  0.00    +0.011 A 
ATOM     24  C   UNL     1      -6.865  -2.212   4.324  0.00  0.00    +0.046 A 
ATOM     25  C   UNL     1      -5.872  -3.148   4.077  0.00  0.00    +0.120 A 
ATOM     26  C   UNL     1      -4.611  -2.730   3.679  0.00  0.00    +0.046 A 
ATOM     27  C   UNL     1      -4.347  -1.382   3.526  0.00  0.00    +0.011 A 
BRANCH  25  28
ATOM     28  O   UNL     1      -6.135  -4.473   4.223  0.00  0.00    -0.495 OA
ATOM     29  C   UNL     1      -5.065  -5.381   3.951  0.00  0.00    +0.277 C 
ENDBRANCH  25  28
ENDBRANCH  21  22
BRANCH  21  30
ATOM     30  C   UNL     1      -3.831   1.383   4.432  0.00  0.00    -0.004 A 
ATOM     31  C   UNL     1      -2.570   1.276   3.876  0.00  0.00    +0.011 A 
ATOM     32  C   UNL     1      -1.455   1.609   4.621  0.00  0.00    +0.046 A 
ATOM     33  C   UNL     1      -1.602   2.051   5.928  0.00  0.00    +0.120 A 
ATOM     34  C   UNL     1      -2.869   2.157   6.483  0.00  0.00    +0.046 A 
ATOM     35  C   UNL     1      -3.981   1.829   5.732  0.00  0.00    +0.011 A 
BRANCH  33  36
ATOM     36  O   UNL     1      -0.507   2.378   6.663  0.00  0.00    -0.495 OA
ATOM     37  C   UNL     1      -0.733   2.825   8.001  0.00  0.00    +0.277 C 
ENDBRANCH  33  36
ENDBRANCH  21  30
BRANCH  21  38
ATOM     38  O   UNL     1      -6.168   1.780   4.069  0.00  0.00    -0.372 OA
ATOM     39  H   UNL     1      -6.050   2.737   3.994  0.00  0.00    +0.212 HD
ENDBRANCH  21  38
ENDBRANCH   4  21
TORSDOF 12
