REMARK  Name = ZINC12384540
REMARK  8 active torsions:
REMARK  status: ('A' for Active; 'I' for Inactive)
REMARK    1  A    between atoms: C_1  and  C_2
REMARK    2  A    between atoms: C_5  and  O_34
REMARK    3  A    between atoms: C_18  and  C_33
REMARK    4  A    between atoms: C_23  and  C_24
REMARK    5  A    between atoms: C_23  and  O_32
REMARK    6  A    between atoms: C_24  and  S_25
REMARK    7  A    between atoms: S_25  and  C_26
REMARK    8  A    between atoms: N_30  and  C_31
REMARK                            x       y       z     vdW  Elec       q    Type
REMARK                         _______ _______ _______ _____ _____    ______ ____
ROOT
ATOM      1  C   UNL     1       7.734  -7.404   1.502  0.00  0.00    +0.012 C 
ATOM      2  C   UNL     1       6.653  -6.554   2.174  0.00  0.00    -0.026 C 
ATOM      3  C   UNL     1       5.360  -7.355   2.257  0.00  0.00    +0.010 C 
ATOM      4  C   UNL     1       5.592  -8.617   3.095  0.00  0.00    +0.032 C 
ATOM      5  C   UNL     1       6.128  -8.280   4.482  0.00  0.00    +0.115 C 
ATOM      6  C   UNL     1       7.397  -7.424   4.398  0.00  0.00    +0.035 C 
ATOM      7  C   UNL     1       7.081  -6.173   3.591  0.00  0.00    -0.002 C 
ATOM      8  C   UNL     1       8.218  -5.165   3.560  0.00  0.00    +0.004 C 
ATOM      9  C   UNL     1       7.662  -3.830   3.041  0.00  0.00    +0.004 C 
ATOM     10  C   UNL     1       6.359  -4.085   2.284  0.00  0.00    -0.004 C 
ATOM     11  C   UNL     1       6.509  -5.274   1.343  0.00  0.00    -0.001 C 
ATOM     12  C   UNL     1       5.370  -5.394   0.350  0.00  0.00    +0.005 C 
ATOM     13  C   UNL     1       5.075  -4.104  -0.426  0.00  0.00    +0.010 C 
ATOM     14  C   UNL     1       5.924  -2.962   0.057  0.00  0.00    +0.001 C 
ATOM     15  C   UNL     1       5.841  -2.858   1.593  0.00  0.00    +0.001 C 
ATOM     16  C   UNL     1       6.577  -1.540   1.869  0.00  0.00    +0.007 C 
ATOM     17  C   UNL     1       6.135  -0.625   0.696  0.00  0.00    +0.036 C 
ATOM     18  C   UNL     1       5.494  -1.548  -0.373  0.00  0.00    +0.081 C 
ATOM     19  C   UNL     1       7.370  -3.115  -0.437  0.00  0.00    +0.014 C 
ENDROOT
BRANCH  18  20
ATOM     20  O   UNL     1       6.032  -1.253  -1.663  0.00  0.00    -0.387 OA
ATOM     21  H   UNL     1       5.845  -0.356  -1.972  0.00  0.00    +0.210 HD
ENDBRANCH  18  20
BRANCH   5  22
ATOM     22  O   UNL     1       6.427  -9.493   5.178  0.00  0.00    -0.392 OA
ATOM     23  H   UNL     1       5.665 -10.076   5.298  0.00  0.00    +0.210 HD
ENDBRANCH   5  22
BRANCH  18  24
ATOM     24  C   UNL     1       3.979  -1.382  -0.371  0.00  0.00    +0.112 C 
BRANCH  24  25
ATOM     25  S   UNL     1       3.561   0.340  -0.742  0.00  0.00    -0.085 S 
BRANCH  25  26
ATOM     26  C   UNL     1       1.802   0.248  -0.678  0.00  0.00    +0.169 A 
ATOM     27  N   UNL     1       1.099  -0.830  -0.422  0.00  0.00    -0.230 NA
ATOM     28  C   UNL     1      -0.209  -0.525  -0.456  0.00  0.00    +0.131 A 
ATOM     29  C   UNL     1      -0.332   0.782  -0.742  0.00  0.00    +0.107 A 
ATOM     30  N   UNL     1       0.943   1.283  -0.885  0.00  0.00    -0.329 N 
ATOM     31  C   UNL     1       1.305   2.667  -1.200  0.00  0.00    +0.151 C 
ENDBRANCH  25  26
ENDBRANCH  24  25
ENDBRANCH  18  24
TORSDOF 5
