REMARK  Name = ZINC50568209
REMARK  6 active torsions:
REMARK  status: ('A' for Active; 'I' for Inactive)
REMARK    1  A    between atoms: C_1  and  C_2
REMARK    2  A    between atoms: N_7  and  S_11
REMARK    3  A    between atoms: C_8  and  C_10
REMARK    4  A    between atoms: S_11  and  C_14
REMARK    5  A    between atoms: C_18  and  S_20
REMARK    6  A    between atoms: S_20  and  N_23
REMARK                            x       y       z     vdW  Elec       q    Type
REMARK                         _______ _______ _______ _____ _____    ______ ____
ROOT
ATOM      1  C   UNL     1       2.547  -3.268  -0.217  0.00  0.00    +0.107 A 
ATOM      2  C   UNL     1       2.079  -4.391  -0.875  0.00  0.00    +0.028 A 
ATOM      3  C   UNL     1       2.509  -4.668  -2.159  0.00  0.00    +0.004 A 
ATOM      4  C   UNL     1       3.407  -3.824  -2.785  0.00  0.00    +0.028 A 
ATOM      5  C   UNL     1       3.873  -2.701  -2.128  0.00  0.00    +0.107 A 
ATOM      6  C   UNL     1       3.440  -2.421  -0.846  0.00  0.00    +0.057 A 
ENDROOT
BRANCH   1   7
ATOM      7  S   UNL     1       1.999  -2.914   1.419  0.00  0.00    +0.061 S 
ATOM      8  O   UNL     1       2.998  -2.098   2.015  0.00  0.00    -0.153 OA
ATOM      9  O   UNL     1       1.587  -4.150   1.986  0.00  0.00    -0.153 OA
BRANCH   7  15
ATOM     10  C   UNL     1      -0.019   1.526   0.010  0.00  0.00    +0.009 C 
ATOM     11  C   UNL     1       0.002  -0.004   0.002  0.00  0.00    +0.005 C 
ATOM     12  C   UNL     1      -1.433  -0.534   0.015  0.00  0.00    +0.006 C 
ATOM     13  C   UNL     1      -1.414  -2.064  -0.027  0.00  0.00    +0.017 C 
ATOM     14  C   UNL     1      -0.692  -2.596   1.215  0.00  0.00    +0.110 C 
ATOM     15  N   UNL     1       0.639  -1.977   1.288  0.00  0.00    -0.174 NA
ATOM     16  C   UNL     1       0.742  -0.512   1.244  0.00  0.00    +0.080 C 
ATOM     17  C   UNL     1       0.104   0.084   2.500  0.00  0.00    +0.026 C 
ENDBRANCH   7  15
ENDBRANCH   1   7
BRANCH   5  18
ATOM     18  S   UNL     1       5.018  -1.625  -2.926  0.00  0.00    +0.056 S 
ATOM     19  O   UNL     1       5.719  -0.941  -1.896  0.00  0.00    -0.153 OA
ATOM     20  O   UNL     1       5.681  -2.399  -3.916  0.00  0.00    -0.153 OA
BRANCH  18  21
ATOM     21  N   UNL     1       4.133  -0.482  -3.735  0.00  0.00    -0.204 NA
ATOM     22  H   UNL     1       4.495   0.408  -3.866  0.00  0.00    +0.144 HD
ATOM     23  H   UNL     1       3.252  -0.703  -4.077  0.00  0.00    +0.144 HD
ENDBRANCH  18  21
ENDBRANCH   5  18
TORSDOF 4
