REMARK  Name = ZINC04498660
REMARK  5 active torsions:
REMARK  status: ('A' for Active; 'I' for Inactive)
REMARK    1  A    between atoms: C_1  and  C_2
REMARK    2  A    between atoms: C_2  and  S_3
REMARK    3  A    between atoms: S_3  and  C_4
REMARK    4  A    between atoms: C_16  and  C_17
REMARK    5  A    between atoms: C_16  and  N_44
REMARK                            x       y       z     vdW  Elec       q    Type
REMARK                         _______ _______ _______ _____ _____    ______ ____
ROOT
ATOM      1  C   UNL     1       3.942   6.088  -7.890  0.00  0.00    +0.191 A 
ATOM      2  N   UNL     1       5.048   5.995  -7.167  0.00  0.00    -0.207 NA
ATOM      3  C   UNL     1       5.065   5.969  -5.836  0.00  0.00    +0.129 A 
ATOM      4  C   UNL     1       3.795   6.050  -5.194  0.00  0.00    +0.051 A 
ATOM      5  C   UNL     1       3.532   6.044  -3.766  0.00  0.00    -0.028 A 
ATOM      6  C   UNL     1       2.237   6.131  -3.384  0.00  0.00    -0.021 A 
ATOM      7  S   UNL     1       1.311   6.225  -4.894  0.00  0.00    -0.075 S 
ATOM      8  C   UNL     1       2.656   6.148  -6.033  0.00  0.00    +0.115 A 
ATOM      9  N   UNL     1       2.724   6.167  -7.349  0.00  0.00    -0.215 NA
ATOM     10  C   UNL     1       1.719   6.141  -1.980  0.00  0.00    -0.035 C 
ATOM     11  C   UNL     1       4.046   6.412  -1.369  0.00  0.00    -0.073 C 
ATOM     12  C   UNL     1       4.628   5.947  -2.706  0.00  0.00    +0.018 C 
ATOM     13  N   UNL     1       6.244   5.870  -5.120  0.00  0.00    -0.343 N 
ATOM     14  H   UNL     1       6.219   5.683  -4.169  0.00  0.00    +0.144 HD
ATOM     15  H   UNL     1       7.095   5.988  -5.569  0.00  0.00    +0.144 HD
ATOM     16  N   UNL     1       2.804   5.664  -1.089  0.00  0.00    +0.386 N 
ATOM     17  H   UNL     1       2.968   4.666  -1.267  0.00  0.00    -0.081 HD
ENDROOT
BRANCH   1  18
ATOM     18  S   UNL     1       4.085   6.110  -9.646  0.00  0.00    -0.086 S 
BRANCH  18  20
ATOM     19  C   UNL     1       6.256   5.981 -11.300  0.00  0.00    +0.016 C 
ATOM     20  C   UNL     1       5.883   5.982  -9.816  0.00  0.00    +0.074 C 
ENDBRANCH  18  20
ENDBRANCH   1  18
BRANCH  16  21
ATOM     21  C   UNL     1       2.413   5.842   0.326  0.00  0.00    -0.043 C 
BRANCH  21  22
ATOM     22  C   UNL     1       1.021   5.302   0.527  0.00  0.00    -0.064 A 
ATOM     23  C   UNL     1       0.836   3.973   0.861  0.00  0.00    +0.002 A 
ATOM     24  C   UNL     1      -0.441   3.478   1.046  0.00  0.00    +0.000 A 
ATOM     25  C   UNL     1      -1.534   4.309   0.890  0.00  0.00    +0.000 A 
ATOM     26  C   UNL     1      -1.349   5.639   0.561  0.00  0.00    +0.000 A 
ATOM     27  C   UNL     1      -0.072   6.135   0.377  0.00  0.00    +0.002 A 
ENDBRANCH  21  22
ENDBRANCH  16  21
TORSDOF 4
