REMARK  Name = ZINC67378324
REMARK  5 active torsions:
REMARK  status: ('A' for Active; 'I' for Inactive)
REMARK    1  A    between atoms: C_12  and  C_14
REMARK    2  A    between atoms: N_16  and  C_17
REMARK    3  A    between atoms: C_17  and  C_18
REMARK    4  A    between atoms: C_18  and  C_19
REMARK    5  A    between atoms: N_21  and  C_22
REMARK                            x       y       z     vdW  Elec       q    Type
REMARK                         _______ _______ _______ _____ _____    ______ ____
ROOT
ATOM      1  C   UNL     1       2.402  -2.688   0.662  0.00  0.00    +0.300 C 
ATOM      2  O   UNL     1       1.343  -2.095   0.671  0.00  0.00    -0.265 OA
ATOM      3  N   UNL     1       2.453  -3.984   1.028  0.00  0.00    -0.307 N 
ATOM      4  H   UNL     1       3.299  -4.457   1.021  0.00  0.00    +0.149 HD
ENDROOT
BRANCH   1  16
ATOM      5  C   UNL     1       6.985   1.687  -0.206  0.00  0.00    +0.003 A 
ATOM      6  C   UNL     1       5.881   2.068  -0.943  0.00  0.00    +0.005 A 
ATOM      7  C   UNL     1       4.742   1.280  -0.957  0.00  0.00    -0.023 A 
ATOM      8  C   UNL     1       4.718   0.101  -0.227  0.00  0.00    +0.075 A 
ATOM      9  C   UNL     1       5.831  -0.281   0.516  0.00  0.00    +0.145 A 
ATOM     10  C   UNL     1       6.962   0.514   0.525  0.00  0.00    +0.040 A 
ATOM     11  F   UNL     1       5.806  -1.428   1.230  0.00  0.00    -0.204 F 
ATOM     12  N   UNL     1       3.584  -0.721  -0.230  0.00  0.00    -0.261 N 
ATOM     13  C   UNL     1       2.321  -0.188  -0.759  0.00  0.00    +0.114 C 
ATOM     14  C   UNL     1       2.636   0.545  -2.070  0.00  0.00    +0.024 C 
ATOM     15  C   UNL     1       3.555   1.728  -1.766  0.00  0.00    +0.038 C 
ATOM     16  C   UNL     1       3.650  -1.980   0.246  0.00  0.00    +0.306 C 
ATOM     17  O   UNL     1       4.723  -2.540   0.335  0.00  0.00    -0.265 OA
ENDBRANCH   1  16
BRANCH   3  18
ATOM     18  C   UNL     1       1.228  -4.678   1.437  0.00  0.00    +0.114 C 
BRANCH  18  19
ATOM     19  C   UNL     1       1.560  -6.127   1.799  0.00  0.00    +0.114 C 
BRANCH  19  20
ATOM     20  C   UNL     1       0.301  -6.840   2.220  0.00  0.00    +0.215 C 
ATOM     21  O   UNL     1      -0.757  -6.248   2.228  0.00  0.00    -0.276 OA
ATOM     22  N   UNL     1       0.352  -8.136   2.586  0.00  0.00    -0.312 N 
ATOM     23  H   UNL     1       1.198  -8.610   2.578  0.00  0.00    +0.149 HD
BRANCH  22  24
ATOM     24  C   UNL     1      -0.872  -8.830   2.994  0.00  0.00    +0.073 C 
ATOM     25  C   UNL     1      -1.576  -9.431   1.760  0.00  0.00    +0.022 C 
ATOM     26  C   UNL     1      -1.081 -10.898   1.718  0.00  0.00    +0.002 C 
ATOM     27  C   UNL     1      -1.031 -11.285   3.217  0.00  0.00    +0.002 C 
ATOM     28  C   UNL     1      -0.526 -10.009   3.920  0.00  0.00    +0.022 C 
ENDBRANCH  22  24
ENDBRANCH  19  20
ENDBRANCH  18  19
ENDBRANCH   3  18
TORSDOF 5
