REMARK  Name = ZINC59227191
REMARK  3 active torsions:
REMARK  status: ('A' for Active; 'I' for Inactive)
REMARK    1  A    between atoms: C_4  and  C_7
REMARK    2  A    between atoms: N_21  and  C_24
REMARK    3  A    between atoms: C_27  and  C_30
REMARK                            x       y       z     vdW  Elec       q    Type
REMARK                         _______ _______ _______ _____ _____    ______ ____
ROOT
ATOM      1  C   UNL     1       3.711  -0.707  -0.038  0.00  0.00    +0.023 C 
ATOM      2  C   UNL     1       3.865  -1.551   1.255  0.00  0.00    +0.012 C 
ATOM      3  C   UNL     1       4.301  -2.964   0.682  0.00  0.00    +0.002 C 
ATOM      4  C   UNL     1       3.229  -3.006  -0.489  0.00  0.00    +0.009 C 
ATOM      5  C   UNL     1       3.747  -1.696  -1.222  0.00  0.00    +0.009 C 
ATOM      6  C   UNL     1       5.156  -2.195  -1.504  0.00  0.00    +0.092 C 
ATOM      7  C   UNL     1       5.566  -2.569  -0.002  0.00  0.00    +0.091 C 
ATOM      8  C   UNL     1       6.975  -2.824  -0.090  0.00  0.00    +0.230 C 
ATOM      9  O   UNL     1       7.627  -3.644   0.519  0.00  0.00    -0.274 OA
ATOM     10  N   UNL     1       7.413  -1.915  -1.031  0.00  0.00    -0.210 N 
ATOM     11  C   UNL     1       6.324  -1.294  -1.749  0.00  0.00    +0.230 C 
ATOM     12  O   UNL     1       6.338  -0.261  -2.382  0.00  0.00    -0.274 OA
ENDROOT
BRANCH   1  16
ATOM     13  C   UNL     1      -0.016   1.379   0.014  0.00  0.00    +0.000 A 
ATOM     14  C   UNL     1       0.024   0.029   0.308  0.00  0.00    +0.000 A 
ATOM     15  C   UNL     1       1.231  -0.646   0.291  0.00  0.00    +0.004 A 
ATOM     16  C   UNL     1       2.396   0.029  -0.020  0.00  0.00    -0.044 A 
ATOM     17  C   UNL     1       2.355   1.379  -0.315  0.00  0.00    +0.004 A 
ATOM     18  C   UNL     1       1.149   2.054  -0.297  0.00  0.00    +0.000 A 
ENDBRANCH   1  16
BRANCH  10  19
ATOM     19  C   UNL     1       8.761  -1.651  -1.285  0.00  0.00    +0.044 A 
ATOM     20  C   UNL     1       9.114  -0.713  -2.250  0.00  0.00    +0.025 A 
ATOM     21  C   UNL     1      10.442  -0.449  -2.503  0.00  0.00    +0.017 A 
ATOM     22  C   UNL     1      11.435  -1.127  -1.788  0.00  0.00    +0.063 A 
ATOM     23  C   UNL     1      11.076  -2.069  -0.820  0.00  0.00    +0.017 A 
ATOM     24  C   UNL     1       9.746  -2.322  -0.569  0.00  0.00    +0.025 A 
BRANCH  22  25
ATOM     25  C   UNL     1      12.857  -0.849  -2.056  0.00  0.00    +0.387 C 
ATOM     26  O   UNL     1      13.170  -0.024  -2.904  0.00  0.00    -0.241 OA
ATOM     27  O   UNL     1      13.725  -1.442  -1.431  0.00  0.00    -0.241 OA
ENDBRANCH  22  25
ENDBRANCH  10  19
TORSDOF 3
