REMARK  Name = ZINC22991264
REMARK  8 active torsions:
REMARK  status: ('A' for Active; 'I' for Inactive)
REMARK    1  A    between atoms: C_1  and  C_2
REMARK    2  A    between atoms: C_2  and  C_3
REMARK    3  A    between atoms: C_2  and  C_4
REMARK    4  A    between atoms: C_7  and  C_10
REMARK    5  A    between atoms: C_12  and  C_15
REMARK    6  A    between atoms: N_17  and  C_18
REMARK    7  A    between atoms: C_21  and  S_24
REMARK    8  A    between atoms: S_24  and  N_27
REMARK                            x       y       z     vdW  Elec       q    Type
REMARK                         _______ _______ _______ _____ _____    ______ ____
ROOT
ATOM      1  C   UNL     1      -2.558   1.619   0.747  0.00  0.00    +0.267 C 
ATOM      2  O   UNL     1      -2.839   0.628   1.394  0.00  0.00    -0.268 OA
ATOM      3  N   UNL     1      -3.511   2.246   0.028  0.00  0.00    -0.280 N 
ATOM      4  H   UNL     1      -3.279   3.189  -0.487  0.00  0.00    +0.155 HD
ENDROOT
BRANCH   3   5
ATOM      5  C   UNL     1      -4.794   1.696  -0.062  0.00  0.00    +0.034 A 
ATOM      6  C   UNL     1      -4.962   0.318  -0.067  0.00  0.00    +0.025 A 
ATOM      7  C   UNL     1      -6.231  -0.221  -0.151  0.00  0.00    +0.031 A 
ATOM      8  C   UNL     1      -7.332   0.610  -0.242  0.00  0.00    +0.113 A 
ATOM      9  C   UNL     1      -7.168   1.983  -0.243  0.00  0.00    +0.031 A 
ATOM     10  C   UNL     1      -5.902   2.529  -0.153  0.00  0.00    +0.025 A 
BRANCH   8  11
ATOM     11  S   UNL     1      -8.949  -0.082  -0.356  0.00  0.00    +0.100 S 
ATOM     12  O   UNL     1      -8.876  -1.381   0.215  0.00  0.00    -0.146 OA
ATOM     13  O   UNL     1      -9.849   0.909   0.120  0.00  0.00    -0.146 OA
BRANCH  11  14
ATOM     14  N   UNL     1      -9.281  -0.289  -1.965  0.00  0.00    -0.118 NA
ATOM     15  C   UNL     1     -10.416  -0.787  -2.332  0.00  0.00    +0.117 C 
ATOM     16  C   UNL     1     -11.416  -1.171  -1.357  0.00  0.00    +0.073 C 
ATOM     17  C   UNL     1     -11.896  -2.619  -1.540  0.00  0.00    +0.008 C 
ATOM     18  C   UNL     1     -12.869  -2.604  -2.685  0.00  0.00    +0.002 C 
ATOM     19  C   UNL     1     -12.214  -2.971  -4.041  0.00  0.00    +0.019 C 
ATOM     20  C   UNL     1     -10.824  -2.324  -4.158  0.00  0.00    +0.102 C 
ATOM     21  N   UNL     1     -10.725  -0.968  -3.689  0.00  0.00    -0.331 N 
ATOM     22  H   UNL     1     -10.889  -0.132  -4.385  0.00  0.00    +0.147 HD
ENDBRANCH  11  14
ENDBRANCH   8  11
ENDBRANCH   3   5
BRANCH   1  25
ATOM     23  C   UNL     1       0.377   3.662   0.051  0.00  0.00    +0.109 A 
ATOM     24  N   UNL     1      -0.864   3.213   0.048  0.00  0.00    -0.234 NA
ATOM     25  C   UNL     1      -1.178   2.133   0.748  0.00  0.00    +0.133 A 
ATOM     26  C   UNL     1      -0.201   1.501   1.476  0.00  0.00    +0.080 A 
ATOM     27  S   UNL     1       1.185   2.486   1.126  0.00  0.00    -0.075 S 
BRANCH  23  31
ATOM     28  C   UNL     1       2.019   7.021  -1.965  0.00  0.00    -0.045 A 
ATOM     29  C   UNL     1       2.830   6.231  -1.171  0.00  0.00    +0.004 A 
ATOM     30  C   UNL     1       2.303   5.138  -0.513  0.00  0.00    +0.011 A 
ATOM     31  C   UNL     1       0.949   4.832  -0.650  0.00  0.00    +0.007 A 
ATOM     32  C   UNL     1       0.137   5.630  -1.457  0.00  0.00    +0.011 A 
ATOM     33  C   UNL     1       0.676   6.723  -2.105  0.00  0.00    +0.004 A 
BRANCH  28  35
ATOM     34  C   UNL     1       2.414   8.043  -4.189  0.00  0.00    +0.012 C 
ATOM     35  C   UNL     1       2.602   8.213  -2.680  0.00  0.00    +0.013 C 
ATOM     36  C   UNL     1       1.889   9.485  -2.217  0.00  0.00    +0.012 C 
ENDBRANCH  28  35
ENDBRANCH  23  31
ENDBRANCH   1  25
TORSDOF 6
