REMARK  Name = ZINC03324241
REMARK  6 active torsions:
REMARK  status: ('A' for Active; 'I' for Inactive)
REMARK    1  A    between atoms: C_6  and  C_7
REMARK    2  A    between atoms: C_10  and  S_12
REMARK    3  A    between atoms: S_12  and  C_13
REMARK    4  A    between atoms: C_13  and  C_14
REMARK    5  A    between atoms: N_19  and  C_22
REMARK    6  A    between atoms: C_25  and  O_28
REMARK                            x       y       z     vdW  Elec       q    Type
REMARK                         _______ _______ _______ _____ _____    ______ ____
ROOT
ATOM      1  C   UNL     1       3.103  -0.607   1.612  0.00  0.00    +0.226 C 
ATOM      2  O   UNL     1       3.022  -1.813   1.708  0.00  0.00    -0.275 OA
ATOM      3  N   UNL     1       1.995   0.130   1.400  0.00  0.00    -0.298 N 
ATOM      4  C   UNL     1       0.675  -0.509   1.282  0.00  0.00    +0.126 C 
ATOM      5  C   UNL     1       0.002  -0.004   0.002  0.00  0.00    +0.124 C 
ATOM      6  N   UNL     1      -0.018   1.465   0.010  0.00  0.00    -0.327 N 
ATOM      7  C   UNL     1       1.344   2.016   0.000  0.00  0.00    +0.124 C 
ATOM      8  C   UNL     1       2.072   1.594   1.280  0.00  0.00    +0.126 C 
ENDROOT
BRANCH   6   9
ATOM      9  C   UNL     1      -0.768   1.962  -1.061  0.00  0.00    +0.030 A 
ATOM     10  C   UNL     1      -1.366   1.085  -1.957  0.00  0.00    +0.027 A 
ATOM     11  C   UNL     1      -2.111   1.577  -3.011  0.00  0.00    +0.047 A 
ATOM     12  C   UNL     1      -2.253   2.946  -3.182  0.00  0.00    +0.117 A 
ATOM     13  C   UNL     1      -1.651   3.822  -2.290  0.00  0.00    +0.047 A 
ATOM     14  C   UNL     1      -0.911   3.333  -1.233  0.00  0.00    +0.027 A 
BRANCH  12  15
ATOM     15  O   UNL     1      -2.982   3.429  -4.223  0.00  0.00    -0.507 OA
ATOM     16  H   UNL     1      -2.466   3.582  -5.027  0.00  0.00    +0.292 HD
ENDBRANCH  12  15
ENDBRANCH   6   9
BRANCH   1  17
ATOM     17  C   UNL     1       4.445   0.069   1.730  0.00  0.00    +0.174 C 
BRANCH  17  18
ATOM     18  S   UNL     1       5.727  -1.178   2.009  0.00  0.00    -0.056 S 
BRANCH  18  22
ATOM     19  C   UNL     1       9.175   0.574   2.310  0.00  0.00    +0.249 A 
ATOM     20  N   UNL     1       8.372   1.592   2.114  0.00  0.00    -0.106 NA
ATOM     21  N   UNL     1       7.164   1.167   1.992  0.00  0.00    -0.101 NA
ATOM     22  C   UNL     1       7.148  -0.141   2.105  0.00  0.00    +0.278 A 
ATOM     23  O   UNL     1       8.416  -0.544   2.314  0.00  0.00    -0.411 OA
BRANCH  19  29
ATOM     24  C   UNL     1      11.371  -0.533   2.703  0.00  0.00    +0.014 A 
ATOM     25  C   UNL     1      12.738  -0.467   2.873  0.00  0.00    +0.021 A 
ATOM     26  C   UNL     1      13.383   0.758   2.850  0.00  0.00    +0.041 A 
ATOM     27  C   UNL     1      12.662   1.923   2.651  0.00  0.00    +0.021 A 
ATOM     28  C   UNL     1      11.295   1.870   2.475  0.00  0.00    +0.014 A 
ATOM     29  C   UNL     1      10.639   0.638   2.497  0.00  0.00    +0.039 A 
ATOM     30 CL   UNL     1      15.104   0.834   3.071  0.00  0.00    -0.084 Cl
ENDBRANCH  19  29
ENDBRANCH  18  22
ENDBRANCH  17  18
ENDBRANCH   1  17
TORSDOF 6
