REMARK  Name = ZINC12569626
REMARK  7 active torsions:
REMARK  status: ('A' for Active; 'I' for Inactive)
REMARK    1  A    between atoms: C_1  and  C_2
REMARK    2  A    between atoms: C_6  and  N_9
REMARK    3  A    between atoms: C_7  and  C_8
REMARK    4  A    between atoms: C_13  and  S_15
REMARK    5  A    between atoms: S_15  and  C_16
REMARK    6  A    between atoms: C_16  and  C_17
REMARK    7  A    between atoms: N_19  and  C_20
REMARK                            x       y       z     vdW  Elec       q    Type
REMARK                         _______ _______ _______ _____ _____    ______ ____
ROOT
ATOM      1  N   UNL     1      -0.713  -0.678  -0.477  0.00  0.00    -0.292 N 
ATOM      2  C   UNL     1       0.333   0.238  -0.467  0.00  0.00    +0.187 A 
ATOM      3  N   UNL     1       1.628   0.028  -0.331  0.00  0.00    -0.125 NA
ATOM      4  N   UNL     1       2.501   1.091  -0.350  0.00  0.00    -0.133 NA
ATOM      5  C   UNL     1       2.038   2.317  -0.506  0.00  0.00    +0.160 A 
ATOM      6  S   UNL     1       0.282   2.016  -0.637  0.00  0.00    -0.024 S 
ATOM      7  H   UNL     1      -1.631  -0.366  -0.513  0.00  0.00    +0.154 HD
ENDROOT
BRANCH   1  13
ATOM      8  C   UNL     1      -2.319  -5.317  -0.707  0.00  0.00    +0.044 C 
ATOM      9  C   UNL     1      -1.201  -4.320  -0.543  0.00  0.00    -0.046 A 
ATOM     10  C   UNL     1       0.095  -4.761  -0.350  0.00  0.00    +0.004 A 
ATOM     11  C   UNL     1       1.124  -3.849  -0.199  0.00  0.00    +0.002 A 
ATOM     12  C   UNL     1       0.860  -2.494  -0.247  0.00  0.00    +0.023 A 
ATOM     13  C   UNL     1      -0.442  -2.048  -0.435  0.00  0.00    +0.036 A 
ATOM     14  C   UNL     1      -1.473  -2.967  -0.586  0.00  0.00    -0.026 A 
ATOM     15  C   UNL     1      -2.886  -2.487  -0.796  0.00  0.00    +0.046 C 
ENDBRANCH   1  13
BRANCH   5  16
ATOM     16  S   UNL     1       2.917   3.842  -0.569  0.00  0.00    -0.088 S 
BRANCH  16  17
ATOM     17  C   UNL     1       4.653   3.357  -0.366  0.00  0.00    +0.172 C 
BRANCH  17  18
ATOM     18  C   UNL     1       5.526   4.585  -0.402  0.00  0.00    +0.227 C 
ATOM     19  O   UNL     1       5.026   5.680  -0.549  0.00  0.00    -0.275 OA
ATOM     20  N   UNL     1       6.862   4.466  -0.270  0.00  0.00    -0.285 N 
ATOM     21  H   UNL     1       7.269   3.587  -0.228  0.00  0.00    +0.155 HD
BRANCH  20  22
ATOM     22  C   UNL     1       7.662   5.612  -0.194  0.00  0.00    +0.033 A 
ATOM     23  C   UNL     1       8.946   5.601  -0.722  0.00  0.00    +0.024 A 
ATOM     24  C   UNL     1       9.732   6.734  -0.650  0.00  0.00    +0.017 A 
ATOM     25  C   UNL     1       9.244   7.878  -0.042  0.00  0.00    +0.018 A 
ATOM     26  C   UNL     1       7.967   7.890   0.490  0.00  0.00    +0.017 A 
ATOM     27  C   UNL     1       7.175   6.761   0.416  0.00  0.00    +0.024 A 
ATOM     28 BR   UNL     1      10.324   9.426   0.061  0.00  0.00    -0.050 Br
ENDBRANCH  20  22
ENDBRANCH  17  18
ENDBRANCH  16  17
ENDBRANCH   5  16
TORSDOF 5
