REMARK  Name = ZINC33408180
REMARK  8 active torsions:
REMARK  status: ('A' for Active; 'I' for Inactive)
REMARK    1  A    between atoms: C_1  and  C_2
REMARK    2  A    between atoms: C_5  and  C_8
REMARK    3  A    between atoms: C_14  and  C_16
REMARK    4  A    between atoms: C_16  and  C_18
REMARK    5  A    between atoms: C_16  and  N_21
REMARK    6  A    between atoms: C_18  and  C_19
REMARK    7  A    between atoms: C_18  and  C_20
REMARK    8  A    between atoms: N_24  and  C_25
REMARK                            x       y       z     vdW  Elec       q    Type
REMARK                         _______ _______ _______ _____ _____    ______ ____
ROOT
ATOM      1  C   UNL     1      -3.113  -3.750   0.012  0.00  0.00    +0.163 C 
ENDROOT
BRANCH   1   8
ATOM      2  C   UNL     1      -8.474  -6.379  -2.197  0.00  0.00    +0.134 A 
ATOM      3  N   UNL     1      -8.180  -5.085  -2.160  0.00  0.00    -0.140 NA
ATOM      4  N   UNL     1      -7.077  -4.694  -1.688  0.00  0.00    -0.125 NA
ATOM      5  C   UNL     1      -6.172  -5.544  -1.227  0.00  0.00    +0.188 A 
ATOM      6  S   UNL     1      -6.984  -7.061  -1.479  0.00  0.00    -0.030 S 
ATOM      7  N   UNL     1      -4.918  -5.291  -0.684  0.00  0.00    -0.262 N 
ATOM      8  C   UNL     1      -4.473  -4.024  -0.577  0.00  0.00    +0.239 C 
ATOM      9  O   UNL     1      -5.167  -3.103  -0.955  0.00  0.00    -0.273 OA
ATOM     10  H   UNL     1      -4.289  -6.126  -0.341  0.00  0.00    +0.157 HD
BRANCH   2  15
ATOM     11  C   UNL     1     -13.201  -9.041  -4.118  0.00  0.00    +0.044 C 
ATOM     12  C   UNL     1     -11.963  -8.344  -3.615  0.00  0.00    -0.050 A 
ATOM     13  C   UNL     1     -11.876  -6.964  -3.677  0.00  0.00    +0.004 A 
ATOM     14  C   UNL     1     -10.745  -6.320  -3.218  0.00  0.00    +0.011 A 
ATOM     15  C   UNL     1      -9.688  -7.063  -2.691  0.00  0.00    +0.009 A 
ATOM     16  C   UNL     1      -9.780  -8.455  -2.636  0.00  0.00    +0.011 A 
ATOM     17  C   UNL     1     -10.918  -9.086  -3.093  0.00  0.00    +0.004 A 
ENDBRANCH   2  15
ENDBRANCH   1   8
BRANCH   1  18
ATOM     18  N   UNL     1      -2.865  -2.306   0.017  0.00  0.00    -0.288 N 
ATOM     19  C   UNL     1      -1.601  -1.839   0.007  0.00  0.00    +0.301 C 
ATOM     20  O   UNL     1      -0.666  -2.617  -0.006  0.00  0.00    -0.253 OA
ATOM     21  N   UNL     1      -1.372  -0.511   0.012  0.00  0.00    -0.294 N 
ATOM     22  H   UNL     1      -3.711  -1.603   0.029  0.00  0.00    +0.151 HD
ATOM     23  H   UNL     1      -2.218   0.192   0.024  0.00  0.00    +0.151 HD
BRANCH  21  24
ATOM     24  C   UNL     1       0.002  -0.004   0.002  0.00  0.00    +0.037 C 
ATOM     25  C   UNL     1      -0.019   1.526   0.010  0.00  0.00    +0.029 C 
ATOM     26  C   UNL     1       1.417   2.055  -0.000  0.00  0.00    -0.008 C 
ATOM     27  C   UNL     1       2.133   1.562  -1.259  0.00  0.00    +0.007 C 
ATOM     28  C   UNL     1       2.154   0.032  -1.268  0.00  0.00    -0.008 C 
ATOM     29  C   UNL     1       0.718  -0.497  -1.257  0.00  0.00    +0.029 C 
ATOM     30  C   UNL     1       2.894  -0.475  -0.028  0.00  0.00    +0.007 C 
ATOM     31  C   UNL     1       2.178   0.019   1.231  0.00  0.00    -0.008 C 
ATOM     32  C   UNL     1       2.157   1.548   1.239  0.00  0.00    +0.007 C 
ATOM     33  C   UNL     1       0.742  -0.511   1.242  0.00  0.00    +0.029 C 
ENDBRANCH  21  24
ENDBRANCH   1  18
BRANCH   1  34
ATOM     34  C   UNL     1      -3.062  -4.281   1.445  0.00  0.00    +0.012 C 
ATOM     35  C   UNL     1      -1.681  -4.003   2.043  0.00  0.00    +0.009 C 
ATOM     36  C   UNL     1      -4.132  -3.583   2.287  0.00  0.00    +0.009 C 
ENDBRANCH   1  34
TORSDOF 5
