REMARK  Name = ZINC66492466
REMARK  6 active torsions:
REMARK  status: ('A' for Active; 'I' for Inactive)
REMARK    1  A    between atoms: C_1  and  C_2
REMARK    2  A    between atoms: C_5  and  C_21
REMARK    3  A    between atoms: N_13  and  C_14
REMARK    4  A    between atoms: C_14  and  C_15
REMARK    5  A    between atoms: N_17  and  C_18
REMARK    6  A    between atoms: C_18  and  C_19
REMARK                            x       y       z     vdW  Elec       q    Type
REMARK                         _______ _______ _______ _____ _____    ______ ____
ROOT
ATOM      1  C   UNL     1      -0.028   1.529  -0.049  0.00  0.00    +0.028 C 
ATOM      2  C   UNL     1      -0.003  -0.001  -0.026  0.00  0.00    +0.072 C 
ATOM      3  C   UNL     1      -1.438  -0.543   0.003  0.00  0.00    +0.039 C 
ATOM      4  C   UNL     1      -1.389  -2.070  -0.045  0.00  0.00    +0.108 C 
ATOM      5  C   UNL     1      -0.458  -2.601   1.012  0.00  0.00    -0.014 A 
ATOM      6  C   UNL     1      -0.591  -3.917   1.424  0.00  0.00    +0.006 A 
ATOM      7  C   UNL     1       0.250  -4.434   2.390  0.00  0.00    +0.000 A 
ATOM      8  C   UNL     1       1.233  -3.640   2.953  0.00  0.00    +0.002 A 
ATOM      9  C   UNL     1       1.373  -2.327   2.549  0.00  0.00    +0.023 A 
ATOM     10  C   UNL     1       0.526  -1.804   1.577  0.00  0.00    +0.034 A 
ATOM     11  N   UNL     1       0.680  -0.469   1.187  0.00  0.00    -0.318 N 
ENDROOT
BRANCH   4  12
ATOM     12  C   UNL     1      -2.772  -2.620   0.194  0.00  0.00    +0.218 C 
ATOM     13  O   UNL     1      -3.518  -2.069   0.976  0.00  0.00    -0.275 OA
ATOM     14  N   UNL     1      -3.180  -3.725  -0.461  0.00  0.00    -0.329 N 
ATOM     15  H   UNL     1      -2.561  -4.207  -1.032  0.00  0.00    +0.145 HD
ATOM     16  H   UNL     1      -4.093  -4.039  -0.362  0.00  0.00    +0.145 HD
ENDBRANCH   4  12
BRANCH  11  17
ATOM     17  C   UNL     1       1.508   0.447   1.976  0.00  0.00    +0.201 C 
BRANCH  17  18
ATOM     18  C   UNL     1       0.657   1.118   3.023  0.00  0.00    +0.231 C 
ATOM     19  O   UNL     1      -0.525   0.857   3.103  0.00  0.00    -0.274 OA
ATOM     20  N   UNL     1       1.209   2.008   3.871  0.00  0.00    -0.301 N 
ATOM     21  H   UNL     1       2.154   2.217   3.808  0.00  0.00    +0.150 HD
BRANCH  20  22
ATOM     22  C   UNL     1       0.382   2.660   4.889  0.00  0.00    +0.223 C 
BRANCH  22  23
ATOM     23  C   UNL     1       1.214   3.580   5.682  0.00  0.00    +0.081 C 
ATOM     24  N   UNL     1       1.856   4.290   6.293  0.00  0.00    -0.195 NA
ENDBRANCH  22  23
ENDBRANCH  20  22
ENDBRANCH  17  18
ENDBRANCH  11  17
TORSDOF 5
