REMARK  Name = ZINC42959898
REMARK  7 active torsions:
REMARK  status: ('A' for Active; 'I' for Inactive)
REMARK    1  A    between atoms: C_1  and  C_2
REMARK    2  A    between atoms: C_5  and  S_8
REMARK    3  A    between atoms: S_8  and  C_9
REMARK    4  A    between atoms: C_9  and  C_11
REMARK    5  A    between atoms: C_9  and  C_18
REMARK    6  A    between atoms: C_18  and  C_20
REMARK    7  A    between atoms: C_18  and  N_21
REMARK                            x       y       z     vdW  Elec       q    Type
REMARK                         _______ _______ _______ _____ _____    ______ ____
ROOT
ATOM      1  C   UNL     1      -5.141   2.495  -1.662  0.00  0.00    +0.069 C 
ENDROOT
BRANCH   1   2
ATOM      2  C   UNL     1      -6.603   2.540  -2.022  0.00  0.00    -0.036 A 
ATOM      3  C   UNL     1      -7.144   3.684  -2.579  0.00  0.00    +0.006 A 
ATOM      4  C   UNL     1      -8.485   3.725  -2.910  0.00  0.00    +0.015 A 
ATOM      5  C   UNL     1      -9.287   2.620  -2.684  0.00  0.00    +0.018 A 
ATOM      6  C   UNL     1      -8.746   1.476  -2.127  0.00  0.00    +0.015 A 
ATOM      7  C   UNL     1      -7.403   1.434  -1.801  0.00  0.00    +0.006 A 
ATOM      8 BR   UNL     1     -11.122   2.676  -3.136  0.00  0.00    -0.050 Br
ENDBRANCH   1   2
BRANCH   1   9
ATOM      9  C   UNL     1      -4.837   3.582  -0.629  0.00  0.00    -0.060 C 
ATOM     10  C   UNL     1      -3.370   3.484  -0.202  0.00  0.00    -0.013 C 
BRANCH   9  11
ATOM     11  N   UNL     1      -5.701   3.397   0.544  0.00  0.00    +0.381 N 
ATOM     12  H   UNL     1      -5.529   2.490   0.950  0.00  0.00    -0.090 HD
ATOM     13  H   UNL     1      -5.501   4.114   1.226  0.00  0.00    -0.090 HD
ATOM     14  H   UNL     1      -6.668   3.462   0.263  0.00  0.00    -0.090 HD
ENDBRANCH   9  11
ENDBRANCH   1   9
BRANCH   1  15
ATOM     15  S   UNL     1      -4.143   2.780  -3.150  0.00  0.00    -0.080 S 
BRANCH  15  20
ATOM     16  C   UNL     1      -5.861  -1.917  -4.769  0.00  0.00    +0.090 C 
ATOM     17  C   UNL     1      -5.159  -0.584  -4.791  0.00  0.00    +0.149 A 
ATOM     18  N   UNL     1      -5.144   0.299  -3.792  0.00  0.00    -0.206 NA
ATOM     19  H   UNL     1      -3.444   1.757  -5.926  0.00  0.00    +0.191 HD
ATOM     20  C   UNL     1      -4.441   1.355  -4.143  0.00  0.00    +0.185 A 
ATOM     21  N   UNL     1      -3.990   1.152  -5.400  0.00  0.00    -0.254 N 
ATOM     22  N   UNL     1      -4.465  -0.110  -5.791  0.00  0.00    -0.157 NA
ENDBRANCH  15  20
ENDBRANCH   1  15
TORSDOF 5
