REMARK  Name = ZINC31935651
REMARK  5 active torsions:
REMARK  status: ('A' for Active; 'I' for Inactive)
REMARK    1  A    between atoms: C_1  and  C_2
REMARK    2  A    between atoms: C_15  and  C_17
REMARK    3  A    between atoms: C_17  and  N_18
REMARK    4  A    between atoms: N_18  and  C_19
REMARK    5  A    between atoms: C_19  and  C_20
REMARK                            x       y       z     vdW  Elec       q    Type
REMARK                         _______ _______ _______ _____ _____    ______ ____
ROOT
ATOM      1  C   UNL     1      -0.019   1.526   0.010  0.00  0.00    +0.008 C 
ATOM      2  C   UNL     1       0.002  -0.004   0.002  0.00  0.00    -0.009 C 
ATOM      3  C   UNL     1      -1.433  -0.537   0.021  0.00  0.00    +0.008 C 
ATOM      4  C   UNL     1      -1.430  -2.044  -0.237  0.00  0.00    +0.037 C 
ATOM      5  C   UNL     1      -0.472  -2.712   0.745  0.00  0.00    -0.023 A 
ATOM      6  C   UNL     1       0.476  -1.985   1.383  0.00  0.00    -0.004 A 
ATOM      7  S   UNL     1       1.343  -3.148   2.406  0.00  0.00    -0.073 S 
ATOM      8  C   UNL     1       0.437  -4.601   1.978  0.00  0.00    +0.116 A 
ATOM      9  C   UNL     1      -0.517  -4.131   1.048  0.00  0.00    +0.075 A 
ATOM     10  C   UNL     1      -1.426  -5.099   0.502  0.00  0.00    +0.260 A 
ATOM     11  O   UNL     1      -2.286  -4.796  -0.308  0.00  0.00    -0.267 OA
ATOM     12  N   UNL     1      -1.267  -6.369   0.944  0.00  0.00    -0.312 N 
ATOM     13  H   UNL     1      -1.860  -7.056   0.601  0.00  0.00    +0.170 HD
ATOM     14  C   UNL     1      -0.319  -6.726   1.843  0.00  0.00    +0.094 A 
ATOM     15  N   UNL     1       0.532  -5.869   2.365  0.00  0.00    -0.229 NA
ATOM     16  C   UNL     1       0.737  -0.516   1.249  0.00  0.00    +0.046 C 
ENDROOT
BRANCH  14  17
ATOM     17  C   UNL     1      -0.234  -8.170   2.263  0.00  0.00    -0.007 C 
BRANCH  17  18
ATOM     18  N   UNL     1       0.855  -8.334   3.236  0.00  0.00    +0.386 N 
ATOM     19  H   UNL     1       1.728  -8.055   2.813  0.00  0.00    -0.085 HD
ATOM     20  H   UNL     1       0.673  -7.758   4.044  0.00  0.00    -0.085 HD
BRANCH  18  21
ATOM     21  C   UNL     1       0.938  -9.742   3.646  0.00  0.00    -0.046 C 
BRANCH  21  22
ATOM     22  C   UNL     1       2.055  -9.910   4.643  0.00  0.00    -0.064 A 
ATOM     23  C   UNL     1       3.334 -10.197   4.206  0.00  0.00    +0.002 A 
ATOM     24  C   UNL     1       4.359 -10.351   5.121  0.00  0.00    +0.000 A 
ATOM     25  C   UNL     1       4.104 -10.218   6.473  0.00  0.00    +0.000 A 
ATOM     26  C   UNL     1       2.825  -9.930   6.910  0.00  0.00    +0.000 A 
ATOM     27  C   UNL     1       1.801  -9.772   5.995  0.00  0.00    +0.002 A 
ENDBRANCH  21  22
ENDBRANCH  18  21
ENDBRANCH  17  18
ENDBRANCH  14  17
TORSDOF 4
