REMARK  Name = ZINC37408672
REMARK  4 active torsions:
REMARK  status: ('A' for Active; 'I' for Inactive)
REMARK    1  A    between atoms: C_1  and  C_2
REMARK    2  A    between atoms: C_7  and  N_8
REMARK    3  A    between atoms: N_8  and  S_9
REMARK    4  A    between atoms: S_9  and  C_12
REMARK                            x       y       z     vdW  Elec       q    Type
REMARK                         _______ _______ _______ _____ _____    ______ ____
ROOT
ATOM      1  S   UNL     1       0.050  -0.852   3.844  0.00  0.00    +0.093 S 
ATOM      2  O   UNL     1      -1.185  -1.549   3.928  0.00  0.00    -0.148 OA
ATOM      3  O   UNL     1       1.305  -1.515   3.904  0.00  0.00    -0.148 OA
ENDROOT
BRANCH   1   4
ATOM      4  C   UNL     1       0.046   0.337   5.145  0.00  0.00    +0.124 A 
ATOM      5  C   UNL     1      -1.030   0.410   6.010  0.00  0.00    +0.033 A 
ATOM      6  C   UNL     1      -1.034   1.342   7.031  0.00  0.00    +0.040 A 
ATOM      7  C   UNL     1       0.040   2.202   7.188  0.00  0.00    +0.125 A 
ATOM      8  C   UNL     1       1.117   2.128   6.322  0.00  0.00    +0.055 A 
ATOM      9  C   UNL     1       1.122   1.191   5.304  0.00  0.00    +0.047 A 
ATOM     10 BR   UNL     1       2.596   1.085   4.124  0.00  0.00    -0.048 Br
ATOM     11  F   UNL     1       0.037   3.113   8.185  0.00  0.00    -0.205 F 
ENDBRANCH   1   4
BRANCH   1  12
ATOM     12  N   UNL     1       0.025  -0.014   2.416  0.00  0.00    -0.098 NA
BRANCH  12  19
ATOM     13  C   UNL     1      -0.018   1.503   0.010  0.00  0.00    +0.046 C 
ATOM     14  C   UNL     1       0.002  -0.004   0.002  0.00  0.00    -0.023 A 
ATOM     15  C   UNL     1       0.006  -0.689  -1.198  0.00  0.00    +0.043 A 
ATOM     16  C   UNL     1       0.025  -2.073  -1.206  0.00  0.00    +0.124 A 
ATOM     17  C   UNL     1       0.040  -2.774  -0.012  0.00  0.00    +0.040 A 
ATOM     18  C   UNL     1       0.036  -2.094   1.190  0.00  0.00    +0.030 A 
ATOM     19  C   UNL     1       0.023  -0.705   1.200  0.00  0.00    +0.077 A 
ATOM     20  F   UNL     1       0.029  -2.740  -2.381  0.00  0.00    -0.205 F 
ENDBRANCH  12  19
ENDBRANCH   1  12
TORSDOF 3
