REMARK  Name = ZINC22056815
REMARK  9 active torsions:
REMARK  status: ('A' for Active; 'I' for Inactive)
REMARK    1  A    between atoms: C_1  and  O_2
REMARK    2  A    between atoms: O_2  and  C_3
REMARK    3  A    between atoms: C_8  and  O_9
REMARK    4  A    between atoms: O_9  and  C_10
REMARK    5  A    between atoms: C_10  and  C_11
REMARK    6  A    between atoms: C_23  and  O_31
REMARK    7  A    between atoms: C_24  and  O_30
REMARK    8  A    between atoms: O_31  and  C_32
REMARK    9  A    between atoms: C_32  and  C_33
REMARK                            x       y       z     vdW  Elec       q    Type
REMARK                         _______ _______ _______ _____ _____    ______ ____
ROOT
ATOM      1  C   UNL     1      -0.110  -4.268   7.236  0.00  0.00    +0.162 A 
ATOM      2  C   UNL     1      -0.580  -2.968   7.170  0.00  0.00    +0.053 A 
ATOM      3  C   UNL     1      -0.405  -2.217   6.018  0.00  0.00    -0.044 A 
ATOM      4  C   UNL     1       0.236  -2.762   4.927  0.00  0.00    -0.054 A 
ATOM      5  C   UNL     1       0.710  -4.066   4.989  0.00  0.00    +0.051 A 
ATOM      6  C   UNL     1       0.540  -4.820   6.136  0.00  0.00    +0.163 A 
ATOM      7  C   UNL     1       0.450  -1.992   3.649  0.00  0.00    -0.032 C 
ATOM      8  C   UNL     1       0.040  -2.880   2.470  0.00  0.00    +0.025 C 
ATOM      9  C   UNL     1       0.036  -2.082   1.193  0.00  0.00    -0.044 A 
ATOM     10  C   UNL     1       0.037  -2.765  -0.014  0.00  0.00    +0.007 A 
ATOM     11  C   UNL     1       0.018  -2.075  -1.210  0.00  0.00    +0.050 A 
ATOM     12  C   UNL     1      -0.006  -0.690  -1.206  0.00  0.00    +0.162 A 
ATOM     13  C   UNL     1       0.002  -0.004   0.002  0.00  0.00    +0.160 A 
ATOM     14  C   UNL     1       0.023  -0.703   1.204  0.00  0.00    -0.016 A 
ATOM     15  C   UNL     1       0.038   0.080   2.489  0.00  0.00    -0.038 C 
ATOM     16  N   UNL     1      -0.361  -0.770   3.619  0.00  0.00    +0.387 N 
ATOM     17  C   UNL     1      -0.234  -0.023   4.880  0.00  0.00    -0.073 C 
ATOM     18  C   UNL     1      -0.932  -0.805   5.992  0.00  0.00    +0.017 C 
ATOM     19  H   UNL     1      -1.414  -1.065   3.494  0.00  0.00    -0.080 HD
ENDROOT
BRANCH   1  21
ATOM     20  C   UNL     1      -0.959  -4.368   9.455  0.00  0.00    +0.277 C 
ATOM     21  O   UNL     1      -0.283  -5.002   8.367  0.00  0.00    -0.491 OA
ENDBRANCH   1  21
BRANCH  13  22
ATOM     22  O   UNL     1      -0.016   1.356   0.009  0.00  0.00    -0.503 OA
ATOM     23  H   UNL     1      -0.010   1.901   0.965  0.00  0.00    +0.292 HD
ENDBRANCH  13  22
BRANCH   6  24
ATOM     24  O   UNL     1       1.006  -6.096   6.188  0.00  0.00    -0.484 OA
BRANCH  24  25
ATOM     25  C   UNL     1       1.663  -6.596   5.022  0.00  0.00    +0.264 C 
BRANCH  25  26
ATOM     26  C   UNL     1       2.108  -8.015   5.264  0.00  0.00    -0.010 A 
ATOM     27  C   UNL     1       3.362  -8.266   5.789  0.00  0.00    +0.007 A 
ATOM     28  C   UNL     1       3.768  -9.568   6.016  0.00  0.00    +0.000 A 
ATOM     29  C   UNL     1       2.924 -10.619   5.708  0.00  0.00    +0.000 A 
ATOM     30  C   UNL     1       1.672 -10.368   5.179  0.00  0.00    +0.000 A 
ATOM     31  C   UNL     1       1.264  -9.066   4.957  0.00  0.00    +0.007 A 
ENDBRANCH  25  26
ENDBRANCH  24  25
ENDBRANCH   6  24
BRANCH  12  32
ATOM     32  O   UNL     1      -0.032  -0.004  -2.381  0.00  0.00    -0.484 OA
BRANCH  32  33
ATOM     33  C   UNL     1      -0.039  -0.776  -3.583  0.00  0.00    +0.264 C 
BRANCH  33  34
ATOM     34  C   UNL     1      -0.068   0.147  -4.773  0.00  0.00    -0.010 A 
ATOM     35  C   UNL     1      -1.279   0.550  -5.306  0.00  0.00    +0.007 A 
ATOM     36  C   UNL     1      -1.306   1.401  -6.395  0.00  0.00    +0.000 A 
ATOM     37  C   UNL     1      -0.123   1.842  -6.957  0.00  0.00    +0.000 A 
ATOM     38  C   UNL     1       1.087   1.435  -6.428  0.00  0.00    +0.000 A 
ATOM     39  C   UNL     1       1.115   0.588  -5.336  0.00  0.00    +0.007 A 
ENDBRANCH  33  34
ENDBRANCH  32  33
ENDBRANCH  12  32
TORSDOF 8
