REMARK  Name = ZINC15074009
REMARK  6 active torsions:
REMARK  status: ('A' for Active; 'I' for Inactive)
REMARK    1  A    between atoms: C_1  and  C_2
REMARK    2  A    between atoms: C_4  and  C_26
REMARK    3  A    between atoms: C_6  and  N_8
REMARK    4  A    between atoms: C_13  and  N_49
REMARK    5  A    between atoms: C_18  and  C_19
REMARK    6  A    between atoms: C_18  and  N_49
REMARK                            x       y       z     vdW  Elec       q    Type
REMARK                         _______ _______ _______ _____ _____    ______ ____
ROOT
ATOM      1  N   UNL     1       3.065   9.273  -1.690  0.00  0.00    -0.237 N 
ATOM      2  C   UNL     1       1.783   9.070  -2.047  0.00  0.00    +0.047 A 
ATOM      3  C   UNL     1       1.295   8.058  -1.285  0.00  0.00    -0.020 A 
ATOM      4  C   UNL     1       2.313   7.630  -0.434  0.00  0.00    +0.137 A 
ATOM      5  N   UNL     1       3.377   8.357  -0.674  0.00  0.00    -0.174 NA
ATOM      6  C   UNL     1      -0.114   7.528  -1.384  0.00  0.00    -0.037 C 
ATOM      7  C   UNL     1      -0.718   8.008  -2.709  0.00  0.00    -0.011 C 
ATOM      8  C   UNL     1      -0.505   9.516  -2.853  0.00  0.00    +0.005 C 
ATOM      9  C   UNL     1       0.982   9.803  -3.093  0.00  0.00    +0.056 C 
ENDROOT
BRANCH   1  15
ATOM     10  C   UNL     1       4.622  11.844  -5.583  0.00  0.00    +0.044 C 
ATOM     11  C   UNL     1       4.710  11.492  -4.121  0.00  0.00    -0.048 A 
ATOM     12  C   UNL     1       5.648  12.113  -3.316  0.00  0.00    +0.006 A 
ATOM     13  C   UNL     1       5.731  11.793  -1.973  0.00  0.00    -0.048 A 
ATOM     14  C   UNL     1       4.876  10.852  -1.432  0.00  0.00    +0.031 A 
ATOM     15  C   UNL     1       3.934  10.228  -2.237  0.00  0.00    +0.066 A 
ATOM     16  C   UNL     1       3.856  10.547  -3.586  0.00  0.00    +0.031 A 
ATOM     17  C   UNL     1       6.754  12.472  -1.100  0.00  0.00    +0.044 C 
ENDBRANCH   1  15
BRANCH   6  18
ATOM     18  N   UNL     1      -0.093   6.053  -1.361  0.00  0.00    +0.386 N 
ATOM     19  H   UNL     1       0.745   5.718  -1.849  0.00  0.00    -0.085 HD
ATOM     20  H   UNL     1      -0.931   5.696  -1.834  0.00  0.00    -0.085 HD
BRANCH  18  21
ATOM     21  C   UNL     1      -0.073   5.564   0.031  0.00  0.00    -0.043 C 
BRANCH  21  22
ATOM     22  C   UNL     1      -0.053   4.057   0.023  0.00  0.00    -0.028 A 
ATOM     23  C   UNL     1       1.148   3.365   0.009  0.00  0.00    +0.117 A 
ATOM     24  N   UNL     1       1.131   2.042   0.002  0.00  0.00    -0.223 NA
ATOM     25  C   UNL     1      -0.017   1.380   0.010  0.00  0.00    +0.212 A 
ATOM     26  N   UNL     1      -1.182   2.011   0.019  0.00  0.00    -0.223 NA
ATOM     27  C   UNL     1      -1.235   3.332   0.031  0.00  0.00    +0.117 A 
ATOM     28  N   UNL     1       0.002  -0.004   0.002  0.00  0.00    -0.327 N 
ATOM     29  H   UNL     1       0.849  -0.478  -0.009  0.00  0.00    +0.145 HD
ATOM     30  H   UNL     1      -0.831  -0.500   0.007  0.00  0.00    +0.145 HD
ENDBRANCH  21  22
ENDBRANCH  18  21
ENDBRANCH   6  18
TORSDOF 4
