REMARK  Name = ZINC39552625
REMARK  8 active torsions:
REMARK  status: ('A' for Active; 'I' for Inactive)
REMARK    1  A    between atoms: C_1  and  C_2
REMARK    2  A    between atoms: C_6  and  C_8
REMARK    3  A    between atoms: C_8  and  N_9
REMARK    4  A    between atoms: C_13  and  C_16
REMARK    5  A    between atoms: C_13  and  O_28
REMARK    6  A    between atoms: C_16  and  N_17
REMARK    7  A    between atoms: N_17  and  C_18
REMARK    8  A    between atoms: C_18  and  C_19
REMARK                            x       y       z     vdW  Elec       q    Type
REMARK                         _______ _______ _______ _____ _____    ______ ____
ROOT
ATOM      1  N   UNL     1       1.453  -3.083   2.893  0.00  0.00    -0.295 N 
ATOM      2  C   UNL     1       2.117  -4.303   2.450  0.00  0.00    +0.108 C 
ATOM      3  C   UNL     1       3.324  -4.608   3.337  0.00  0.00    +0.022 C 
ATOM      4  C   UNL     1       4.192  -3.348   3.437  0.00  0.00    +0.044 C 
ATOM      5  C   UNL     1       3.415  -2.285   4.219  0.00  0.00    +0.127 C 
ATOM      6  C   UNL     1       2.026  -2.157   3.663  0.00  0.00    +0.246 C 
ATOM      7  O   UNL     1       1.390  -1.160   3.931  0.00  0.00    -0.273 OA
ENDROOT
BRANCH   5   8
ATOM      8  O   UNL     1       3.347  -2.665   5.595  0.00  0.00    -0.381 OA
ATOM      9  H   UNL     1       2.906  -3.512   5.748  0.00  0.00    +0.211 HD
ENDBRANCH   5   8
BRANCH   1  10
ATOM     10  C   UNL     1       0.071  -2.858   2.462  0.00  0.00    +0.143 C 
BRANCH  10  16
ATOM     11  C   UNL     1       0.027   1.467  -0.056  0.00  0.00    +0.044 C 
ATOM     12  C   UNL     1       0.047  -0.040  -0.050  0.00  0.00    -0.050 A 
ATOM     13  C   UNL     1       0.063  -0.736  -1.245  0.00  0.00    +0.003 A 
ATOM     14  C   UNL     1       0.081  -2.117  -1.240  0.00  0.00    +0.001 A 
ATOM     15  C   UNL     1       0.084  -2.804  -0.040  0.00  0.00    +0.005 A 
ATOM     16  C   UNL     1       0.069  -2.109   1.154  0.00  0.00    -0.030 A 
ATOM     17  C   UNL     1       0.054  -0.727   1.149  0.00  0.00    +0.008 A 
ENDBRANCH  10  16
ENDBRANCH   1  10
BRANCH   5  18
ATOM     18  C   UNL     1       4.133  -0.940   4.099  0.00  0.00    -0.038 C 
BRANCH  18  19
ATOM     19  N   UNL     1       5.496  -1.063   4.633  0.00  0.00    +0.383 N 
ATOM     20  H   UNL     1       5.458  -1.419   5.576  0.00  0.00    -0.086 HD
ATOM     21  H   UNL     1       6.027  -1.698   4.055  0.00  0.00    -0.086 HD
BRANCH  19  22
ATOM     22  C   UNL     1       6.143   0.256   4.633  0.00  0.00    -0.049 C 
BRANCH  22  23
ATOM     23  C   UNL     1       7.563   0.127   5.188  0.00  0.00    +0.139 C 
ATOM     24  C   UNL     1       8.193   1.492   5.374  0.00  0.00    -0.023 C 
ATOM     25  C   UNL     1       8.434   1.580   6.681  0.00  0.00    +0.064 C 
ATOM     26  C   UNL     1       9.071   2.921   6.998  0.00  0.00    +0.057 C 
ATOM     27  C   UNL     1       9.574   3.459   5.640  0.00  0.00    +0.011 C 
ATOM     28  C   UNL     1       8.630   2.739   4.650  0.00  0.00    +0.035 C 
ATOM     29  N   UNL     1       8.030   0.439   7.304  0.00  0.00    -0.159 NA
ATOM     30  N   UNL     1       7.541  -0.415   6.558  0.00  0.00    -0.181 NA
ENDBRANCH  22  23
ENDBRANCH  19  22
ENDBRANCH  18  19
ENDBRANCH   5  18
TORSDOF 7
