REMARK  Name = ZINC20572554
REMARK  8 active torsions:
REMARK  status: ('A' for Active; 'I' for Inactive)
REMARK    1  A    between atoms: C_1  and  C_2
REMARK    2  A    between atoms: C_15  and  C_18
REMARK    3  A    between atoms: C_20  and  O_28
REMARK    4  A    between atoms: C_21  and  O_26
REMARK    5  A    between atoms: C_22  and  O_24
REMARK    6  A    between atoms: O_24  and  C_25
REMARK    7  A    between atoms: O_26  and  C_27
REMARK    8  A    between atoms: O_28  and  C_29
REMARK                            x       y       z     vdW  Elec       q    Type
REMARK                         _______ _______ _______ _____ _____    ______ ____
ROOT
ATOM      1  C   UNL     1       5.235   6.309  -0.170  0.00  0.00    +0.024 C 
ATOM      2  C   UNL     1       4.565   4.957  -0.422  0.00  0.00    +0.056 C 
ATOM      3  C   UNL     1       3.088   5.033  -0.009  0.00  0.00    +0.056 C 
ATOM      4  C   UNL     1       2.536   3.630  -0.006  0.00  0.00    -0.016 A 
ATOM      5  C   UNL     1       1.145   3.197   0.008  0.00  0.00    +0.003 A 
ATOM      6  C   UNL     1      -0.086   3.859   0.025  0.00  0.00    +0.010 A 
ATOM      7  C   UNL     1      -1.246   3.138   0.032  0.00  0.00    +0.001 A 
ATOM      8  C   UNL     1      -1.214   1.750   0.017  0.00  0.00    +0.002 A 
ATOM      9  C   UNL     1      -0.013   1.076   0.008  0.00  0.00    +0.026 A 
ATOM     10  C   UNL     1       1.181   1.789   0.000  0.00  0.00    +0.047 A 
ATOM     11  N   UNL     1       2.508   1.414  -0.015  0.00  0.00    -0.356 N 
ATOM     12  H   UNL     1       2.778   0.348  -0.022  0.00  0.00    +0.166 HD
ATOM     13  C   UNL     1       3.304   2.522  -0.018  0.00  0.00    +0.042 A 
ATOM     14  C   UNL     1       4.814   2.570  -0.032  0.00  0.00    +0.132 C 
ATOM     15  N   UNL     1       5.241   3.920   0.370  0.00  0.00    -0.302 NA
ATOM     16  H   UNL     1       6.328   3.999   0.226  0.00  0.00    +0.123 HD
ENDROOT
BRANCH  14  17
ATOM     17  C   UNL     1       5.364   1.554   0.936  0.00  0.00    -0.018 A 
ATOM     18  C   UNL     1       5.389   1.835   2.289  0.00  0.00    +0.055 A 
ATOM     19  C   UNL     1       5.888   0.901   3.184  0.00  0.00    +0.165 A 
ATOM     20  C   UNL     1       6.373  -0.315   2.718  0.00  0.00    +0.204 A 
ATOM     21  C   UNL     1       6.351  -0.591   1.357  0.00  0.00    +0.165 A 
ATOM     22  C   UNL     1       5.846   0.346   0.469  0.00  0.00    +0.055 A 
BRANCH  21  23
ATOM     23  O   UNL     1       6.826  -1.780   0.895  0.00  0.00    -0.491 OA
ATOM     24  C   UNL     1       6.772  -1.996  -0.516  0.00  0.00    +0.277 C 
ENDBRANCH  21  23
BRANCH  20  25
ATOM     25  O   UNL     1       6.869  -1.232   3.593  0.00  0.00    -0.488 OA
ATOM     26  C   UNL     1       8.266  -1.159   3.888  0.00  0.00    +0.277 C 
ENDBRANCH  20  25
BRANCH  19  27
ATOM     27  O   UNL     1       5.907   1.177   4.516  0.00  0.00    -0.491 OA
ATOM     28  C   UNL     1       5.392   2.446   4.924  0.00  0.00    +0.277 C 
ENDBRANCH  19  27
ENDBRANCH  14  17
TORSDOF 4
