REMARK  Name = ZINC66057859
REMARK  5 active torsions:
REMARK  status: ('A' for Active; 'I' for Inactive)
REMARK    1  A    between atoms: C_1  and  O_2
REMARK    2  A    between atoms: O_2  and  C_3
REMARK    3  A    between atoms: C_8  and  N_9
REMARK    4  A    between atoms: C_10  and  C_12
REMARK    5  A    between atoms: C_12  and  N_13
REMARK                            x       y       z     vdW  Elec       q    Type
REMARK                         _______ _______ _______ _____ _____    ______ ____
ROOT
ATOM      1  N   UNL     1       0.823  -6.349   0.273  0.00  0.00    -0.215 N 
ATOM      2  C   UNL     1       0.615  -7.006   1.434  0.00  0.00    +0.247 C 
ATOM      3  O   UNL     1       0.657  -6.547   2.555  0.00  0.00    -0.273 OA
ATOM      4  C   UNL     1       0.318  -8.433   1.040  0.00  0.00    +0.117 C 
ATOM      5  C   UNL     1       1.367  -9.377   1.624  0.00  0.00    +0.040 C 
ATOM      6  C   UNL     1       1.440  -9.149   3.133  0.00  0.00    +0.038 C 
ATOM      7  C   UNL     1       0.065  -9.197   3.745  0.00  0.00    -0.044 A 
ATOM      8  C   UNL     1      -0.024  -9.399   5.117  0.00  0.00    +0.004 A 
ATOM      9  C   UNL     1      -1.252  -9.449   5.741  0.00  0.00    +0.000 A 
ATOM     10  C   UNL     1      -2.407  -9.294   4.997  0.00  0.00    +0.000 A 
ATOM     11  C   UNL     1      -2.322  -9.095   3.635  0.00  0.00    +0.004 A 
ATOM     12  C   UNL     1      -1.085  -9.050   3.004  0.00  0.00    -0.042 A 
ATOM     13  C   UNL     1      -1.067  -8.848   1.510  0.00  0.00    +0.070 C 
ATOM     14  N   UNL     1       0.394  -8.425  -0.425  0.00  0.00    -0.285 N 
ATOM     15  C   UNL     1       0.691  -7.160  -0.783  0.00  0.00    +0.310 C 
ATOM     16  O   UNL     1       0.827  -6.798  -1.935  0.00  0.00    -0.252 OA
ATOM     17  H   UNL     1       0.254  -9.179  -1.019  0.00  0.00    +0.151 HD
ENDROOT
BRANCH   1  18
ATOM     18  C   UNL     1       1.147  -4.923   0.181  0.00  0.00    +0.214 C 
BRANCH  18  20
ATOM     19  N   UNL     1      -0.074  -2.780  -0.012  0.00  0.00    -0.281 N 
ATOM     20  C   UNL     1      -0.127  -4.124   0.083  0.00  0.00    +0.235 C 
ATOM     21  O   UNL     1      -1.200  -4.689   0.090  0.00  0.00    -0.274 OA
ATOM     22  H   UNL     1       0.783  -2.334  -0.098  0.00  0.00    +0.155 HD
BRANCH  19  28
ATOM     23  C   UNL     1      -1.294  -0.766  -0.572  0.00  0.00    +0.141 A 
ATOM     24  C   UNL     1      -2.468  -0.030  -0.548  0.00  0.00    +0.047 A 
ATOM     25  C   UNL     1      -3.596  -0.546   0.062  0.00  0.00    +0.004 A 
ATOM     26  C   UNL     1      -3.557  -1.798   0.649  0.00  0.00    +0.002 A 
ATOM     27  C   UNL     1      -2.391  -2.538   0.629  0.00  0.00    +0.027 A 
ATOM     28  C   UNL     1      -1.256  -2.029   0.014  0.00  0.00    +0.076 A 
BRANCH  23  30
ATOM     29  C   UNL     1      -0.297   1.042  -1.753  0.00  0.00    +0.277 C 
ATOM     30  O   UNL     1      -0.184  -0.259  -1.172  0.00  0.00    -0.493 OA
ENDBRANCH  23  30
ENDBRANCH  19  28
ENDBRANCH  18  20
ENDBRANCH   1  18
TORSDOF 4
