REMARK  Name = ZINC02663304
REMARK  12 active torsions:
REMARK  status: ('A' for Active; 'I' for Inactive)
REMARK    1  A    between atoms: C_1  and  C_2
REMARK    2  A    between atoms: C_2  and  O_3
REMARK    3  A    between atoms: O_3  and  C_4
REMARK    4  A    between atoms: C_14  and  C_16
REMARK    5  A    between atoms: C_16  and  S_17
REMARK    6  A    between atoms: S_17  and  C_18
REMARK    7  A    between atoms: C_21  and  C_30
REMARK    8  A    between atoms: N_22  and  C_23
REMARK    9  A    between atoms: C_30  and  C_32
REMARK   10  A    between atoms: C_30  and  N_59
REMARK   11  A    between atoms: C_33  and  N_59
REMARK   12  A    between atoms: C_34  and  N_59
REMARK                            x       y       z     vdW  Elec       q    Type
REMARK                         _______ _______ _______ _____ _____    ______ ____
ROOT
ATOM      1  S   UNL     1      -2.014   5.610   5.729  0.00  0.00    -0.076 S 
ENDROOT
BRANCH   1   2
ATOM      2  C   UNL     1      -1.996   4.519   4.345  0.00  0.00    +0.197 A 
ATOM      3  N   UNL     1      -2.891   3.601   4.063  0.00  0.00    -0.122 NA
ATOM      4  N   UNL     1      -2.567   2.993   2.978  0.00  0.00    -0.135 NA
ATOM      5  C   UNL     1      -1.451   3.475   2.510  0.00  0.00    +0.125 A 
ATOM      6  N   UNL     1      -1.047   4.468   3.362  0.00  0.00    -0.275 N 
BRANCH   6   7
ATOM      7  C   UNL     1       0.102   5.267   3.250  0.00  0.00    +0.050 A 
ATOM      8  C   UNL     1       1.361   4.692   3.353  0.00  0.00    +0.029 A 
ATOM      9  C   UNL     1       2.490   5.479   3.237  0.00  0.00    +0.040 A 
ATOM     10  C   UNL     1       2.366   6.842   3.028  0.00  0.00    +0.124 A 
ATOM     11  C   UNL     1       1.111   7.418   2.929  0.00  0.00    +0.040 A 
ATOM     12  C   UNL     1      -0.020   6.634   3.040  0.00  0.00    +0.029 A 
ATOM     13  F   UNL     1       3.472   7.611   2.920  0.00  0.00    -0.205 F 
ENDBRANCH   6   7
BRANCH   5  14
ATOM     14  C   UNL     1      -0.740   3.027   1.259  0.00  0.00    -0.003 C 
ATOM     15  C   UNL     1      -1.486   3.553   0.032  0.00  0.00    -0.005 C 
BRANCH  14  18
ATOM     16  C   UNL     1      -0.013   1.086   0.008  0.00  0.00    -0.096 C 
ATOM     17  C   UNL     1      -0.072   1.015   2.428  0.00  0.00    -0.096 C 
ATOM     18  N   UNL     1      -0.727   1.550   1.216  0.00  0.00    +0.382 N 
ATOM     19  H   UNL     1      -1.695   1.209   1.182  0.00  0.00    -0.082 HD
ENDBRANCH  14  18
ENDBRANCH   5  14
ENDBRANCH   1   2
BRANCH   1  20
ATOM     20  C   UNL     1      -3.543   5.071   6.534  0.00  0.00    +0.173 C 
BRANCH  20  31
ATOM     21  C   UNL     1      -5.607   9.204  13.707  0.00  0.00    +0.122 A 
ATOM     22  C   UNL     1      -4.427   9.645  13.116  0.00  0.00    +0.048 A 
ATOM     23  C   UNL     1      -3.954   9.085  11.959  0.00  0.00    +0.032 A 
ATOM     24  C   UNL     1      -4.656   8.034  11.324  0.00  0.00    +0.081 A 
ATOM     25  C   UNL     1      -5.850   7.611  11.950  0.00  0.00    +0.044 A 
ATOM     26  C   UNL     1      -6.320   8.175  13.109  0.00  0.00    +0.063 A 
ATOM     27  S   UNL     1      -6.410   6.321  10.864  0.00  0.00    -0.052 S 
ATOM     28  C   UNL     1      -5.064   6.414   9.691  0.00  0.00    +0.165 A 
ATOM     29  N   UNL     1      -4.327   7.380  10.187  0.00  0.00    -0.225 NA
ATOM     30  N   UNL     1      -4.855   5.662   8.546  0.00  0.00    -0.264 N 
ATOM     31  C   UNL     1      -3.770   5.889   7.779  0.00  0.00    +0.229 C 
ATOM     32  O   UNL     1      -2.977   6.751   8.092  0.00  0.00    -0.275 OA
ATOM     33  H   UNL     1      -5.490   4.972   8.296  0.00  0.00    +0.157 HD
BRANCH  21  34
ATOM     34  O   UNL     1      -6.057   9.775  14.856  0.00  0.00    -0.492 OA
BRANCH  34  36
ATOM     35  C   UNL     1      -5.926  11.344  16.690  0.00  0.00    +0.048 C 
ATOM     36  C   UNL     1      -5.266  10.829  15.409  0.00  0.00    +0.225 C 
ENDBRANCH  34  36
ENDBRANCH  21  34
ENDBRANCH  20  31
ENDBRANCH   1  20
TORSDOF 8
