REMARK  Name = ZINC60241624
REMARK  6 active torsions:
REMARK  status: ('A' for Active; 'I' for Inactive)
REMARK    1  A    between atoms: C_1  and  N_2
REMARK    2  A    between atoms: N_2  and  C_3
REMARK    3  A    between atoms: C_8  and  O_9
REMARK    4  A    between atoms: O_9  and  C_10
REMARK    5  A    between atoms: C_16  and  C_18
REMARK    6  A    between atoms: C_18  and  N_19
REMARK                            x       y       z     vdW  Elec       q    Type
REMARK                         _______ _______ _______ _____ _____    ______ ____
ROOT
ATOM      1  C   UNL     1       0.098   1.210  -0.524  0.00  0.00    +0.138 C 
ATOM      2  N   UNL     1       0.009  -0.189  -0.098  0.00  0.00    -0.270 N 
ATOM      3  C   UNL     1      -0.095  -1.169  -1.017  0.00  0.00    +0.238 C 
ATOM      4  O   UNL     1      -0.169  -2.327  -0.664  0.00  0.00    -0.274 OA
ENDROOT
BRANCH   2   5
ATOM      5  C   UNL     1       0.031  -0.508   1.266  0.00  0.00    +0.079 A 
ATOM      6  C   UNL     1      -1.155  -0.583   1.982  0.00  0.00    +0.027 A 
ATOM      7  C   UNL     1      -1.131  -0.898   3.328  0.00  0.00    +0.002 A 
ATOM      8  C   UNL     1       0.073  -1.140   3.963  0.00  0.00    +0.004 A 
ATOM      9  C   UNL     1       1.259  -1.067   3.257  0.00  0.00    +0.048 A 
ATOM     10  C   UNL     1       1.243  -0.756   1.906  0.00  0.00    +0.150 A 
BRANCH  10  11
ATOM     11  O   UNL     1       2.408  -0.690   1.208  0.00  0.00    -0.454 OA
BRANCH  11  12
ATOM     12  C   UNL     1       3.566  -0.942   1.874  0.00  0.00    +0.129 A 
ATOM     13  C   UNL     1       4.061  -2.236   1.940  0.00  0.00    +0.046 A 
ATOM     14  C   UNL     1       5.238  -2.490   2.616  0.00  0.00    +0.004 A 
ATOM     15  C   UNL     1       5.923  -1.456   3.228  0.00  0.00    +0.000 A 
ATOM     16  C   UNL     1       5.431  -0.165   3.164  0.00  0.00    +0.004 A 
ATOM     17  C   UNL     1       4.257   0.095   2.484  0.00  0.00    +0.046 A 
ENDBRANCH  11  12
ENDBRANCH  10  11
ENDBRANCH   2   5
BRANCH   3  18
ATOM     18  C   UNL     1      -0.119  -0.826  -2.485  0.00  0.00    +0.214 C 
BRANCH  18  19
ATOM     19  N   UNL     1      -0.237  -2.055  -3.272  0.00  0.00    -0.215 N 
ATOM     20  C   UNL     1       0.816  -2.779  -3.713  0.00  0.00    +0.251 C 
ATOM     21  O   UNL     1       1.993  -2.546  -3.541  0.00  0.00    -0.272 OA
ATOM     22  C   UNL     1       0.213  -3.937  -4.464  0.00  0.00    +0.138 C 
ATOM     23  C   UNL     1       0.673  -3.951  -5.928  0.00  0.00    +0.045 C 
ATOM     24  C   UNL     1       0.712  -5.464  -6.242  0.00  0.00    +0.038 C 
ATOM     25  C   UNL     1       0.923  -6.143  -4.905  0.00  0.00    -0.042 A 
ATOM     26  C   UNL     1       0.632  -5.258  -3.879  0.00  0.00    -0.012 A 
ATOM     27  C   UNL     1       0.756  -5.670  -2.563  0.00  0.00    +0.006 A 
ATOM     28  C   UNL     1       1.168  -6.956  -2.270  0.00  0.00    +0.000 A 
ATOM     29  C   UNL     1       1.459  -7.837  -3.294  0.00  0.00    +0.000 A 
ATOM     30  C   UNL     1       1.336  -7.430  -4.608  0.00  0.00    +0.004 A 
ATOM     31  N   UNL     1      -1.232  -3.732  -4.362  0.00  0.00    -0.281 N 
ATOM     32  C   UNL     1      -1.401  -2.606  -3.639  0.00  0.00    +0.310 C 
ATOM     33  O   UNL     1      -2.488  -2.140  -3.357  0.00  0.00    -0.252 OA
ATOM     34  H   UNL     1      -1.928  -4.295  -4.735  0.00  0.00    +0.152 HD
ENDBRANCH  18  19
ENDBRANCH   3  18
TORSDOF 5
