REMARK  Name = ZINC45702433
REMARK  8 active torsions:
REMARK  status: ('A' for Active; 'I' for Inactive)
REMARK    1  A    between atoms: C_3  and  N_9
REMARK    2  A    between atoms: C_6  and  C_7
REMARK    3  A    between atoms: C_12  and  C_15
REMARK    4  A    between atoms: C_15  and  O_17
REMARK    5  A    between atoms: O_17  and  C_18
REMARK    6  A    between atoms: C_18  and  C_19
REMARK    7  A    between atoms: N_21  and  C_22
REMARK    8  A    between atoms: C_23  and  C_31
REMARK                            x       y       z     vdW  Elec       q    Type
REMARK                         _______ _______ _______ _____ _____    ______ ____
ROOT
ATOM      1  C   UNL     1       7.809   5.509  -3.450  0.00  0.00    +0.328 C 
ENDROOT
BRANCH   1   2
ATOM      2  C   UNL     1       8.011   7.002  -3.408  0.00  0.00    +0.255 C 
ATOM      3  O   UNL     1       7.502   7.658  -2.524  0.00  0.00    -0.272 OA
ATOM      4  N   UNL     1       8.757   7.607  -4.353  0.00  0.00    -0.277 N 
ATOM      5  H   UNL     1       9.164   7.082  -5.060  0.00  0.00    +0.155 HD
BRANCH   4   6
ATOM      6  C   UNL     1       8.942   8.981  -4.315  0.00  0.00    +0.084 A 
ATOM      7  C   UNL     1       9.666   9.768  -5.197  0.00  0.00    +0.068 A 
ATOM      8  C   UNL     1       9.707  11.196  -4.933  0.00  0.00    -0.023 A 
ATOM      9  C   UNL     1       9.016  11.575  -3.836  0.00  0.00    -0.004 A 
ATOM     10  S   UNL     1       8.336  10.074  -3.193  0.00  0.00    -0.077 S 
ATOM     11  C   UNL     1       8.869  12.966  -3.302  0.00  0.00    +0.043 C 
ATOM     12  C   UNL     1       9.929  13.854  -3.971  0.00  0.00    +0.005 C 
ATOM     13  C   UNL     1       9.901  13.606  -5.482  0.00  0.00    +0.005 C 
ATOM     14  C   UNL     1      10.447  12.211  -5.791  0.00  0.00    +0.037 C 
BRANCH   7  15
ATOM     15  C   UNL     1      10.362   9.184  -6.347  0.00  0.00    +0.244 C 
ATOM     16  O   UNL     1       9.787   9.075  -7.415  0.00  0.00    -0.270 OA
ATOM     17  N   UNL     1      11.638   8.767  -6.223  0.00  0.00    -0.325 N 
ATOM     18  H   UNL     1      12.096   8.854  -5.372  0.00  0.00    +0.145 HD
ATOM     19  H   UNL     1      12.098   8.381  -6.984  0.00  0.00    +0.145 HD
ENDBRANCH   7  15
ENDBRANCH   4   6
ENDBRANCH   1   2
BRANCH   1  20
ATOM     20  O   UNL     1       6.988   5.108  -2.351  0.00  0.00    -0.455 OA
BRANCH  20  21
ATOM     21  C   UNL     1       6.711   3.799  -2.242  0.00  0.00    +0.311 C 
ATOM     22  O   UNL     1       7.151   3.019  -3.054  0.00  0.00    -0.251 OA
BRANCH  21  26
ATOM     23  N   UNL     1       3.578   2.018  -0.022  0.00  0.00    -0.315 N 
ATOM     24  C   UNL     1       4.847   1.278  -0.044  0.00  0.00    +0.107 C 
ATOM     25  C   UNL     1       5.692   1.784  -1.217  0.00  0.00    +0.033 C 
ATOM     26  C   UNL     1       5.852   3.302  -1.109  0.00  0.00    +0.101 C 
ATOM     27  C   UNL     1       4.476   3.968  -1.182  0.00  0.00    +0.033 C 
ATOM     28  C   UNL     1       3.617   3.487  -0.015  0.00  0.00    +0.107 C 
BRANCH  23  31
ATOM     29  C   UNL     1      -0.004   1.379   0.238  0.00  0.00    +0.024 A 
ATOM     30  C   UNL     1       1.190   2.048   0.231  0.00  0.00    +0.045 A 
ATOM     31  C   UNL     1       2.367   1.344  -0.013  0.00  0.00    +0.121 A 
ATOM     32  N   UNL     1       2.345   0.037  -0.239  0.00  0.00    -0.239 NA
ATOM     33  C   UNL     1       1.219  -0.645  -0.241  0.00  0.00    +0.131 A 
ATOM     34  C   UNL     1       0.002  -0.004  -0.003  0.00  0.00    +0.070 A 
BRANCH  34  35
ATOM     35  C   UNL     1      -1.223  -0.746  -0.005  0.00  0.00    +0.101 C 
ATOM     36  N   UNL     1      -2.194  -1.335  -0.006  0.00  0.00    -0.191 NA
ENDBRANCH  34  35
ENDBRANCH  23  31
ENDBRANCH  21  26
ENDBRANCH  20  21
ENDBRANCH   1  20
TORSDOF 8
