REMARK  Name = ZINC39686117
REMARK  11 active torsions:
REMARK  status: ('A' for Active; 'I' for Inactive)
REMARK    1  A    between atoms: C_1  and  C_2
REMARK    2  A    between atoms: C_2  and  C_3
REMARK    3  A    between atoms: C_2  and  C_4
REMARK    4  A    between atoms: C_4  and  C_6
REMARK    5  A    between atoms: C_4  and  O_33
REMARK    6  A    between atoms: C_10  and  C_19
REMARK    7  A    between atoms: N_21  and  C_22
REMARK    8  A    between atoms: C_28  and  C_30
REMARK    9  A    between atoms: C_30  and  C_31
REMARK   10  A    between atoms: C_30  and  C_32
REMARK   11  A    between atoms: O_33  and  C_34
REMARK                            x       y       z     vdW  Elec       q    Type
REMARK                         _______ _______ _______ _____ _____    ______ ____
ROOT
ATOM      1  C   UNL     1      -2.716  -3.486   0.210  0.00  0.00    +0.257 C 
ATOM      2  O   UNL     1      -2.966  -4.366  -0.586  0.00  0.00    -0.272 OA
ATOM      3  N   UNL     1      -2.242  -3.798   1.433  0.00  0.00    -0.297 N 
ATOM      4  C   UNL     1      -1.993  -2.883   2.571  0.00  0.00    +0.121 C 
ATOM      5  C   UNL     1      -2.449  -3.676   3.817  0.00  0.00    +0.100 C 
ATOM      6  C   UNL     1      -2.353  -5.153   3.398  0.00  0.00    -0.004 C 
ATOM      7  C   UNL     1      -1.859  -5.136   1.944  0.00  0.00    +0.115 C 
ATOM      8  C   UNL     1      -1.356  -5.890   4.287  0.00  0.00    -0.010 C 
ATOM      9  C   UNL     1      -1.321  -7.369   3.890  0.00  0.00    -0.082 C 
ATOM     10  N   UNL     1      -2.661  -7.949   4.037  0.00  0.00    +0.379 N 
ATOM     11  C   UNL     1      -3.594  -7.296   3.111  0.00  0.00    -0.082 C 
ATOM     12  C   UNL     1      -3.725  -5.815   3.476  0.00  0.00    -0.010 C 
ATOM     13  H   UNL     1      -2.623  -8.937   3.833  0.00  0.00    -0.086 HD
ATOM     14  H   UNL     1      -2.981  -7.816   4.985  0.00  0.00    -0.086 HD
ENDROOT
BRANCH   5  15
ATOM     15  C   UNL     1      -1.533  -3.397   4.981  0.00  0.00    +0.218 C 
ATOM     16  O   UNL     1      -0.387  -3.055   4.782  0.00  0.00    -0.275 OA
ATOM     17  N   UNL     1      -1.988  -3.529   6.243  0.00  0.00    -0.312 N 
ATOM     18  H   UNL     1      -2.905  -3.803   6.402  0.00  0.00    +0.149 HD
BRANCH  17  19
ATOM     19  C   UNL     1      -1.098  -3.258   7.374  0.00  0.00    +0.076 C 
ATOM     20  C   UNL     1      -0.281  -4.512   7.692  0.00  0.00    +0.041 C 
ATOM     21  C   UNL     1       0.673  -4.215   8.853  0.00  0.00    +0.109 C 
ATOM     22  N   UNL     1      -0.107  -3.699   9.986  0.00  0.00    -0.301 N 
ATOM     23  C   UNL     1      -0.996  -2.550   9.767  0.00  0.00    +0.109 C 
ATOM     24  C   UNL     1      -1.931  -2.866   8.596  0.00  0.00    +0.041 C 
ATOM     25  C   UNL     1      -0.009  -4.270  11.203  0.00  0.00    +0.218 C 
ATOM     26  O   UNL     1       0.801  -5.152  11.396  0.00  0.00    -0.275 OA
BRANCH  25  27
ATOM     27  C   UNL     1      -0.907  -3.812  12.324  0.00  0.00    +0.069 C 
ATOM     28  C   UNL     1      -0.724  -4.734  13.532  0.00  0.00    +0.017 C 
ATOM     29  C   UNL     1      -0.542  -2.379  12.716  0.00  0.00    +0.017 C 
ENDBRANCH  25  27
ENDBRANCH  17  19
ENDBRANCH   5  15
BRANCH   1  30
ATOM     30  C   UNL     1      -2.936  -2.044  -0.167  0.00  0.00    +0.261 C 
BRANCH  30  32
ATOM     31  C   UNL     1      -1.825   0.044  -0.973  0.00  0.00    +0.011 C 
ATOM     32  C   UNL     1      -1.621  -1.441  -0.666  0.00  0.00    +0.033 C 
ATOM     33  C   UNL     1      -0.547  -1.596   0.412  0.00  0.00    +0.011 C 
ENDBRANCH  30  32
BRANCH  30  34
ATOM     34  O   UNL     1      -3.919  -1.966  -1.201  0.00  0.00    -0.479 OA
BRANCH  34  35
ATOM     35  C   UNL     1      -4.811  -0.944  -1.129  0.00  0.00    +0.122 A 
ATOM     36  C   UNL     1      -5.861  -0.873  -2.033  0.00  0.00    +0.045 A 
ATOM     37  C   UNL     1      -6.767   0.167  -1.958  0.00  0.00    +0.004 A 
ATOM     38  C   UNL     1      -6.627   1.138  -0.983  0.00  0.00    +0.000 A 
ATOM     39  C   UNL     1      -5.582   1.070  -0.081  0.00  0.00    +0.004 A 
ATOM     40  C   UNL     1      -4.676   0.028  -0.148  0.00  0.00    +0.045 A 
ENDBRANCH  34  35
ENDBRANCH  30  34
ENDBRANCH   1  30
TORSDOF 7
