REMARK  Name = ZINC05883866
REMARK  11 active torsions:
REMARK  status: ('A' for Active; 'I' for Inactive)
REMARK    1  A    between atoms: C_1  and  C_2
REMARK    2  A    between atoms: C_2  and  C_3
REMARK    3  A    between atoms: C_3  and  O_4
REMARK    4  A    between atoms: O_4  and  C_5
REMARK    5  A    between atoms: C_8  and  C_11
REMARK    6  A    between atoms: C_14  and  C_25
REMARK    7  A    between atoms: C_20  and  N_24
REMARK    8  A    between atoms: C_21  and  C_22
REMARK    9  A    between atoms: C_28  and  O_31
REMARK   10  A    between atoms: O_31  and  C_32
REMARK   11  A    between atoms: C_32  and  C_33
REMARK                            x       y       z     vdW  Elec       q    Type
REMARK                         _______ _______ _______ _____ _____    ______ ____
ROOT
ATOM      1  C   UNL     1      -6.528  -4.594   0.031  0.00  0.00    +0.102 C 
ATOM      2  C   UNL     1      -6.511  -5.559   1.187  0.00  0.00    +0.054 A 
ATOM      3  C   UNL     1      -6.570  -5.297   2.559  0.00  0.00    +0.100 A 
ATOM      4  N   UNL     1      -6.524  -6.452   3.196  0.00  0.00    -0.171 NA
ATOM      5  N   UNL     1      -6.434  -7.479   2.243  0.00  0.00    -0.246 N 
ATOM      6  H   UNL     1      -6.386  -8.429   2.431  0.00  0.00    +0.192 HD
ATOM      7  C   UNL     1      -6.428  -6.911   1.019  0.00  0.00    +0.223 A 
ATOM      8  O   UNL     1      -6.358  -7.493  -0.205  0.00  0.00    -0.423 OA
ATOM      9  C   UNL     1      -6.646  -6.729  -1.278  0.00  0.00    +0.200 C 
ATOM     10  C   UNL     1      -6.743  -5.381  -1.238  0.00  0.00    +0.098 C 
ENDROOT
BRANCH   1  14
ATOM     11  C   UNL     1      -2.796  -2.522  -0.173  0.00  0.00    +0.121 A 
ATOM     12  C   UNL     1      -3.983  -1.809  -0.079  0.00  0.00    +0.046 A 
ATOM     13  C   UNL     1      -5.188  -2.481  -0.014  0.00  0.00    +0.008 A 
ATOM     14  C   UNL     1      -5.212  -3.863  -0.041  0.00  0.00    -0.034 A 
ATOM     15  C   UNL     1      -4.031  -4.576  -0.135  0.00  0.00    +0.008 A 
ATOM     16  C   UNL     1      -2.824  -3.908  -0.206  0.00  0.00    +0.046 A 
BRANCH  11  17
ATOM     17  O   UNL     1      -1.609  -1.863  -0.238  0.00  0.00    -0.492 OA
BRANCH  17  18
ATOM     18  C   UNL     1      -1.657  -0.435  -0.199  0.00  0.00    +0.229 C 
BRANCH  18  20
ATOM     19  C   UNL     1      -0.287   1.654  -0.240  0.00  0.00    +0.007 C 
ATOM     20  C   UNL     1      -0.236   0.125  -0.282  0.00  0.00    +0.038 C 
ENDBRANCH  18  20
ENDBRANCH  17  18
ENDBRANCH  11  17
ENDBRANCH   1  14
BRANCH   3  21
ATOM     21  C   UNL     1      -6.668  -3.957   3.189  0.00  0.00    +0.003 A 
ATOM     22  C   UNL     1      -7.520  -2.994   2.652  0.00  0.00    +0.013 A 
ATOM     23  C   UNL     1      -7.608  -1.749   3.240  0.00  0.00    +0.046 A 
ATOM     24  C   UNL     1      -6.849  -1.455   4.364  0.00  0.00    +0.121 A 
ATOM     25  C   UNL     1      -5.999  -2.412   4.901  0.00  0.00    +0.046 A 
ATOM     26  C   UNL     1      -5.911  -3.661   4.321  0.00  0.00    +0.013 A 
BRANCH  24  27
ATOM     27  O   UNL     1      -6.938  -0.228   4.940  0.00  0.00    -0.492 OA
BRANCH  27  28
ATOM     28  C   UNL     1      -6.130   0.007   6.095  0.00  0.00    +0.225 C 
ATOM     29  C   UNL     1      -6.363   1.433   6.600  0.00  0.00    +0.048 C 
ENDBRANCH  27  28
ENDBRANCH  24  27
ENDBRANCH   3  21
BRANCH   9  30
ATOM     30  N   UNL     1      -6.854  -7.357  -2.481  0.00  0.00    -0.328 N 
ATOM     31  H   UNL     1      -6.792  -8.323  -2.541  0.00  0.00    +0.145 HD
ATOM     32  H   UNL     1      -7.063  -6.834  -3.271  0.00  0.00    +0.145 HD
ENDBRANCH   9  30
BRANCH  10  33
ATOM     33  C   UNL     1      -7.061  -4.675  -2.442  0.00  0.00    +0.101 C 
ATOM     34  N   UNL     1      -7.313  -4.115  -3.398  0.00  0.00    -0.191 NA
ENDBRANCH  10  33
TORSDOF 9
