REMARK  Name = ZINC27136727
REMARK  10 active torsions:
REMARK  status: ('A' for Active; 'I' for Inactive)
REMARK    1  A    between atoms: C_1  and  C_2
REMARK    2  A    between atoms: C_2  and  C_4
REMARK    3  A    between atoms: C_2  and  N_19
REMARK    4  A    between atoms: N_6  and  C_7
REMARK    5  A    between atoms: C_10  and  C_16
REMARK    6  A    between atoms: C_12  and  C_13
REMARK    7  A    between atoms: C_13  and  C_14
REMARK    8  A    between atoms: C_13  and  C_15
REMARK    9  A    between atoms: C_16  and  C_17
REMARK   10  A    between atoms: C_16  and  C_18
REMARK                            x       y       z     vdW  Elec       q    Type
REMARK                         _______ _______ _______ _____ _____    ______ ____
ROOT
ATOM      1  C   UNL     1      -1.259  -0.927   0.437  0.00  0.00    +0.237 C 
ATOM      2  O   UNL     1      -1.516  -1.994  -0.081  0.00  0.00    -0.273 OA
ATOM      3  N   UNL     1      -2.237  -0.215   1.032  0.00  0.00    -0.284 N 
ATOM      4  H   UNL     1      -2.019   0.598   1.515  0.00  0.00    +0.155 HD
ENDROOT
BRANCH   3   5
ATOM      5  C   UNL     1      -3.565  -0.647   0.952  0.00  0.00    +0.037 A 
ATOM      6  C   UNL     1      -3.973  -1.454  -0.103  0.00  0.00    +0.024 A 
ATOM      7  C   UNL     1      -5.284  -1.879  -0.178  0.00  0.00    +0.006 A 
ATOM      8  C   UNL     1      -6.192  -1.502   0.795  0.00  0.00    -0.044 A 
ATOM      9  C   UNL     1      -5.790  -0.699   1.846  0.00  0.00    +0.009 A 
ATOM     10  C   UNL     1      -4.478  -0.276   1.931  0.00  0.00    -0.023 A 
BRANCH  10  11
ATOM     11  C   UNL     1      -4.038   0.594   3.081  0.00  0.00    +0.015 C 
ATOM     12  C   UNL     1      -4.932   1.833   3.154  0.00  0.00    +0.012 C 
ATOM     13  C   UNL     1      -4.151  -0.194   4.388  0.00  0.00    +0.012 C 
ENDBRANCH  10  11
BRANCH   8  14
ATOM     14  C   UNL     1      -7.623  -1.967   0.709  0.00  0.00    +0.013 C 
ATOM     15  C   UNL     1      -8.246  -1.463  -0.595  0.00  0.00    +0.012 C 
ATOM     16  C   UNL     1      -7.664  -3.496   0.735  0.00  0.00    +0.012 C 
ENDBRANCH   8  14
ENDBRANCH   3   5
BRANCH   1  18
ATOM     17  C   UNL     1       0.182   0.947  -0.310  0.00  0.00    +0.038 C 
ATOM     18  C   UNL     1       0.152  -0.399   0.416  0.00  0.00    +0.155 C 
BRANCH  18  19
ATOM     19  N   UNL     1       1.019  -1.351  -0.283  0.00  0.00    -0.316 N 
ATOM     20  C   UNL     1       2.369  -1.382  -0.009  0.00  0.00    +0.150 C 
ATOM     21  N   UNL     1       2.878  -0.578   0.869  0.00  0.00    -0.113 NA
ATOM     22  S   UNL     1       4.515  -0.923   0.910  0.00  0.00    +0.101 S 
ATOM     23  O   UNL     1       5.208   0.200   0.384  0.00  0.00    -0.146 OA
ATOM     24  O   UNL     1       4.804  -1.499   2.177  0.00  0.00    -0.146 OA
ATOM     25  C   UNL     1       4.584  -2.216  -0.300  0.00  0.00    +0.123 A 
ATOM     26  C   UNL     1       3.247  -2.334  -0.706  0.00  0.00    +0.043 A 
ATOM     27  C   UNL     1       2.953  -3.300  -1.681  0.00  0.00    +0.013 A 
ATOM     28  C   UNL     1       3.953  -4.092  -2.199  0.00  0.00    +0.001 A 
ATOM     29  C   UNL     1       5.262  -3.954  -1.775  0.00  0.00    +0.002 A 
ATOM     30  C   UNL     1       5.574  -2.998  -0.819  0.00  0.00    +0.030 A 
ATOM     31  H   UNL     1       0.643  -1.959  -0.939  0.00  0.00    +0.148 HD
ENDBRANCH  18  19
ENDBRANCH   1  18
TORSDOF 5
