REMARK  Name = ZINC08820435
REMARK  13 active torsions:
REMARK  status: ('A' for Active; 'I' for Inactive)
REMARK    1  A    between atoms: C_1  and  N_62
REMARK    2  A    between atoms: C_2  and  N_62
REMARK    3  A    between atoms: C_3  and  C_4
REMARK    4  A    between atoms: C_3  and  N_62
REMARK    5  A    between atoms: C_4  and  O_5
REMARK    6  A    between atoms: O_5  and  C_6
REMARK    7  A    between atoms: C_6  and  C_8
REMARK    8  A    between atoms: C_11  and  N_14
REMARK    9  A    between atoms: C_15  and  C_17
REMARK   10  A    between atoms: C_17  and  C_18
REMARK   11  A    between atoms: C_18  and  N_19
REMARK   12  A    between atoms: C_23  and  C_24
REMARK   13  A    between atoms: C_25  and  C_26
REMARK                            x       y       z     vdW  Elec       q    Type
REMARK                         _______ _______ _______ _____ _____    ______ ____
ROOT
ATOM      1  N   UNL     1      -4.936   3.964   0.049  0.00  0.00    -0.285 N 
ATOM      2  C   UNL     1      -4.956   5.307   0.159  0.00  0.00    +0.219 C 
ATOM      3  O   UNL     1      -3.917   5.931   0.157  0.00  0.00    -0.275 OA
ATOM      4  H   UNL     1      -5.769   3.471  -0.027  0.00  0.00    +0.155 HD
ENDROOT
BRANCH   1   8
ATOM      5  C   UNL     1      -1.302   1.930   0.035  0.00  0.00    +0.059 A 
ATOM      6  C   UNL     1      -2.374   1.454  -0.726  0.00  0.00    +0.017 A 
ATOM      7  C   UNL     1      -3.575   2.126  -0.714  0.00  0.00    +0.024 A 
ATOM      8  C   UNL     1      -3.720   3.283   0.044  0.00  0.00    +0.033 A 
ATOM      9  C   UNL     1      -2.653   3.763   0.798  0.00  0.00    +0.024 A 
ATOM     10  C   UNL     1      -1.451   3.093   0.796  0.00  0.00    +0.017 A 
BRANCH   5  11
ATOM     11  C   UNL     1      -0.015   1.210   0.029  0.00  0.00    +0.339 C 
ATOM     12  O   UNL     1       0.918   1.628   0.686  0.00  0.00    -0.245 OA
BRANCH  11  13
ATOM     13  O   UNL     1       0.125   0.086  -0.701  0.00  0.00    -0.463 OA
BRANCH  13  14
ATOM     14  C   UNL     1       1.418  -0.574  -0.654  0.00  0.00    +0.214 C 
BRANCH  14  15
ATOM     15  C   UNL     1       1.386  -1.822  -1.538  0.00  0.00    -0.038 C 
BRANCH  15  18
ATOM     16  C   UNL     1       2.369  -0.677  -3.433  0.00  0.00    -0.096 C 
ATOM     17  C   UNL     1       0.931  -2.593  -3.788  0.00  0.00    -0.096 C 
ATOM     18  N   UNL     1       1.180  -1.407  -2.942  0.00  0.00    +0.378 N 
ATOM     19  H   UNL     1       0.364  -0.785  -2.990  0.00  0.00    -0.082 HD
ENDBRANCH  15  18
ENDBRANCH  14  15
ENDBRANCH  13  14
ENDBRANCH  11  13
ENDBRANCH   5  11
ENDBRANCH   1   8
BRANCH   2  20
ATOM     20  C   UNL     1      -6.271   6.034   0.283  0.00  0.00    +0.115 C 
BRANCH  20  21
ATOM     21  C   UNL     1      -6.014   7.538   0.392  0.00  0.00    +0.124 C 
BRANCH  21  22
ATOM     22  N   UNL     1      -7.292   8.244   0.513  0.00  0.00    -0.255 N 
ATOM     23  C   UNL     1      -7.911   8.653  -0.582  0.00  0.00    +0.258 C 
ATOM     24  O   UNL     1      -7.446   8.457  -1.690  0.00  0.00    -0.269 OA
ATOM     25  C   UNL     1      -9.195   9.354  -0.393  0.00  0.00    +0.077 C 
ATOM     26  C   UNL     1     -10.045   9.877  -1.324  0.00  0.00    +0.020 C 
ATOM     27  S   UNL     1      -9.329   9.335   1.389  0.00  0.00    -0.061 S 
ATOM     28  C   UNL     1      -7.808   8.468   1.739  0.00  0.00    +0.121 C 
ATOM     29  S   UNL     1      -7.161   8.027   3.262  0.00  0.00    -0.027 S 
BRANCH  26  30
ATOM     30  C   UNL     1     -11.231  10.517  -0.914  0.00  0.00    +0.002 C 
ATOM     31  C   UNL     1     -12.075  11.035  -1.837  0.00  0.00    +0.008 C 
BRANCH  31  32
ATOM     32  C   UNL     1     -13.312  11.703  -1.409  0.00  0.00    -0.025 A 
ATOM     33  C   UNL     1     -13.625  11.800  -0.049  0.00  0.00    +0.008 A 
ATOM     34  C   UNL     1     -14.785  12.433   0.344  0.00  0.00    +0.001 A 
ATOM     35  C   UNL     1     -15.645  12.961  -0.603  0.00  0.00    +0.000 A 
ATOM     36  C   UNL     1     -15.346  12.865  -1.951  0.00  0.00    +0.001 A 
ATOM     37  C   UNL     1     -14.187  12.241  -2.361  0.00  0.00    +0.008 A 
ENDBRANCH  31  32
ENDBRANCH  26  30
ENDBRANCH  21  22
ENDBRANCH  20  21
ENDBRANCH   2  20
TORSDOF 11
