REMARK  Name = ZINC30552200
REMARK  8 active torsions:
REMARK  status: ('A' for Active; 'I' for Inactive)
REMARK    1  A    between atoms: C_1  and  C_2
REMARK    2  A    between atoms: N_4  and  C_5
REMARK    3  A    between atoms: C_14  and  C_17
REMARK    4  A    between atoms: C_18  and  C_19
REMARK    5  A    between atoms: N_21  and  C_22
REMARK    6  A    between atoms: C_22  and  C_23
REMARK    7  A    between atoms: C_28  and  C_29
REMARK    8  A    between atoms: C_29  and  N_30
REMARK                            x       y       z     vdW  Elec       q    Type
REMARK                         _______ _______ _______ _____ _____    ______ ____
ROOT
ATOM      1  C   UNL     1       2.910   2.404   5.401  0.00  0.00    +0.237 C 
ATOM      2  O   UNL     1       2.193   3.285   4.964  0.00  0.00    -0.271 OA
ATOM      3  N   UNL     1       3.739   1.737   4.573  0.00  0.00    -0.308 N 
ATOM      4  H   UNL     1       4.388   0.941   4.968  0.00  0.00    +0.149 HD
ENDROOT
BRANCH   1   6
ATOM      5  C   UNL     1       2.042   2.748   7.610  0.00  0.00    +0.033 C 
ATOM      6  C   UNL     1       2.874   2.079   6.779  0.00  0.00    +0.069 C 
BRANCH   5  13
ATOM      7  C   UNL     1       5.179  -1.642  11.555  0.00  0.00    +0.110 C 
ATOM      8  C   UNL     1       4.382  -0.597  10.818  0.00  0.00    +0.223 C 
ATOM      9  O   UNL     1       4.536  -0.447   9.625  0.00  0.00    -0.275 OA
ATOM     10  N   UNL     1       3.498   0.171  11.486  0.00  0.00    -0.216 N 
ATOM     11  C   UNL     1       2.763   1.135  10.806  0.00  0.00    +0.172 A 
ATOM     12  N   UNL     1       2.781   1.445   9.526  0.00  0.00    -0.225 NA
ATOM     13  C   UNL     1       2.004   2.412   9.037  0.00  0.00    +0.073 A 
ATOM     14  C   UNL     1       1.162   3.086   9.892  0.00  0.00    +0.076 A 
ATOM     15  S   UNL     1       1.540   2.274  11.440  0.00  0.00    -0.059 S 
BRANCH  10  16
ATOM     16  C   UNL     1       3.321  -0.002  12.866  0.00  0.00    +0.078 A 
ATOM     17  C   UNL     1       2.370  -0.896  13.338  0.00  0.00    +0.027 A 
ATOM     18  C   UNL     1       2.197  -1.065  14.698  0.00  0.00    +0.002 A 
ATOM     19  C   UNL     1       2.971  -0.346  15.590  0.00  0.00    +0.003 A 
ATOM     20  C   UNL     1       3.919   0.546  15.125  0.00  0.00    +0.040 A 
ATOM     21  C   UNL     1       4.101   0.717  13.764  0.00  0.00    +0.145 A 
ATOM     22  F   UNL     1       5.032   1.584  13.310  0.00  0.00    -0.204 F 
ENDBRANCH  10  16
ENDBRANCH   5  13
ENDBRANCH   1   6
BRANCH   3  23
ATOM     23  C   UNL     1       3.777   2.073   3.148  0.00  0.00    +0.140 C 
BRANCH  23  24
ATOM     24  C   UNL     1       4.778   1.188   2.450  0.00  0.00    -0.029 A 
ATOM     25  C   UNL     1       6.041   1.669   2.159  0.00  0.00    +0.005 A 
ATOM     26  C   UNL     1       6.959   0.858   1.519  0.00  0.00    +0.000 A 
ATOM     27  C   UNL     1       6.614  -0.434   1.170  0.00  0.00    +0.000 A 
ATOM     28  C   UNL     1       5.353  -0.917   1.465  0.00  0.00    +0.002 A 
ATOM     29  C   UNL     1       4.433  -0.104   2.101  0.00  0.00    -0.059 A 
BRANCH  29  30
ATOM     30  C   UNL     1       3.057  -0.628   2.418  0.00  0.00    -0.043 C 
BRANCH  30  31
ATOM     31  N   UNL     1       2.983  -0.981   3.842  0.00  0.00    +0.382 N 
ATOM     32  C   UNL     1       1.589  -1.141   4.274  0.00  0.00    -0.078 C 
ATOM     33  C   UNL     1       1.544  -1.364   5.787  0.00  0.00    -0.019 C 
ATOM     34  C   UNL     1       2.354  -2.616   6.138  0.00  0.00    -0.004 C 
ATOM     35  C   UNL     1       3.789  -2.443   5.635  0.00  0.00    -0.019 C 
ATOM     36  C   UNL     1       3.769  -2.189   4.126  0.00  0.00    -0.078 C 
ATOM     37  H   UNL     1       3.421  -0.154   4.420  0.00  0.00    -0.081 HD
ENDBRANCH  30  31
ENDBRANCH  29  30
ENDBRANCH  23  24
ENDBRANCH   3  23
TORSDOF 7
