REMARK  Name = ZINC09337613
REMARK  1 active torsions:
REMARK  status: ('A' for Active; 'I' for Inactive)
REMARK    1  A    between atoms: C_8  and  C_11
REMARK                            x       y       z     vdW  Elec       q    Type
REMARK                         _______ _______ _______ _____ _____    ______ ____
ROOT
ATOM      1  C   UNL     1      -4.962   1.044  -0.213  0.00  0.00    +0.189 C 
ATOM      2  N   UNL     1      -4.762  -0.407  -0.120  0.00  0.00    -0.322 N 
ATOM      3  C   UNL     1      -4.389  -0.949   1.104  0.00  0.00    +0.041 A 
ATOM      4  C   UNL     1      -3.618  -2.095   1.194  0.00  0.00    +0.024 A 
ATOM      5  C   UNL     1      -3.271  -2.590   2.437  0.00  0.00    +0.002 A 
ATOM      6  C   UNL     1      -3.687  -1.948   3.592  0.00  0.00    +0.001 A 
ATOM      7  C   UNL     1      -4.457  -0.805   3.520  0.00  0.00    +0.015 A 
ATOM      8  C   UNL     1      -4.815  -0.296   2.274  0.00  0.00    +0.058 A 
ATOM      9  C   UNL     1      -5.637   0.920   2.139  0.00  0.00    +0.247 C 
ATOM     10  O   UNL     1      -6.229   1.372   3.101  0.00  0.00    -0.270 OA
ATOM     11  N   UNL     1      -5.727   1.525   0.937  0.00  0.00    -0.289 N 
ATOM     12  H   UNL     1      -4.889  -0.976  -0.896  0.00  0.00    +0.148 HD
ATOM     13  H   UNL     1      -6.310   2.294   0.834  0.00  0.00    +0.151 HD
ENDROOT
BRANCH   1  21
ATOM     14  C   UNL     1       1.172   1.787   0.001  0.00  0.00    +0.001 A 
ATOM     15  C   UNL     1       1.155   3.171   0.010  0.00  0.00    +0.004 A 
ATOM     16  C   UNL     1      -0.044   3.858   0.035  0.00  0.00    +0.046 A 
ATOM     17  C   UNL     1      -1.238   3.160   0.046  0.00  0.00    +0.128 A 
ATOM     18  C   UNL     1      -1.223   1.758   0.017  0.00  0.00    +0.017 A 
ATOM     19  C   UNL     1      -0.013   1.076   0.008  0.00  0.00    +0.011 A 
ATOM     20  C   UNL     1      -2.516   1.042   0.028  0.00  0.00    +0.017 C 
ATOM     21  C   UNL     1      -3.620   1.731  -0.242  0.00  0.00    +0.006 C 
ATOM     22  C   UNL     1      -3.534   3.197  -0.579  0.00  0.00    +0.263 C 
ATOM     23  O   UNL     1      -2.432   3.805   0.093  0.00  0.00    -0.487 OA
ENDBRANCH   1  21
TORSDOF 1
