REMARK  Name = ZINC04993886
REMARK  10 active torsions:
REMARK  status: ('A' for Active; 'I' for Inactive)
REMARK    1  A    between atoms: C_1  and  C_2
REMARK    2  A    between atoms: C_3  and  C_22
REMARK    3  A    between atoms: C_4  and  C_10
REMARK    4  A    between atoms: C_13  and  O_18
REMARK    5  A    between atoms: C_14  and  O_16
REMARK    6  A    between atoms: O_16  and  C_17
REMARK    7  A    between atoms: O_18  and  C_19
REMARK    8  A    between atoms: C_19  and  C_20
REMARK    9  A    between atoms: N_24  and  C_25
REMARK   10  A    between atoms: C_25  and  C_26
REMARK                            x       y       z     vdW  Elec       q    Type
REMARK                         _______ _______ _______ _____ _____    ______ ____
ROOT
ATOM      1  C   UNL     1      -0.260  -4.803   2.426  0.00  0.00    +0.061 C 
ATOM      2  C   UNL     1      -0.151  -3.649   3.389  0.00  0.00    +0.017 C 
ATOM      3  C   UNL     1      -0.162  -2.385   2.914  0.00  0.00    +0.055 C 
ATOM      4  C   UNL     1      -0.057  -1.254   3.917  0.00  0.00    +0.139 C 
ATOM      5  N   UNL     1       0.055  -1.629   5.336  0.00  0.00    -0.315 N 
ATOM      6  C   UNL     1       0.058  -2.939   5.655  0.00  0.00    +0.135 C 
ATOM      7  S   UNL     1       0.188  -3.390   7.302  0.00  0.00    -0.019 S 
ATOM      8  N   UNL     1      -0.038  -3.898   4.726  0.00  0.00    -0.300 N 
ATOM      9  H   UNL     1       0.125  -0.950   6.025  0.00  0.00    +0.149 HD
ATOM     10  H   UNL     1      -0.030  -4.823   5.021  0.00  0.00    +0.154 HD
ENDROOT
BRANCH   4  11
ATOM     11  C   UNL     1      -1.276  -0.382   3.762  0.00  0.00    -0.019 A 
ATOM     12  C   UNL     1      -2.504  -0.825   4.217  0.00  0.00    +0.009 A 
ATOM     13  C   UNL     1      -3.624  -0.026   4.083  0.00  0.00    +0.050 A 
ATOM     14  C   UNL     1      -3.520   1.217   3.480  0.00  0.00    +0.162 A 
ATOM     15  C   UNL     1      -2.285   1.661   3.017  0.00  0.00    +0.162 A 
ATOM     16  C   UNL     1      -1.165   0.858   3.160  0.00  0.00    +0.055 A 
BRANCH  15  17
ATOM     17  O   UNL     1      -2.178   2.881   2.424  0.00  0.00    -0.491 OA
ATOM     18  C   UNL     1      -0.904   3.225   1.874  0.00  0.00    +0.277 C 
ENDBRANCH  15  17
BRANCH  14  19
ATOM     19  O   UNL     1      -4.622   2.002   3.341  0.00  0.00    -0.484 OA
BRANCH  19  20
ATOM     20  C   UNL     1      -5.856   1.482   3.841  0.00  0.00    +0.256 C 
BRANCH  20  21
ATOM     21  C   UNL     1      -6.957   2.483   3.601  0.00  0.00    +0.006 C 
ATOM     22  C   UNL     1      -8.111   2.086   3.124  0.00  0.00    +0.007 C 
ENDBRANCH  20  21
ENDBRANCH  19  20
ENDBRANCH  14  19
ENDBRANCH   4  11
BRANCH   3  23
ATOM     23  C   UNL     1      -0.274  -2.126   1.526  0.00  0.00    +0.244 C 
ATOM     24  O   UNL     1       0.716  -1.839   0.878  0.00  0.00    -0.270 OA
ATOM     25  N   UNL     1      -1.477  -2.196   0.922  0.00  0.00    -0.307 N 
ATOM     26  H   UNL     1      -2.276  -2.350   1.450  0.00  0.00    +0.149 HD
BRANCH  25  27
ATOM     27  C   UNL     1      -1.578  -2.039  -0.531  0.00  0.00    +0.139 C 
BRANCH  27  28
ATOM     28  C   UNL     1      -3.029  -2.042  -0.938  0.00  0.00    -0.030 A 
ATOM     29  C   UNL     1      -3.627  -3.216  -1.355  0.00  0.00    +0.005 A 
ATOM     30  C   UNL     1      -4.960  -3.220  -1.723  0.00  0.00    +0.000 A 
ATOM     31  C   UNL     1      -5.691  -2.047  -1.684  0.00  0.00    +0.000 A 
ATOM     32  C   UNL     1      -5.091  -0.872  -1.272  0.00  0.00    +0.000 A 
ATOM     33  C   UNL     1      -3.760  -0.869  -0.899  0.00  0.00    +0.005 A 
ENDBRANCH  27  28
ENDBRANCH  25  27
ENDBRANCH   3  23
TORSDOF 8
