REMARK  Name = ZINC35474822
REMARK  5 active torsions:
REMARK  status: ('A' for Active; 'I' for Inactive)
REMARK    1  A    between atoms: C_1  and  N_2
REMARK    2  A    between atoms: C_8  and  C_15
REMARK    3  A    between atoms: N_13  and  C_14
REMARK    4  A    between atoms: C_18  and  O_21
REMARK    5  A    between atoms: O_21  and  C_22
REMARK                            x       y       z     vdW  Elec       q    Type
REMARK                         _______ _______ _______ _____ _____    ______ ____
ROOT
ATOM      1  C   UNL     1      -0.018   1.461   0.010  0.00  0.00    +0.132 C 
ATOM      2  N   UNL     1       0.002  -0.004   0.002  0.00  0.00    -0.295 N 
ATOM      3  C   UNL     1      -1.170  -0.892   0.003  0.00  0.00    +0.159 C 
ATOM      4  C   UNL     1      -0.597  -2.292  -0.009  0.00  0.00    +0.042 C 
ATOM      5  C   UNL     1       0.744  -2.153  -0.014  0.00  0.00    +0.058 C 
ATOM      6  C   UNL     1       1.096  -0.787  -0.013  0.00  0.00    +0.246 C 
ATOM      7  O   UNL     1       2.240  -0.371  -0.022  0.00  0.00    -0.270 OA
ATOM      8  C   UNL     1       1.584  -3.414  -0.026  0.00  0.00    +0.142 C 
ATOM      9  N   UNL     1       0.859  -4.697  -0.029  0.00  0.00    -0.288 N 
ATOM     10  C   UNL     1      -0.488  -4.673  -0.022  0.00  0.00    +0.307 C 
ATOM     11  O   UNL     1      -1.095  -5.726  -0.025  0.00  0.00    -0.252 OA
ATOM     12  N   UNL     1      -1.180  -3.527  -0.013  0.00  0.00    -0.260 N 
ATOM     13  C   UNL     1      -2.643  -3.601  -0.005  0.00  0.00    +0.139 C 
ATOM     14  H   UNL     1       1.341  -5.539  -0.037  0.00  0.00    +0.151 HD
ENDROOT
BRANCH   8  15
ATOM     15  C   UNL     1       2.465  -3.376  -1.248  0.00  0.00    -0.022 A 
ATOM     16  C   UNL     1       1.947  -3.720  -2.483  0.00  0.00    +0.009 A 
ATOM     17  C   UNL     1       2.753  -3.686  -3.604  0.00  0.00    +0.046 A 
ATOM     18  C   UNL     1       4.082  -3.305  -3.491  0.00  0.00    +0.120 A 
ATOM     19  C   UNL     1       4.599  -2.959  -2.250  0.00  0.00    +0.046 A 
ATOM     20  C   UNL     1       3.788  -2.990  -1.133  0.00  0.00    +0.009 A 
BRANCH  18  21
ATOM     21  O   UNL     1       4.877  -3.271  -4.593  0.00  0.00    -0.495 OA
ATOM     22  C   UNL     1       6.235  -2.869  -4.401  0.00  0.00    +0.277 C 
ENDBRANCH  18  21
ENDBRANCH   8  15
TORSDOF 2
