REMARK  Name = ZINC38122716
REMARK  6 active torsions:
REMARK  status: ('A' for Active; 'I' for Inactive)
REMARK    1  A    between atoms: C_1  and  C_2
REMARK    2  A    between atoms: C_2  and  C_3
REMARK    3  A    between atoms: C_2  and  C_5
REMARK    4  A    between atoms: C_2  and  N_15
REMARK    5  A    between atoms: C_3  and  O_4
REMARK    6  A    between atoms: N_15  and  C_16
REMARK                            x       y       z     vdW  Elec       q    Type
REMARK                         _______ _______ _______ _____ _____    ______ ____
ROOT
ATOM      1  C   UNL     1      -0.172   1.413  -0.070  0.00  0.00    +0.000 C 
ATOM      2  C   UNL     1      -0.054  -0.111  -0.009  0.00  0.00    +0.012 C 
ENDROOT
BRANCH   2   3
ATOM      3  C   UNL     1       0.759  -0.600  -1.180  0.00  0.00    +0.097 A 
ATOM      4  C   UNL     1       2.029  -0.253  -1.431  0.00  0.00    +0.052 A 
ATOM      5  C   UNL     1       2.411  -0.960  -2.659  0.00  0.00    +0.021 A 
ATOM      6  C   UNL     1       3.573  -1.021  -3.427  0.00  0.00    +0.027 A 
ATOM      7  C   UNL     1       3.601  -1.806  -4.559  0.00  0.00    +0.019 A 
ATOM      8  C   UNL     1       2.479  -2.532  -4.934  0.00  0.00    +0.019 A 
ATOM      9  C   UNL     1       1.324  -2.480  -4.184  0.00  0.00    +0.048 A 
ATOM     10  C   UNL     1       1.276  -1.695  -3.038  0.00  0.00    +0.135 A 
ATOM     11  O   UNL     1       0.317  -1.452  -2.122  0.00  0.00    -0.461 OA
ATOM     12 BR   UNL     1       5.173  -1.895  -5.605  0.00  0.00    -0.050 Br
ENDBRANCH   2   3
BRANCH   2  13
ATOM     13  N   UNL     1      -1.395  -0.709  -0.060  0.00  0.00    +0.391 N 
ATOM     14  H   UNL     1      -1.315  -1.715  -0.064  0.00  0.00    -0.084 HD
ATOM     15  H   UNL     1      -1.924  -0.416   0.748  0.00  0.00    -0.084 HD
BRANCH  13  16
ATOM     16  C   UNL     1      -2.081  -0.267  -1.281  0.00  0.00    -0.070 C 
ATOM     17  C   UNL     1      -2.586   1.180  -1.110  0.00  0.00    -0.016 C 
ATOM     18  C   UNL     1      -3.947   1.198  -1.848  0.00  0.00    -0.002 C 
ATOM     19  C   UNL     1      -4.540  -0.191  -1.504  0.00  0.00    -0.002 C 
ATOM     20  C   UNL     1      -3.324  -1.139  -1.532  0.00  0.00    -0.016 C 
ENDBRANCH  13  16
ENDBRANCH   2  13
BRANCH   2  21
ATOM     21  C   UNL     1       0.636  -0.517   1.295  0.00  0.00    +0.151 C 
BRANCH  21  22
ATOM     22  O   UNL     1       0.630  -1.941   1.414  0.00  0.00    -0.396 OA
ATOM     23  H   UNL     1       1.052  -2.271   2.219  0.00  0.00    +0.209 HD
ENDBRANCH  21  22
ENDBRANCH   2  21
TORSDOF 5
