REMARK  Name = ZINC09235296
REMARK  5 active torsions:
REMARK  status: ('A' for Active; 'I' for Inactive)
REMARK    1  A    between atoms: C_1  and  N_47
REMARK    2  A    between atoms: C_9  and  O_29
REMARK    3  A    between atoms: C_11  and  C_14
REMARK    4  A    between atoms: C_17  and  C_19
REMARK    5  A    between atoms: C_21  and  N_26
REMARK                            x       y       z     vdW  Elec       q    Type
REMARK                         _______ _______ _______ _____ _____    ______ ____
ROOT
ATOM      1  C   UNL     1      -8.024  -3.497  -3.395  0.00  0.00    -0.096 C 
ATOM      2  C   UNL     1      -6.143  -4.843  -2.678  0.00  0.00    -0.074 C 
ATOM      3  C   UNL     1      -4.653  -4.770  -2.330  0.00  0.00    +0.018 C 
ATOM      4  C   UNL     1      -4.499  -3.923  -1.072  0.00  0.00    -0.027 A 
ATOM      5  C   UNL     1      -5.507  -3.107  -0.679  0.00  0.00    -0.021 A 
ATOM      6  S   UNL     1      -4.913  -2.332   0.800  0.00  0.00    -0.080 S 
ATOM      7  C   UNL     1      -3.371  -3.069   0.886  0.00  0.00    +0.080 A 
ATOM      8  C   UNL     1      -3.321  -3.920  -0.227  0.00  0.00    +0.067 A 
ATOM      9  C   UNL     1      -2.085  -4.723  -0.412  0.00  0.00    +0.220 C 
ATOM     10  N   UNL     1      -1.046  -4.412   0.314  0.00  0.00    -0.220 NA
ATOM     11  C   UNL     1      -0.989  -3.293   1.246  0.00  0.00    +0.260 C 
ATOM     12  N   UNL     1      -2.326  -2.954   1.770  0.00  0.00    -0.311 N 
ATOM     13  C   UNL     1      -6.822  -2.923  -1.367  0.00  0.00    -0.036 C 
ATOM     14  H   UNL     1      -2.459  -2.667   2.687  0.00  0.00    +0.149 HD
ATOM     15  N   UNL     1      -6.700  -3.476  -2.738  0.00  0.00    +0.381 N 
ATOM     16  H   UNL     1      -6.066  -2.880  -3.283  0.00  0.00    -0.082 HD
ENDROOT
BRANCH  11  17
ATOM     17  C   UNL     1      -0.419  -2.091   0.539  0.00  0.00    +0.148 A 
ATOM     18  C   UNL     1       0.437  -2.124  -0.501  0.00  0.00    +0.049 A 
ATOM     19  C   UNL     1       0.712  -0.788  -0.852  0.00  0.00    +0.050 A 
ATOM     20  C   UNL     1       0.002  -0.004   0.002  0.00  0.00    +0.137 A 
ATOM     21  O   UNL     1      -0.676  -0.808   0.843  0.00  0.00    -0.456 OA
BRANCH  20  22
ATOM     22  C   UNL     1      -0.018   1.474   0.010  0.00  0.00    +0.038 A 
ATOM     23  C   UNL     1      -1.234   2.158   0.020  0.00  0.00    +0.045 A 
ATOM     24  C   UNL     1      -1.246   3.538   0.033  0.00  0.00    +0.127 A 
ATOM     25  C   UNL     1      -0.056   4.243   0.025  0.00  0.00    +0.034 A 
ATOM     26  C   UNL     1       1.153   3.572   0.010  0.00  0.00    +0.023 A 
ATOM     27  C   UNL     1       1.180   2.192   0.003  0.00  0.00    +0.052 A 
ATOM     28 CL   UNL     1       2.699   1.350  -0.016  0.00  0.00    -0.083 Cl
BRANCH  24  29
ATOM     29  N   UNL     1      -2.535   4.265   0.049  0.00  0.00    +0.056 N 
ATOM     30  O   UNL     1      -2.548   5.483   0.056  0.00  0.00    -0.126 OA
ATOM     31  O   UNL     1      -3.584   3.645   0.056  0.00  0.00    -0.126 OA
ENDBRANCH  24  29
ENDBRANCH  20  22
ENDBRANCH  11  17
BRANCH   9  32
ATOM     32  O   UNL     1      -2.038  -5.740  -1.303  0.00  0.00    -0.492 OA
ATOM     33  H   UNL     1      -1.183  -6.192  -1.339  0.00  0.00    +0.294 HD
ENDBRANCH   9  32
TORSDOF 4
