REMARK  Name = ZINC02484166
REMARK  7 active torsions:
REMARK  status: ('A' for Active; 'I' for Inactive)
REMARK    1  A    between atoms: C_1  and  C_2
REMARK    2  A    between atoms: C_2  and  C_3
REMARK    3  A    between atoms: C_3  and  O_4
REMARK    4  A    between atoms: O_4  and  C_5
REMARK    5  A    between atoms: C_8  and  C_11
REMARK    6  A    between atoms: C_13  and  C_24
REMARK    7  A    between atoms: C_14  and  N_23
REMARK                            x       y       z     vdW  Elec       q    Type
REMARK                         _______ _______ _______ _____ _____    ______ ____
ROOT
ATOM      1  C   UNL     1      -2.553   3.867   0.046  0.00  0.00    +0.101 C 
ATOM      2  C   UNL     1      -3.345   3.497  -1.177  0.00  0.00    +0.098 C 
ATOM      3  C   UNL     1      -4.361   2.603  -1.091  0.00  0.00    +0.198 C 
ATOM      4  O   UNL     1      -4.684   2.022   0.074  0.00  0.00    -0.445 OA
ATOM      5  C   UNL     1      -4.326   2.602   1.236  0.00  0.00    +0.115 C 
ATOM      6  C   UNL     1      -3.320   3.494   1.292  0.00  0.00    +0.046 C 
ATOM      7  C   UNL     1      -2.952   4.106   2.506  0.00  0.00    +0.163 C 
ATOM      8  O   UNL     1      -2.027   4.893   2.520  0.00  0.00    -0.292 OA
ATOM      9  C   UNL     1      -3.683   3.801   3.785  0.00  0.00    +0.080 C 
ATOM     10  C   UNL     1      -5.124   3.402   3.450  0.00  0.00    +0.016 C 
ATOM     11  C   UNL     1      -5.086   2.217   2.483  0.00  0.00    +0.075 C 
ENDROOT
BRANCH   1  15
ATOM     12  C   UNL     1       1.179   1.786   0.000  0.00  0.00    +0.121 A 
ATOM     13  C   UNL     1      -0.013   1.076   0.008  0.00  0.00    +0.046 A 
ATOM     14  C   UNL     1      -1.218   1.751   0.017  0.00  0.00    +0.008 A 
ATOM     15  C   UNL     1      -1.237   3.133   0.030  0.00  0.00    -0.034 A 
ATOM     16  C   UNL     1      -0.051   3.844   0.023  0.00  0.00    +0.008 A 
ATOM     17  C   UNL     1       1.157   3.174   0.008  0.00  0.00    +0.046 A 
BRANCH  12  18
ATOM     18  O   UNL     1       2.366   1.125  -0.015  0.00  0.00    -0.492 OA
BRANCH  18  19
ATOM     19  C   UNL     1       3.553   1.921  -0.022  0.00  0.00    +0.229 C 
BRANCH  19  21
ATOM     20  C   UNL     1       6.050   1.860  -0.047  0.00  0.00    +0.007 C 
ATOM     21  C   UNL     1       4.780   1.007  -0.039  0.00  0.00    +0.038 C 
ENDBRANCH  19  21
ENDBRANCH  18  19
ENDBRANCH  12  18
ENDBRANCH   1  15
BRANCH   3  22
ATOM     22  N   UNL     1      -5.073   2.286  -2.221  0.00  0.00    -0.328 N 
ATOM     23  H   UNL     1      -4.848   2.700  -3.069  0.00  0.00    +0.145 HD
ATOM     24  H   UNL     1      -5.802   1.647  -2.171  0.00  0.00    +0.145 HD
ENDBRANCH   3  22
BRANCH   2  25
ATOM     25  C   UNL     1      -3.025   4.092  -2.439  0.00  0.00    +0.101 C 
ATOM     26  N   UNL     1      -2.771   4.564  -3.441  0.00  0.00    -0.191 NA
ENDBRANCH   2  25
TORSDOF 6
