REMARK  Name = ZINC00925039
REMARK  11 active torsions:
REMARK  status: ('A' for Active; 'I' for Inactive)
REMARK    1  A    between atoms: C_1  and  C_2
REMARK    2  A    between atoms: C_7  and  C_8
REMARK    3  A    between atoms: C_8  and  C_9
REMARK    4  A    between atoms: C_9  and  N_10
REMARK    5  A    between atoms: N_10  and  C_11
REMARK    6  A    between atoms: N_10  and  S_26
REMARK    7  A    between atoms: C_11  and  C_12
REMARK    8  A    between atoms: C_16  and  O_24
REMARK    9  A    between atoms: O_24  and  C_25
REMARK   10  A    between atoms: S_26  and  C_29
REMARK   11  A    between atoms: C_30  and  C_38
REMARK                            x       y       z     vdW  Elec       q    Type
REMARK                         _______ _______ _______ _____ _____    ______ ____
ROOT
ATOM      1  N   UNL     1      -0.832   1.544  -1.116  0.00  0.00    -0.172 NA
ENDROOT
BRANCH   1   2
ATOM      2  S   UNL     1      -1.784   0.637  -2.123  0.00  0.00    +0.064 S 
ATOM      3  O   UNL     1      -1.483   1.052  -3.448  0.00  0.00    -0.153 OA
ATOM      4  O   UNL     1      -1.654  -0.712  -1.698  0.00  0.00    -0.153 OA
BRANCH   2   5
ATOM      5  C   UNL     1      -3.456   1.103  -1.818  0.00  0.00    +0.136 A 
ATOM      6  C   UNL     1      -4.040   2.064  -2.573  0.00  0.00    -0.022 A 
ATOM      7  C   UNL     1      -5.361   2.457  -2.360  0.00  0.00    +0.007 A 
ATOM      8  C   UNL     1      -6.120   1.894  -1.389  0.00  0.00    +0.031 A 
ATOM      9  C   UNL     1      -5.574   0.880  -0.559  0.00  0.00    +0.102 A 
ATOM     10  C   UNL     1      -4.192   0.466  -0.785  0.00  0.00    +0.126 A 
ATOM     11  N   UNL     1      -3.814  -0.494   0.057  0.00  0.00    -0.189 NA
ATOM     12  S   UNL     1      -5.054  -0.791   0.968  0.00  0.00    +0.117 S 
ATOM     13  N   UNL     1      -6.141   0.206   0.439  0.00  0.00    -0.191 NA
ATOM     14  C   UNL     1      -3.243   2.724  -3.668  0.00  0.00    +0.046 C 
ENDBRANCH   2   5
ENDBRANCH   1   2
BRANCH   1  15
ATOM     15  C   UNL     1      -0.418   1.006   0.182  0.00  0.00    +0.114 C 
BRANCH  15  16
ATOM     16  C   UNL     1      -1.387   1.484   1.265  0.00  0.00    +0.052 C 
BRANCH  16  23
ATOM     17  C   UNL     1       0.610   2.865   2.832  0.00  0.00    +0.044 C 
ATOM     18  C   UNL     1      -0.006   1.591   3.350  0.00  0.00    -0.047 A 
ATOM     19  C   UNL     1       0.384   1.083   4.575  0.00  0.00    +0.003 A 
ATOM     20  C   UNL     1      -0.181  -0.085   5.051  0.00  0.00    +0.000 A 
ATOM     21  C   UNL     1      -1.137  -0.746   4.301  0.00  0.00    +0.000 A 
ATOM     22  C   UNL     1      -1.531  -0.235   3.079  0.00  0.00    +0.004 A 
ATOM     23  C   UNL     1      -0.961   0.931   2.601  0.00  0.00    -0.043 A 
ENDBRANCH  16  23
ENDBRANCH  15  16
ENDBRANCH   1  15
BRANCH   1  24
ATOM     24  C   UNL     1      -0.404   2.885  -1.523  0.00  0.00    +0.150 C 
BRANCH  24  25
ATOM     25  C   UNL     1       0.950   2.802  -2.179  0.00  0.00    +0.033 A 
ATOM     26  C   UNL     1       1.042   2.708  -3.529  0.00  0.00    +0.020 A 
ATOM     27  C   UNL     1       2.372   2.634  -4.136  0.00  0.00    +0.002 A 
ATOM     28  C   UNL     1       2.529   2.542  -5.523  0.00  0.00    +0.055 A 
ATOM     29  C   UNL     1       3.797   2.468  -6.062  0.00  0.00    +0.121 A 
ATOM     30  C   UNL     1       4.916   2.486  -5.233  0.00  0.00    +0.047 A 
ATOM     31  C   UNL     1       4.775   2.576  -3.866  0.00  0.00    +0.030 A 
ATOM     32  C   UNL     1       3.506   2.652  -3.302  0.00  0.00    +0.049 A 
ATOM     33  N   UNL     1       3.343   2.743  -1.934  0.00  0.00    -0.322 N 
ATOM     34  H   UNL     1       4.149   2.756  -1.342  0.00  0.00    +0.169 HD
ATOM     35  C   UNL     1       2.118   2.816  -1.386  0.00  0.00    +0.254 A 
ATOM     36  O   UNL     1       2.012   2.896  -0.175  0.00  0.00    -0.268 OA
BRANCH  29  37
ATOM     37  O   UNL     1       3.955   2.377  -7.410  0.00  0.00    -0.495 OA
ATOM     38  C   UNL     1       5.295   2.305  -7.902  0.00  0.00    +0.277 C 
ENDBRANCH  29  37
ENDBRANCH  24  25
ENDBRANCH   1  24
TORSDOF 8
