REMARK  Name = ZINC45741586
REMARK  5 active torsions:
REMARK  status: ('A' for Active; 'I' for Inactive)
REMARK    1  A    between atoms: C_1  and  C_2
REMARK    2  A    between atoms: C_5  and  C_22
REMARK    3  A    between atoms: C_6  and  S_9
REMARK    4  A    between atoms: S_9  and  N_12
REMARK    5  A    between atoms: N_12  and  C_13
REMARK                            x       y       z     vdW  Elec       q    Type
REMARK                         _______ _______ _______ _____ _____    ______ ____
ROOT
ATOM      1  S   UNL     1      -0.525  -2.706   2.578  0.00  0.00    +0.061 S 
ATOM      2  O   UNL     1      -1.294  -1.790   3.345  0.00  0.00    -0.153 OA
ATOM      3  O   UNL     1      -1.045  -3.951   2.132  0.00  0.00    -0.153 OA
ENDROOT
BRANCH   1   9
ATOM      4  C   UNL     1       1.340  -2.621  -2.307  0.00  0.00    +0.045 C 
ATOM      5  C   UNL     1       0.859  -1.857  -1.100  0.00  0.00    -0.029 A 
ATOM      6  C   UNL     1       0.833  -0.475  -1.122  0.00  0.00    +0.025 A 
ATOM      7  C   UNL     1       0.392   0.226  -0.014  0.00  0.00    +0.046 A 
ATOM      8  C   UNL     1      -0.023  -0.456   1.116  0.00  0.00    -0.004 A 
ATOM      9  C   UNL     1       0.003  -1.838   1.138  0.00  0.00    +0.128 A 
ATOM     10  C   UNL     1       0.439  -2.539   0.028  0.00  0.00    +0.070 A 
ATOM     11 CL   UNL     1       0.465  -4.275   0.053  0.00  0.00    -0.081 Cl
ATOM     12  C   UNL     1      -0.504   0.307   2.324  0.00  0.00    +0.047 C 
ATOM     13 CL   UNL     1       0.359   1.961  -0.041  0.00  0.00    -0.083 Cl
ENDBRANCH   1   9
BRANCH   1  14
ATOM     14  N   UNL     1       0.829  -3.049   3.467  0.00  0.00    -0.178 NA
ATOM     15  H   UNL     1       1.077  -3.971   3.637  0.00  0.00    +0.149 HD
BRANCH  14  16
ATOM     16  C   UNL     1       1.653  -1.960   3.996  0.00  0.00    +0.162 C 
ATOM     17  C   UNL     1       2.252  -2.375   5.342  0.00  0.00    +0.030 C 
ATOM     18  C   UNL     1       2.581  -1.156   6.184  0.00  0.00    +0.004 C 
ATOM     19  C   UNL     1       3.700  -0.302   5.615  0.00  0.00    +0.019 C 
ATOM     20  C   UNL     1       3.269   0.357   4.303  0.00  0.00    +0.104 C 
ATOM     21  N   UNL     1       3.537  -0.576   3.197  0.00  0.00    -0.314 N 
ATOM     22  C   UNL     1       2.784  -1.663   3.034  0.00  0.00    +0.232 C 
ATOM     23  O   UNL     1       3.009  -2.421   2.114  0.00  0.00    -0.274 OA
ATOM     24  H   UNL     1       4.265  -0.396   2.580  0.00  0.00    +0.149 HD
ENDBRANCH  14  16
ENDBRANCH   1  14
TORSDOF 3
