REMARK  Name = ZINC22060277
REMARK  9 active torsions:
REMARK  status: ('A' for Active; 'I' for Inactive)
REMARK    1  A    between atoms: C_1  and  C_2
REMARK    2  A    between atoms: C_2  and  C_3
REMARK    3  A    between atoms: C_2  and  C_4
REMARK    4  A    between atoms: C_4  and  N_5
REMARK    5  A    between atoms: C_6  and  N_29
REMARK    6  A    between atoms: C_7  and  C_14
REMARK    7  A    between atoms: C_14  and  C_16
REMARK    8  A    between atoms: C_16  and  N_17
REMARK    9  A    between atoms: C_19  and  C_25
REMARK                            x       y       z     vdW  Elec       q    Type
REMARK                         _______ _______ _______ _____ _____    ______ ____
ROOT
ATOM      1  N   UNL     1      -0.004  -0.004  -0.032  0.00  0.00    -0.281 N 
ATOM      2  C   UNL     1      -0.202  -0.654   1.153  0.00  0.00    +0.116 A 
ATOM      3  C   UNL     1      -0.175  -2.060   1.170  0.00  0.00    +0.121 A 
ATOM      4  C   UNL     1       0.069  -2.757  -0.099  0.00  0.00    +0.266 A 
ATOM      5  O   UNL     1       0.104  -3.973  -0.143  0.00  0.00    -0.267 OA
ATOM      6  N   UNL     1       0.253  -2.022  -1.215  0.00  0.00    -0.274 N 
ATOM      7  H   UNL     1       0.441  -2.521  -2.177  0.00  0.00    +0.173 HD
ATOM      8  C   UNL     1       0.211  -0.681  -1.171  0.00  0.00    +0.331 A 
ATOM      9  O   UNL     1       0.377  -0.056  -2.200  0.00  0.00    -0.246 OA
ENDROOT
BRANCH   2  10
ATOM     10  N   UNL     1      -0.424   0.047   2.298  0.00  0.00    -0.344 N 
ATOM     11  H   UNL     1      -0.583  -0.486   3.247  0.00  0.00    +0.144 HD
ATOM     12  H   UNL     1      -0.444   1.147   2.274  0.00  0.00    +0.144 HD
ENDBRANCH   2  10
BRANCH   3  13
ATOM     13  C   UNL     1      -0.374  -2.777   2.369  0.00  0.00    +0.191 C 
ATOM     14  O   UNL     1      -0.465  -2.183   3.424  0.00  0.00    -0.290 OA
BRANCH  13  15
ATOM     15  C   UNL     1      -0.473  -4.281   2.339  0.00  0.00    +0.204 C 
BRANCH  15  16
ATOM     16  N   UNL     1      -0.678  -4.783   3.700  0.00  0.00    -0.306 N 
ATOM     17  C   UNL     1      -1.940  -4.934   4.177  0.00  0.00    +0.102 A 
ATOM     18  C   UNL     1      -2.155  -5.397   5.431  0.00  0.00    +0.073 A 
ATOM     19  C   UNL     1      -1.067  -5.727   6.251  0.00  0.00    +0.039 A 
ATOM     20  C   UNL     1       0.201  -5.575   5.771  0.00  0.00    +0.106 A 
ATOM     21  C   UNL     1       0.388  -5.096   4.462  0.00  0.00    +0.270 A 
ATOM     22  O   UNL     1       1.516  -4.960   4.017  0.00  0.00    -0.266 OA
ATOM     23 CL   UNL     1       1.568  -5.976   6.762  0.00  0.00    -0.078 Cl
BRANCH  18  24
ATOM     24  C   UNL     1      -3.563  -5.558   5.944  0.00  0.00    +0.419 C 
ATOM     25  F   UNL     1      -3.984  -6.877   5.744  0.00  0.00    -0.166 F 
ATOM     26  F   UNL     1      -3.598  -5.259   7.310  0.00  0.00    -0.166 F 
ATOM     27  F   UNL     1      -4.413  -4.687   5.254  0.00  0.00    -0.166 F 
ENDBRANCH  18  24
ENDBRANCH  15  16
ENDBRANCH  13  15
ENDBRANCH   3  13
BRANCH   1  28
ATOM     28  C   UNL     1      -0.031   1.460  -0.060  0.00  0.00    +0.131 C 
BRANCH  28  30
ATOM     29  C   UNL     1       2.291   1.591  -0.973  0.00  0.00    +0.009 C 
ATOM     30  C   UNL     1       1.379   2.001   0.185  0.00  0.00    +0.003 C 
ATOM     31  C   UNL     1       1.330   3.528   0.279  0.00  0.00    +0.009 C 
ENDBRANCH  28  30
ENDBRANCH   1  28
TORSDOF 7
