REMARK  Name = ZINC01861708
REMARK  14 active torsions:
REMARK  status: ('A' for Active; 'I' for Inactive)
REMARK    1  A    between atoms: C_1  and  O_2
REMARK    2  A    between atoms: O_2  and  C_3
REMARK    3  A    between atoms: C_5  and  C_13
REMARK    4  A    between atoms: C_7  and  O_11
REMARK    5  A    between atoms: C_8  and  O_9
REMARK    6  A    between atoms: O_9  and  C_10
REMARK    7  A    between atoms: O_11  and  C_12
REMARK    8  A    between atoms: C_16  and  S_24
REMARK    9  A    between atoms: N_17  and  C_18
REMARK   10  A    between atoms: S_24  and  C_25
REMARK   11  A    between atoms: C_25  and  C_26
REMARK   12  A    between atoms: N_28  and  N_29
REMARK   13  A    between atoms: N_29  and  C_30
REMARK   14  A    between atoms: C_30  and  C_32
REMARK                            x       y       z     vdW  Elec       q    Type
REMARK                         _______ _______ _______ _____ _____    ______ ____
ROOT
ATOM      1  C   UNL     1       2.395   0.357  -4.219  0.00  0.00    +0.170 A 
ATOM      2  N   UNL     1       2.199   1.638  -4.429  0.00  0.00    -0.128 NA
ATOM      3  N   UNL     1       2.880   2.027  -5.447  0.00  0.00    -0.122 NA
ATOM      4  C   UNL     1       3.555   1.019  -5.952  0.00  0.00    +0.197 A 
ATOM      5  N   UNL     1       3.276  -0.080  -5.185  0.00  0.00    -0.270 N 
ENDROOT
BRANCH   1   8
ATOM      6  C   UNL     1       0.606  -0.608  -1.056  0.00  0.00    +0.166 A 
ATOM      7  C   UNL     1       1.171   0.160  -2.060  0.00  0.00    +0.061 A 
ATOM      8  C   UNL     1       1.791  -0.460  -3.146  0.00  0.00    +0.027 A 
ATOM      9  C   UNL     1       1.839  -1.853  -3.217  0.00  0.00    +0.061 A 
ATOM     10  C   UNL     1       1.273  -2.616  -2.211  0.00  0.00    +0.166 A 
ATOM     11  C   UNL     1       0.660  -1.996  -1.127  0.00  0.00    +0.204 A 
BRANCH   6  13
ATOM     12  C   UNL     1      -0.017   1.425   0.010  0.00  0.00    +0.277 C 
ATOM     13  O   UNL     1       0.002  -0.004   0.002  0.00  0.00    -0.491 OA
ENDBRANCH   6  13
BRANCH  11  14
ATOM     14  O   UNL     1       0.109  -2.748  -0.136  0.00  0.00    -0.488 OA
ATOM     15  C   UNL     1      -1.262  -3.119  -0.290  0.00  0.00    +0.277 C 
ENDBRANCH  11  14
BRANCH  10  16
ATOM     16  O   UNL     1       1.319  -3.974  -2.280  0.00  0.00    -0.491 OA
ATOM     17  C   UNL     1       1.968  -4.544  -3.418  0.00  0.00    +0.277 C 
ENDBRANCH  10  16
ENDBRANCH   1   8
BRANCH   5  18
ATOM     18  C   UNL     1       3.777  -1.379  -5.349  0.00  0.00    +0.051 A 
ATOM     19  C   UNL     1       4.589  -1.939  -4.372  0.00  0.00    +0.026 A 
ATOM     20  C   UNL     1       5.082  -3.219  -4.537  0.00  0.00    +0.002 A 
ATOM     21  C   UNL     1       4.767  -3.942  -5.673  0.00  0.00    +0.000 A 
ATOM     22  C   UNL     1       3.959  -3.386  -6.647  0.00  0.00    +0.002 A 
ATOM     23  C   UNL     1       3.459  -2.108  -6.486  0.00  0.00    +0.026 A 
ENDBRANCH   5  18
BRANCH   4  24
ATOM     24  S   UNL     1       4.625   1.073  -7.350  0.00  0.00    -0.076 S 
BRANCH  24  25
ATOM     25  C   UNL     1       4.558   2.804  -7.887  0.00  0.00    +0.174 C 
BRANCH  25  26
ATOM     26  C   UNL     1       5.442   2.990  -9.093  0.00  0.00    +0.239 C 
ATOM     27  O   UNL     1       6.057   2.048  -9.546  0.00  0.00    -0.273 OA
ATOM     28  N   UNL     1       5.550   4.204  -9.669  0.00  0.00    -0.236 N 
ATOM     29  H   UNL     1       5.058   4.958  -9.307  0.00  0.00    +0.173 HD
BRANCH  28  30
ATOM     30  N   UNL     1       6.372   4.377 -10.790  0.00  0.00    -0.264 N 
ATOM     31  H   UNL     1       6.864   3.623 -11.152  0.00  0.00    +0.170 HD
BRANCH  30  32
ATOM     32  C   UNL     1       6.483   5.634 -11.387  0.00  0.00    +0.045 C 
ATOM     33  C   UNL     1       5.807   6.670 -10.889  0.00  0.00    +0.035 C 
BRANCH  32  34
ATOM     34  C   UNL     1       7.352   5.817 -12.572  0.00  0.00    -0.002 A 
ATOM     35  C   UNL     1       8.056   4.734 -13.098  0.00  0.00    +0.010 A 
ATOM     36  C   UNL     1       8.864   4.910 -14.202  0.00  0.00    +0.002 A 
ATOM     37  C   UNL     1       8.978   6.158 -14.788  0.00  0.00    +0.015 A 
ATOM     38  C   UNL     1       8.282   7.237 -14.271  0.00  0.00    +0.018 A 
ATOM     39  C   UNL     1       7.465   7.071 -13.170  0.00  0.00    +0.025 A 
ATOM     40 BR   UNL     1       8.444   8.939 -15.079  0.00  0.00    -0.050 Br
ENDBRANCH  32  34
ENDBRANCH  30  32
ENDBRANCH  28  30
ENDBRANCH  25  26
ENDBRANCH  24  25
ENDBRANCH   4  24
TORSDOF 11
