REMARK  Name = ZINC03343517
REMARK  13 active torsions:
REMARK  status: ('A' for Active; 'I' for Inactive)
REMARK    1  A    between atoms: C_1  and  C_2
REMARK    2  A    between atoms: C_2  and  O_3
REMARK    3  A    between atoms: O_3  and  C_4
REMARK    4  A    between atoms: C_4  and  C_6
REMARK    5  A    between atoms: C_7  and  C_38
REMARK    6  A    between atoms: C_8  and  C_35
REMARK    7  A    between atoms: C_10  and  N_11
REMARK    8  A    between atoms: C_12  and  C_14
REMARK    9  A    between atoms: C_14  and  S_15
REMARK   10  A    between atoms: S_15  and  C_16
REMARK   11  A    between atoms: N_26  and  C_27
REMARK   12  A    between atoms: C_27  and  C_28
REMARK   13  A    between atoms: C_35  and  C_37
REMARK                            x       y       z     vdW  Elec       q    Type
REMARK                         _______ _______ _______ _____ _____    ______ ____
ROOT
ATOM      1  S   UNL     1      -2.990  -3.117  -7.077  0.00  0.00    -0.078 S 
ENDROOT
BRANCH   1   2
ATOM      2  C   UNL     1      -4.724  -2.841  -7.222  0.00  0.00    +0.173 A 
ATOM      3  N   UNL     1      -5.366  -2.349  -6.191  0.00  0.00    -0.223 NA
ATOM      4  C   UNL     1      -6.692  -2.113  -6.232  0.00  0.00    +0.079 A 
ATOM      5  C   UNL     1      -7.378  -1.588  -5.132  0.00  0.00    +0.028 A 
ATOM      6  C   UNL     1      -8.723  -1.364  -5.218  0.00  0.00    +0.002 A 
ATOM      7  C   UNL     1      -9.423  -1.650  -6.383  0.00  0.00    +0.001 A 
ATOM      8  C   UNL     1      -8.780  -2.164  -7.475  0.00  0.00    +0.015 A 
ATOM      9  C   UNL     1      -7.408  -2.402  -7.416  0.00  0.00    +0.065 A 
ATOM     10  C   UNL     1      -6.666  -2.953  -8.558  0.00  0.00    +0.263 A 
ATOM     11  O   UNL     1      -7.226  -3.222  -9.605  0.00  0.00    -0.267 OA
ATOM     12  N   UNL     1      -5.335  -3.144  -8.405  0.00  0.00    -0.283 N 
BRANCH  12  13
ATOM     13  C   UNL     1      -4.545  -3.684  -9.514  0.00  0.00    +0.162 C 
BRANCH  13  14
ATOM     14  C   UNL     1      -4.523  -5.189  -9.428  0.00  0.00    -0.027 A 
ATOM     15  C   UNL     1      -3.529  -5.825  -8.708  0.00  0.00    +0.008 A 
ATOM     16  C   UNL     1      -3.508  -7.205  -8.628  0.00  0.00    +0.038 A 
ATOM     17  C   UNL     1      -4.482  -7.949  -9.271  0.00  0.00    +0.123 A 
ATOM     18  C   UNL     1      -5.477  -7.311  -9.992  0.00  0.00    +0.038 A 
ATOM     19  C   UNL     1      -5.499  -5.931 -10.066  0.00  0.00    +0.008 A 
ATOM     20  F   UNL     1      -4.463  -9.298  -9.194  0.00  0.00    -0.205 F 
ENDBRANCH  13  14
ENDBRANCH  12  13
ENDBRANCH   1   2
BRANCH   1  21
ATOM     21  C   UNL     1      -2.601  -2.592  -5.385  0.00  0.00    +0.173 C 
BRANCH  21  23
ATOM     22  N   UNL     1      -0.608  -2.454  -3.926  0.00  0.00    -0.279 N 
ATOM     23  C   UNL     1      -1.128  -2.779  -5.126  0.00  0.00    +0.228 C 
ATOM     24  O   UNL     1      -0.411  -3.223  -5.998  0.00  0.00    -0.275 OA
ATOM     25  H   UNL     1      -1.181  -2.099  -3.229  0.00  0.00    +0.155 HD
BRANCH  22  30
ATOM     26  C   UNL     1       1.450  -2.345  -2.519  0.00  0.00    +0.091 A 
ATOM     27  C   UNL     1       2.811  -2.605  -2.512  0.00  0.00    -0.017 A 
ATOM     28  C   UNL     1       3.337  -3.119  -3.685  0.00  0.00    +0.060 A 
ATOM     29  S   UNL     1       1.908  -3.214  -4.744  0.00  0.00    -0.070 S 
ATOM     30  C   UNL     1       0.741  -2.625  -3.690  0.00  0.00    +0.087 A 
ATOM     31  C   UNL     1       3.668  -2.345  -1.300  0.00  0.00    +0.046 C 
BRANCH  28  32
ATOM     32  C   UNL     1       4.671  -3.476  -3.970  0.00  0.00    +0.167 C 
ATOM     33  O   UNL     1       5.530  -3.344  -3.122  0.00  0.00    -0.292 OA
ATOM     34  C   UNL     1       5.031  -4.022  -5.328  0.00  0.00    +0.092 C 
ENDBRANCH  28  32
BRANCH  26  35
ATOM     35  C   UNL     1       0.776  -1.799  -1.335  0.00  0.00    +0.342 C 
ATOM     36  O   UNL     1       0.312  -2.551  -0.499  0.00  0.00    -0.245 OA
BRANCH  35  37
ATOM     37  O   UNL     1       0.671  -0.465  -1.174  0.00  0.00    -0.461 OA
BRANCH  37  39
ATOM     38  C   UNL     1      -0.019   1.526   0.010  0.00  0.00    +0.048 C 
ATOM     39  C   UNL     1       0.002  -0.004   0.002  0.00  0.00    +0.229 C 
ENDBRANCH  37  39
ENDBRANCH  35  37
ENDBRANCH  26  35
ENDBRANCH  22  30
ENDBRANCH  21  23
ENDBRANCH   1  21
TORSDOF 10
