REMARK  Name = ZINC38742151
REMARK  9 active torsions:
REMARK  status: ('A' for Active; 'I' for Inactive)
REMARK    1  A    between atoms: C_1  and  C_2
REMARK    2  A    between atoms: C_5  and  C_27
REMARK    3  A    between atoms: C_6  and  O_8
REMARK    4  A    between atoms: O_8  and  C_9
REMARK    5  A    between atoms: C_9  and  C_10
REMARK    6  A    between atoms: C_13  and  C_20
REMARK    7  A    between atoms: C_23  and  C_26
REMARK    8  A    between atoms: C_27  and  C_28
REMARK    9  A    between atoms: C_27  and  C_29
REMARK                            x       y       z     vdW  Elec       q    Type
REMARK                         _______ _______ _______ _____ _____    ______ ____
ROOT
ATOM      1  C   UNL     1       0.063  -2.932   4.751  0.00  0.00    +0.132 C 
ATOM      2  N   UNL     1       0.086  -4.223   4.753  0.00  0.00    -0.175 NA
ATOM      3  N   UNL     1       0.050  -4.978   5.905  0.00  0.00    -0.206 N 
ATOM      4  C   UNL     1      -0.259  -6.317   6.460  0.00  0.00    +0.206 C 
ATOM      5  N   UNL     1      -0.915  -6.061   7.765  0.00  0.00    -0.231 NA
ATOM      6  N   UNL     1      -0.868  -4.604   7.980  0.00  0.00    -0.224 NA
ATOM      7  C   UNL     1       0.283  -4.186   7.155  0.00  0.00    +0.240 C 
ATOM      8  S   UNL     1       0.065  -2.498   6.485  0.00  0.00    -0.064 S 
ATOM      9  H   UNL     1      -0.443  -6.552   8.510  0.00  0.00    +0.143 HD
ATOM     10  H   UNL     1      -0.713  -4.387   8.953  0.00  0.00    +0.144 HD
ENDROOT
BRANCH   4  11
ATOM     11  C   UNL     1       1.030  -7.117   6.662  0.00  0.00    +0.190 C 
ATOM     12  C   UNL     1       0.720  -8.514   7.171  0.00  0.00    +0.029 C 
ATOM     13  C   UNL     1       1.323  -8.563   8.361  0.00  0.00    +0.058 C 
ATOM     14  N   UNL     1       1.946  -7.394   8.632  0.00  0.00    -0.159 NA
ATOM     15  N   UNL     1       1.839  -6.537   7.746  0.00  0.00    -0.177 NA
ATOM     16  C   UNL     1       1.310  -9.758   9.278  0.00  0.00    +0.067 C 
ENDBRANCH   4  11
BRANCH   1  17
ATOM     17  C   UNL     1       0.045  -2.006   3.562  0.00  0.00    +0.293 C 
BRANCH  17  18
ATOM     18  O   UNL     1       0.050  -2.776   2.358  0.00  0.00    -0.485 OA
BRANCH  18  24
ATOM     19  C   UNL     1      -0.018   1.503   0.010  0.00  0.00    +0.044 C 
ATOM     20  C   UNL     1       0.002  -0.004   0.002  0.00  0.00    -0.047 A 
ATOM     21  C   UNL     1       0.006  -0.688  -1.200  0.00  0.00    +0.004 A 
ATOM     22  C   UNL     1       0.024  -2.071  -1.211  0.00  0.00    +0.008 A 
ATOM     23  C   UNL     1       0.039  -2.772  -0.020  0.00  0.00    -0.003 A 
ATOM     24  C   UNL     1       0.035  -2.088   1.186  0.00  0.00    +0.125 A 
ATOM     25  C   UNL     1       0.023  -0.700   1.195  0.00  0.00    +0.049 A 
BRANCH  23  26
ATOM     26  C   UNL     1       0.059  -4.279  -0.033  0.00  0.00    +0.016 C 
ATOM     27  C   UNL     1      -1.188  -4.799  -0.753  0.00  0.00    +0.012 C 
ATOM     28  C   UNL     1       1.311  -4.766  -0.764  0.00  0.00    +0.012 C 
ENDBRANCH  23  26
ENDBRANCH  18  24
ENDBRANCH  17  18
ENDBRANCH   1  17
TORSDOF 5
