REMARK  Name = ZINC20934903
REMARK  6 active torsions:
REMARK  status: ('A' for Active; 'I' for Inactive)
REMARK    1  A    between atoms: C_1  and  C_2
REMARK    2  A    between atoms: C_2  and  C_3
REMARK    3  A    between atoms: C_3  and  C_25
REMARK    4  A    between atoms: N_6  and  N_10
REMARK    5  A    between atoms: C_11  and  C_12
REMARK    6  A    between atoms: N_17  and  C_18
REMARK                            x       y       z     vdW  Elec       q    Type
REMARK                         _______ _______ _______ _____ _____    ______ ____
ROOT
ATOM      1  C   UNL     1       1.015   1.916  -0.383  0.00  0.00    +0.072 A 
ATOM      2  C   UNL     1       2.296   1.413  -0.405  0.00  0.00    +0.147 A 
ATOM      3  N   UNL     1       3.293   2.262  -0.311  0.00  0.00    -0.212 NA
ATOM      4  C   UNL     1       3.082   3.563  -0.198  0.00  0.00    +0.164 A 
ATOM      5  S   UNL     1       1.349   3.665  -0.228  0.00  0.00    -0.050 S 
ATOM      6  N   UNL     1       4.008   4.584  -0.090  0.00  0.00    -0.294 N 
ATOM      7 CL   UNL     1       2.586  -0.292  -0.553  0.00  0.00    -0.061 Cl
ATOM      8  H   UNL     1       3.671   5.615   0.093  0.00  0.00    +0.154 HD
ENDROOT
BRANCH   6   9
ATOM      9  C   UNL     1       5.372   4.307  -0.213  0.00  0.00    +0.033 A 
ATOM     10  C   UNL     1       6.306   5.105   0.434  0.00  0.00    +0.023 A 
ATOM     11  C   UNL     1       7.653   4.825   0.314  0.00  0.00    +0.002 A 
ATOM     12  C   UNL     1       8.073   3.758  -0.459  0.00  0.00    +0.000 A 
ATOM     13  C   UNL     1       7.146   2.965  -1.110  0.00  0.00    +0.002 A 
ATOM     14  C   UNL     1       5.797   3.236  -0.989  0.00  0.00    +0.023 A 
ENDBRANCH   6   9
BRANCH   1  16
ATOM     15  N   UNL     1      -1.381   1.885  -0.434  0.00  0.00    -0.176 NA
ATOM     16  C   UNL     1      -0.266   1.214  -0.469  0.00  0.00    +0.149 C 
BRANCH  15  20
ATOM     17  C   UNL     1      -4.202  -0.336  -1.095  0.00  0.00    +0.111 C 
ATOM     18  C   UNL     1      -2.714  -0.069  -0.984  0.00  0.00    +0.266 C 
ATOM     19  O   UNL     1      -1.812  -0.859  -1.168  0.00  0.00    -0.271 OA
ATOM     20  N   UNL     1      -2.601   1.229  -0.640  0.00  0.00    -0.109 N 
ATOM     21  C   UNL     1      -3.799   1.812  -0.514  0.00  0.00    +0.330 C 
ATOM     22  O   UNL     1      -3.954   2.978  -0.206  0.00  0.00    -0.250 OA
ATOM     23  N   UNL     1      -4.812   0.965  -0.769  0.00  0.00    -0.284 N 
ATOM     24  C   UNL     1      -4.568  -0.765  -2.517  0.00  0.00    +0.041 C 
ATOM     25  H   UNL     1      -5.907   1.075  -0.774  0.00  0.00    +0.151 HD
BRANCH  17  27
ATOM     26  C   UNL     1      -6.138  -1.650  -0.218  0.00  0.00    +0.006 C 
ATOM     27  C   UNL     1      -4.634  -1.401  -0.085  0.00  0.00    +0.032 C 
ENDBRANCH  17  27
ENDBRANCH  15  20
ENDBRANCH   1  16
TORSDOF 4
