REMARK  Name = ZINC03457720
REMARK  6 active torsions:
REMARK  status: ('A' for Active; 'I' for Inactive)
REMARK    1  A    between atoms: C_1  and  C_2
REMARK    2  A    between atoms: C_2  and  N_3
REMARK    3  A    between atoms: C_10  and  C_18
REMARK    4  A    between atoms: C_11  and  C_12
REMARK    5  A    between atoms: C_18  and  C_20
REMARK    6  A    between atoms: C_20  and  N_21
REMARK                            x       y       z     vdW  Elec       q    Type
REMARK                         _______ _______ _______ _____ _____    ______ ____
ROOT
ATOM      1  N   UNL     1       0.009   1.505  -0.301  0.00  0.00    -0.340 N 
ATOM      2  C   UNL     1      -1.135   2.227  -0.024  0.00  0.00    +0.050 A 
ATOM      3  C   UNL     1      -2.485   1.890  -0.015  0.00  0.00    +0.026 A 
ATOM      4  C   UNL     1      -3.429   2.837   0.316  0.00  0.00    +0.002 A 
ATOM      5  C   UNL     1      -3.048   4.129   0.648  0.00  0.00    +0.001 A 
ATOM      6  C   UNL     1      -1.716   4.481   0.650  0.00  0.00    +0.011 A 
ATOM      7  C   UNL     1      -0.751   3.534   0.318  0.00  0.00    +0.011 A 
ATOM      8  C   UNL     1       0.720   3.568   0.222  0.00  0.00    +0.052 A 
ATOM      9  C   UNL     1       1.114   2.288  -0.163  0.00  0.00    +0.061 A 
ENDROOT
BRANCH   9  10
ATOM     10  C   UNL     1       2.506   1.852  -0.384  0.00  0.00    -0.001 A 
ATOM     11  C   UNL     1       3.022   0.764   0.325  0.00  0.00    +0.010 A 
ATOM     12  C   UNL     1       4.322   0.357   0.108  0.00  0.00    +0.001 A 
ATOM     13  C   UNL     1       5.118   1.032  -0.801  0.00  0.00    +0.000 A 
ATOM     14  C   UNL     1       4.616   2.114  -1.502  0.00  0.00    +0.001 A 
ATOM     15  C   UNL     1       3.316   2.528  -1.300  0.00  0.00    +0.010 A 
ENDBRANCH   9  10
BRANCH   1  17
ATOM     16  C   UNL     1       0.036  -0.009  -2.222  0.00  0.00    +0.027 C 
ATOM     17  C   UNL     1       0.030   0.094  -0.696  0.00  0.00    +0.119 C 
ENDBRANCH   1  17
BRANCH   8  18
ATOM     18  C   UNL     1       1.561   4.677   0.469  0.00  0.00    +0.183 C 
ATOM     19  O   UNL     1       2.765   4.564   0.350  0.00  0.00    -0.290 OA
BRANCH  18  20
ATOM     20  C   UNL     1       0.965   5.998   0.879  0.00  0.00    +0.197 C 
BRANCH  20  21
ATOM     21  N   UNL     1       2.036   6.978   1.074  0.00  0.00    -0.217 N 
ATOM     22  C   UNL     1       2.513   7.784   0.102  0.00  0.00    +0.247 C 
ATOM     23  O   UNL     1       2.151   7.833  -1.054  0.00  0.00    -0.273 OA
ATOM     24  C   UNL     1       3.594   8.612   0.758  0.00  0.00    +0.113 C 
ATOM     25  C   UNL     1       3.237  10.093   0.698  0.00  0.00    +0.035 C 
ATOM     26  C   UNL     1       4.329  10.912   1.392  0.00  0.00    +0.003 C 
ATOM     27  C   UNL     1       5.670  10.664   0.698  0.00  0.00    +0.000 C 
ATOM     28  C   UNL     1       6.025   9.178   0.788  0.00  0.00    +0.003 C 
ATOM     29  C   UNL     1       4.940   8.353   0.091  0.00  0.00    +0.035 C 
ATOM     30  N   UNL     1       3.608   8.141   2.149  0.00  0.00    -0.285 N 
ATOM     31  C   UNL     1       2.659   7.190   2.239  0.00  0.00    +0.310 C 
ATOM     32  O   UNL     1       2.400   6.589   3.263  0.00  0.00    -0.252 OA
ATOM     33  H   UNL     1       4.185   8.456   2.863  0.00  0.00    +0.151 HD
ENDBRANCH  20  21
ENDBRANCH  18  20
ENDBRANCH   8  18
TORSDOF 5
