REMARK  Name = ZINC08636942
REMARK  8 active torsions:
REMARK  status: ('A' for Active; 'I' for Inactive)
REMARK    1  A    between atoms: C_1  and  C_2
REMARK    2  A    between atoms: C_3  and  C_13
REMARK    3  A    between atoms: N_5  and  C_7
REMARK    4  A    between atoms: N_14  and  N_15
REMARK    5  A    between atoms: C_16  and  C_18
REMARK    6  A    between atoms: C_19  and  N_37
REMARK    7  A    between atoms: C_21  and  C_32
REMARK    8  A    between atoms: C_23  and  C_27
REMARK                            x       y       z     vdW  Elec       q    Type
REMARK                         _______ _______ _______ _____ _____    ______ ____
ROOT
ATOM      1  C   UNL     1       0.542   9.620   0.046  0.00  0.00    +0.215 A 
ATOM      2  C   UNL     1       1.853   9.180   0.032  0.00  0.00    +0.086 A 
ATOM      3  C   UNL     1       1.780   7.720   0.025  0.00  0.00    +0.072 A 
ATOM      4  C   UNL     1       2.744   6.688   0.010  0.00  0.00    +0.033 A 
ATOM      5  C   UNL     1       2.289   5.370   0.013  0.00  0.00    +0.041 A 
ATOM      6  C   UNL     1       0.913   5.129   0.019  0.00  0.00    +0.082 A 
ATOM      7  N   UNL     1       0.035   6.126   0.033  0.00  0.00    -0.211 NA
ATOM      8  C   UNL     1       0.412   7.396   0.036  0.00  0.00    +0.231 A 
ATOM      9  O   UNL     1      -0.286   8.550   0.049  0.00  0.00    -0.430 OA
ENDROOT
BRANCH   6  10
ATOM     10  C   UNL     1       0.425   3.737   0.017  0.00  0.00    +0.038 A 
ATOM     11  C   UNL     1      -0.866   3.275   0.026  0.00  0.00    +0.017 A 
ATOM     12  C   UNL     1      -1.081   1.916   0.017  0.00  0.00    +0.008 A 
ATOM     13  C   UNL     1      -0.013   1.076   0.008  0.00  0.00    +0.046 A 
ATOM     14  S   UNL     1       1.360   2.217   0.001  0.00  0.00    -0.095 S 
ENDBRANCH   6  10
BRANCH   4  15
ATOM     15  C   UNL     1       4.186   6.995  -0.001  0.00  0.00    +0.136 A 
ATOM     16  C   UNL     1       5.122   6.467   0.836  0.00  0.00    +0.050 A 
ATOM     17  C   UNL     1       6.357   7.033   0.469  0.00  0.00    +0.042 A 
ATOM     18  C   UNL     1       6.118   7.876  -0.556  0.00  0.00    +0.196 A 
ATOM     19  O   UNL     1       4.806   7.850  -0.837  0.00  0.00    -0.463 OA
ENDBRANCH   4  15
BRANCH   1  21
ATOM     20  N   UNL     1      -1.181  11.279   0.071  0.00  0.00    -0.200 N 
ATOM     21  C   UNL     1       0.132  10.973   0.057  0.00  0.00    +0.300 C 
ATOM     22  O   UNL     1       0.965  11.862   0.053  0.00  0.00    -0.265 OA
ATOM     23  H   UNL     1      -1.844  10.571   0.073  0.00  0.00    +0.178 HD
BRANCH  20  25
ATOM     24  C   UNL     1      -2.851  12.915   0.095  0.00  0.00    +0.141 C 
ATOM     25  N   UNL     1      -1.587  12.620   0.081  0.00  0.00    -0.187 NA
BRANCH  24  28
ATOM     26  C   UNL     1      -0.926  15.435   0.102  0.00  0.00    +0.068 C 
ATOM     27  C   UNL     1      -2.433  15.458   0.109  0.00  0.00    +0.069 A 
ATOM     28  C   UNL     1      -3.279  14.327   0.105  0.00  0.00    +0.035 A 
ATOM     29  C   UNL     1      -4.578  14.787   0.120  0.00  0.00    +0.124 A 
ATOM     30  N   UNL     1      -4.527  16.136   0.126  0.00  0.00    -0.239 N 
ATOM     31  N   UNL     1      -3.183  16.527   0.115  0.00  0.00    -0.171 NA
BRANCH  30  32
ATOM     32  C   UNL     1      -5.632  16.998   0.142  0.00  0.00    +0.065 A 
ATOM     33  C   UNL     1      -6.920  16.479   0.147  0.00  0.00    +0.028 A 
ATOM     34  C   UNL     1      -8.006  17.332   0.168  0.00  0.00    +0.002 A 
ATOM     35  C   UNL     1      -7.813  18.701   0.172  0.00  0.00    +0.000 A 
ATOM     36  C   UNL     1      -6.532  19.221   0.162  0.00  0.00    +0.002 A 
ATOM     37  C   UNL     1      -5.441  18.374   0.147  0.00  0.00    +0.028 A 
ENDBRANCH  30  32
ENDBRANCH  24  28
ENDBRANCH  20  25
ENDBRANCH   1  21
BRANCH   2  38
ATOM     38  N   UNL     1       2.998   9.962   0.026  0.00  0.00    -0.354 N 
ATOM     39  H   UNL     1       2.926  10.929   0.032  0.00  0.00    +0.142 HD
ATOM     40  H   UNL     1       3.872   9.541   0.016  0.00  0.00    +0.142 HD
ENDBRANCH   2  38
TORSDOF 7
