REMARK  Name = ZINC13100534
REMARK  9 active torsions:
REMARK  status: ('A' for Active; 'I' for Inactive)
REMARK    1  A    between atoms: C_8  and  S_10
REMARK    2  A    between atoms: S_10  and  C_11
REMARK    3  A    between atoms: C_11  and  C_12
REMARK    4  A    between atoms: C_15  and  C_18
REMARK    5  A    between atoms: C_18  and  O_20
REMARK    6  A    between atoms: O_20  and  C_21
REMARK    7  A    between atoms: C_21  and  C_22
REMARK    8  A    between atoms: N_24  and  C_25
REMARK    9  A    between atoms: C_26  and  C_30
REMARK                            x       y       z     vdW  Elec       q    Type
REMARK                         _______ _______ _______ _____ _____    ______ ____
ROOT
ATOM      1  C   UNL     1      -0.014   1.210   0.009  0.00  0.00    +0.340 C 
ATOM      2  O   UNL     1       0.002  -0.004   0.002  0.00  0.00    -0.245 OA
ENDROOT
BRANCH   1   6
ATOM      3  C   UNL     1      -3.720   3.284   0.037  0.00  0.00    -0.037 A 
ATOM      4  C   UNL     1      -3.705   1.900   0.030  0.00  0.00    +0.005 A 
ATOM      5  C   UNL     1      -2.505   1.220   0.021  0.00  0.00    +0.015 A 
ATOM      6  C   UNL     1      -1.304   1.932   0.019  0.00  0.00    +0.059 A 
ATOM      7  C   UNL     1      -1.326   3.328   0.032  0.00  0.00    +0.015 A 
ATOM      8  C   UNL     1      -2.534   3.995   0.036  0.00  0.00    +0.005 A 
BRANCH   3   9
ATOM      9  C   UNL     1      -5.036   4.019   0.047  0.00  0.00    +0.111 C 
BRANCH   9  10
ATOM     10  S   UNL     1      -5.555   4.305   1.758  0.00  0.00    -0.094 S 
BRANCH  10  18
ATOM     11  C   UNL     1     -11.156   7.439   2.304  0.00  0.00    +0.002 A 
ATOM     12  C   UNL     1     -11.335   7.544   0.933  0.00  0.00    +0.001 A 
ATOM     13  C   UNL     1     -10.383   7.013   0.083  0.00  0.00    +0.017 A 
ATOM     14  C   UNL     1      -9.277   6.392   0.607  0.00  0.00    +0.040 A 
ATOM     15  C   UNL     1      -9.061   6.266   1.998  0.00  0.00    +0.079 A 
ATOM     16  C   UNL     1     -10.055   6.820   2.837  0.00  0.00    +0.029 A 
ATOM     17  N   UNL     1      -7.926   5.629   2.359  0.00  0.00    -0.233 NA
ATOM     18  C   UNL     1      -7.073   5.155   1.479  0.00  0.00    +0.136 A 
ATOM     19  S   UNL     1      -7.841   5.598  -0.073  0.00  0.00    -0.061 S 
ENDBRANCH  10  18
ENDBRANCH   9  10
ENDBRANCH   3   9
ENDBRANCH   1   6
BRANCH   1  20
ATOM     20  O   UNL     1       1.143   1.900   0.001  0.00  0.00    -0.452 OA
BRANCH  20  21
ATOM     21  C   UNL     1       2.371   1.126  -0.015  0.00  0.00    +0.328 C 
BRANCH  21  22
ATOM     22  C   UNL     1       3.554   2.060  -0.021  0.00  0.00    +0.255 C 
ATOM     23  O   UNL     1       3.379   3.260  -0.013  0.00  0.00    -0.272 OA
ATOM     24  N   UNL     1       4.806   1.562  -0.035  0.00  0.00    -0.277 N 
ATOM     25  H   UNL     1       4.946   0.602  -0.042  0.00  0.00    +0.155 HD
BRANCH  24  26
ATOM     26  C   UNL     1       5.894   2.421  -0.041  0.00  0.00    +0.084 A 
ATOM     27  C   UNL     1       7.247   2.102  -0.050  0.00  0.00    +0.065 A 
ATOM     28  C   UNL     1       8.175   3.207  -0.058  0.00  0.00    +0.022 A 
ATOM     29  C   UNL     1       7.653   4.447  -0.046  0.00  0.00    +0.048 A 
ATOM     30  S   UNL     1       5.897   4.153  -0.031  0.00  0.00    -0.081 S 
BRANCH  27  31
ATOM     31  C   UNL     1       7.708   0.710  -0.055  0.00  0.00    +0.244 C 
ATOM     32  O   UNL     1       6.899  -0.199  -0.051  0.00  0.00    -0.270 OA
ATOM     33  N   UNL     1       9.028   0.438  -0.064  0.00  0.00    -0.325 N 
ATOM     34  H   UNL     1       9.673   1.163  -0.067  0.00  0.00    +0.145 HD
ATOM     35  H   UNL     1       9.333  -0.483  -0.067  0.00  0.00    +0.145 HD
ENDBRANCH  27  31
ENDBRANCH  24  26
ENDBRANCH  21  22
ENDBRANCH  20  21
ENDBRANCH   1  20
TORSDOF 9
