REMARK  Name = ZINC39545447
REMARK  8 active torsions:
REMARK  status: ('A' for Active; 'I' for Inactive)
REMARK    1  A    between atoms: C_1  and  O_2
REMARK    2  A    between atoms: O_2  and  N_3
REMARK    3  A    between atoms: N_3  and  C_4
REMARK    4  A    between atoms: C_9  and  O_10
REMARK    5  A    between atoms: C_11  and  C_13
REMARK    6  A    between atoms: C_16  and  S_27
REMARK    7  A    between atoms: S_27  and  O_30
REMARK    8  A    between atoms: O_30  and  C_31
REMARK                            x       y       z     vdW  Elec       q    Type
REMARK                         _______ _______ _______ _____ _____    ______ ____
ROOT
ATOM      1  C   UNL     1      -1.685  -0.409  -1.959  0.00  0.00    +0.152 C 
ATOM      2  C   UNL     1      -2.482  -1.410  -1.100  0.00  0.00    +0.092 C 
ATOM      3  C   UNL     1      -3.244  -2.237  -2.110  0.00  0.00    +0.142 C 
ATOM      4  C   UNL     1      -2.969  -1.814  -3.317  0.00  0.00    +0.100 C 
ATOM      5  N   UNL     1      -3.459  -2.360  -4.517  0.00  0.00    -0.302 N 
ATOM      6  C   UNL     1      -2.542  -2.366  -5.582  0.00  0.00    +0.037 A 
ATOM      7  C   UNL     1      -2.877  -2.984  -6.778  0.00  0.00    +0.023 A 
ATOM      8  C   UNL     1      -1.980  -2.981  -7.828  0.00  0.00    +0.002 A 
ATOM      9  C   UNL     1      -0.752  -2.361  -7.681  0.00  0.00    +0.000 A 
ATOM     10  C   UNL     1      -0.416  -1.750  -6.489  0.00  0.00    +0.007 A 
ATOM     11  C   UNL     1      -1.307  -1.752  -5.428  0.00  0.00    -0.010 A 
ATOM     12  C   UNL     1      -0.903  -1.098  -4.133  0.00  0.00    +0.124 C 
ATOM     13  N   UNL     1      -2.081  -0.726  -3.341  0.00  0.00    -0.368 NA
ATOM     14  H   UNL     1      -4.361  -2.706  -4.603  0.00  0.00    +0.153 HD
ATOM     15  H   UNL     1      -2.532   0.074  -3.758  0.00  0.00    +0.129 HD
ENDROOT
BRANCH   1  17
ATOM     16  N   UNL     1       0.603   0.444  -1.563  0.00  0.00    -0.144 N 
ATOM     17  C   UNL     1      -0.204  -0.615  -1.773  0.00  0.00    +0.262 C 
ATOM     18  O   UNL     1       0.262  -1.734  -1.812  0.00  0.00    -0.271 OA
BRANCH  16  19
ATOM     19  C   UNL     1       1.980   0.252  -1.390  0.00  0.00    +0.106 A 
ATOM     20  C   UNL     1       2.815   0.168  -2.495  0.00  0.00    +0.029 A 
ATOM     21  C   UNL     1       4.173  -0.021  -2.322  0.00  0.00    +0.002 A 
ATOM     22  C   UNL     1       4.702  -0.128  -1.049  0.00  0.00    +0.004 A 
ATOM     23  C   UNL     1       3.877  -0.046   0.057  0.00  0.00    +0.047 A 
ATOM     24  C   UNL     1       2.515   0.150  -0.108  0.00  0.00    +0.140 A 
BRANCH  24  25
ATOM     25  O   UNL     1       1.702   0.237   0.979  0.00  0.00    -0.505 OA
ATOM     26  H   UNL     1       1.347  -0.612   1.274  0.00  0.00    +0.292 HD
ENDBRANCH  24  25
ENDBRANCH  16  19
BRANCH  16  28
ATOM     27  C   UNL     1       0.014   2.406  -2.787  0.00  0.00    +0.227 C 
ATOM     28  O   UNL     1       0.059   1.750  -1.518  0.00  0.00    -0.276 OA
ENDBRANCH  16  28
ENDBRANCH   1  17
BRANCH   3  29
ATOM     29  S   UNL     1      -4.334  -3.566  -1.722  0.00  0.00    +0.150 S 
ATOM     30  O   UNL     1      -5.165  -3.113  -0.662  0.00  0.00    -0.132 OA
ATOM     31  O   UNL     1      -4.860  -4.034  -2.956  0.00  0.00    -0.132 OA
BRANCH  29  32
ATOM     32  O   UNL     1      -3.484  -4.695  -1.155  0.00  0.00    -0.342 OA
BRANCH  32  33
ATOM     33  C   UNL     1      -2.771  -5.374  -2.093  0.00  0.00    +0.157 A 
ATOM     34  C   UNL     1      -3.289  -6.532  -2.655  0.00  0.00    +0.048 A 
ATOM     35  C   UNL     1      -2.563  -7.220  -3.607  0.00  0.00    +0.004 A 
ATOM     36  C   UNL     1      -1.321  -6.755  -4.001  0.00  0.00    +0.000 A 
ATOM     37  C   UNL     1      -0.803  -5.601  -3.442  0.00  0.00    +0.004 A 
ATOM     38  C   UNL     1      -1.528  -4.906  -2.493  0.00  0.00    +0.048 A 
ENDBRANCH  32  33
ENDBRANCH  29  32
ENDBRANCH   3  29
TORSDOF 7
