REMARK  Name = ZINC19939673
REMARK  5 active torsions:
REMARK  status: ('A' for Active; 'I' for Inactive)
REMARK    1  A    between atoms: C_4  and  C_7
REMARK    2  A    between atoms: C_7  and  C_8
REMARK    3  A    between atoms: N_15  and  C_16
REMARK    4  A    between atoms: C_16  and  C_17
REMARK    5  A    between atoms: C_22  and  C_23
REMARK                            x       y       z     vdW  Elec       q    Type
REMARK                         _______ _______ _______ _____ _____    ______ ____
ROOT
ATOM      1  C   UNL     1       2.615   1.179   2.061  0.00  0.00    +0.124 C 
ENDROOT
BRANCH   1   8
ATOM      2  C   UNL     1       3.475  -0.954   1.303  0.00  0.00    +0.148 C 
ATOM      3  C   UNL     1       4.639  -1.900   1.397  0.00  0.00    +0.231 C 
ATOM      4  O   UNL     1       4.693  -2.833   0.624  0.00  0.00    -0.274 OA
ATOM      5  N   UNL     1       5.618  -1.755   2.296  0.00  0.00    -0.313 N 
ATOM      6  C   UNL     1       5.666  -0.647   3.246  0.00  0.00    +0.119 C 
ATOM      7  C   UNL     1       4.286   0.004   3.362  0.00  0.00    +0.104 C 
ATOM      8  N   UNL     1       3.788   0.296   2.009  0.00  0.00    -0.285 NA
ATOM      9  H   UNL     1       6.327  -2.416   2.319  0.00  0.00    +0.149 HD
BRANCH   2  10
ATOM     10  C   UNL     1       3.187  -0.648  -0.168  0.00  0.00    +0.063 C 
BRANCH  10  14
ATOM     11  C   UNL     1       1.799  -4.187  -2.116  0.00  0.00    +0.000 A 
ATOM     12  C   UNL     1       0.922  -3.417  -1.374  0.00  0.00    +0.000 A 
ATOM     13  C   UNL     1       1.371  -2.272  -0.744  0.00  0.00    +0.004 A 
ATOM     14  C   UNL     1       2.697  -1.897  -0.855  0.00  0.00    -0.045 A 
ATOM     15  C   UNL     1       3.574  -2.667  -1.595  0.00  0.00    +0.004 A 
ATOM     16  C   UNL     1       3.125  -3.812  -2.227  0.00  0.00    +0.000 A 
ENDBRANCH  10  14
ENDBRANCH   2  10
ENDBRANCH   1   8
BRANCH   1  17
ATOM     17  C   UNL     1       3.046   2.562   2.475  0.00  0.00    +0.015 A 
ATOM     18  C   UNL     1       2.868   3.119   3.692  0.00  0.00    +0.110 A 
ATOM     19  N   UNL     1       3.391   4.364   3.663  0.00  0.00    -0.284 N 
ATOM     20  H   UNL     1       3.403   4.994   4.401  0.00  0.00    +0.188 HD
ATOM     21  N   UNL     1       3.913   4.589   2.383  0.00  0.00    -0.170 NA
ATOM     22  C   UNL     1       3.714   3.503   1.664  0.00  0.00    +0.132 A 
BRANCH  22  23
ATOM     23  C   UNL     1       4.115   3.307   0.254  0.00  0.00    +0.156 A 
ATOM     24  C   UNL     1       4.073   4.260  -0.707  0.00  0.00    +0.060 A 
ATOM     25  C   UNL     1       4.558   3.622  -1.933  0.00  0.00    +0.021 A 
ATOM     26  C   UNL     1       4.752   4.056  -3.245  0.00  0.00    +0.011 A 
ATOM     27  C   UNL     1       5.234   3.186  -4.183  0.00  0.00    +0.001 A 
ATOM     28  C   UNL     1       5.530   1.875  -3.838  0.00  0.00    +0.004 A 
ATOM     29  C   UNL     1       5.345   1.427  -2.547  0.00  0.00    +0.047 A 
ATOM     30  C   UNL     1       4.857   2.295  -1.578  0.00  0.00    +0.136 A 
ATOM     31  O   UNL     1       4.582   2.154  -0.265  0.00  0.00    -0.453 OA
ENDBRANCH  22  23
ENDBRANCH   1  17
TORSDOF 5
