REMARK  Name = ZINC05743399
REMARK  5 active torsions:
REMARK  status: ('A' for Active; 'I' for Inactive)
REMARK    1  A    between atoms: C_1  and  O_2
REMARK    2  A    between atoms: O_2  and  C_3
REMARK    3  A    between atoms: C_7  and  C_27
REMARK    4  A    between atoms: C_18  and  C_21
REMARK    5  A    between atoms: C_27  and  O_28
REMARK                            x       y       z     vdW  Elec       q    Type
REMARK                         _______ _______ _______ _____ _____    ______ ____
ROOT
ATOM      1  C   UNL     1       1.385   1.894  -2.435  0.00  0.00    +0.254 C 
ATOM      2  C   UNL     1      -0.135   1.942  -2.465  0.00  0.00    +0.057 C 
ATOM      3  C   UNL     1      -0.939   0.651  -2.394  0.00  0.00    +0.029 C 
ATOM      4  C   UNL     1      -0.925   1.598  -1.198  0.00  0.00    +0.034 C 
ATOM      5  C   UNL     1      -0.144   1.090   0.013  0.00  0.00    +0.157 C 
ATOM      6  C   UNL     1       1.295   1.615  -0.076  0.00  0.00    +0.176 C 
ATOM      7  O   UNL     1       1.860   1.159  -1.303  0.00  0.00    -0.343 OA
ATOM      8  C   UNL     1       2.068   1.100   1.136  0.00  0.00    +0.197 C 
ATOM      9  O   UNL     1       1.371   1.519   2.318  0.00  0.00    -0.345 OA
ATOM     10  C   UNL     1       0.010   1.095   2.388  0.00  0.00    +0.282 C 
ATOM     11  O   UNL     1      -0.714   1.547   1.237  0.00  0.00    -0.341 OA
ENDROOT
BRANCH  10  12
ATOM     12  C   UNL     1      -0.041  -0.410   2.445  0.00  0.00    +0.008 A 
ATOM     13  C   UNL     1      -1.143  -1.083   1.954  0.00  0.00    +0.008 A 
ATOM     14  C   UNL     1      -1.188  -2.464   2.002  0.00  0.00    +0.000 A 
ATOM     15  C   UNL     1      -0.135  -3.171   2.550  0.00  0.00    +0.000 A 
ATOM     16  C   UNL     1       0.966  -2.498   3.046  0.00  0.00    +0.000 A 
ATOM     17  C   UNL     1       1.013  -1.117   2.994  0.00  0.00    +0.008 A 
ENDBRANCH  10  12
BRANCH   1  19
ATOM     18  C   UNL     1       3.300   3.325  -2.606  0.00  0.00    +0.197 C 
ATOM     19  O   UNL     1       1.894   3.228  -2.372  0.00  0.00    -0.354 OA
ENDBRANCH   1  19
BRANCH   3  20
ATOM     20  C   UNL     1      -2.225   0.573  -3.219  0.00  0.00    +0.160 C 
BRANCH  20  21
ATOM     21  O   UNL     1      -2.095  -0.449  -4.210  0.00  0.00    -0.395 OA
ATOM     22  H   UNL     1      -2.875  -0.554  -4.771  0.00  0.00    +0.209 HD
ENDBRANCH  20  21
ENDBRANCH   3  20
TORSDOF 4
