REMARK  Name = ZINC02543340
REMARK  9 active torsions:
REMARK  status: ('A' for Active; 'I' for Inactive)
REMARK    1  A    between atoms: C_1  and  C_2
REMARK    2  A    between atoms: C_2  and  C_3
REMARK    3  A    between atoms: C_6  and  N_9
REMARK    4  A    between atoms: C_10  and  C_12
REMARK    5  A    between atoms: N_14  and  N_15
REMARK    6  A    between atoms: C_16  and  C_17
REMARK    7  A    between atoms: C_22  and  O_23
REMARK    8  A    between atoms: O_23  and  C_24
REMARK    9  A    between atoms: C_24  and  C_26
REMARK                            x       y       z     vdW  Elec       q    Type
REMARK                         _______ _______ _______ _____ _____    ______ ____
ROOT
ATOM      1  N   UNL     1      -0.558   2.566   0.052  0.00  0.00    -0.187 NA
ATOM      2  C   UNL     1       0.615   2.016  -0.051  0.00  0.00    +0.142 C 
ENDROOT
BRANCH   2   3
ATOM      3  C   UNL     1       1.821   2.860  -0.113  0.00  0.00    +0.038 A 
ATOM      4  C   UNL     1       3.089   2.273  -0.128  0.00  0.00    +0.028 A 
ATOM      5  C   UNL     1       4.214   3.069  -0.186  0.00  0.00    +0.019 A 
ATOM      6  C   UNL     1       4.092   4.449  -0.229  0.00  0.00    +0.019 A 
ATOM      7  C   UNL     1       2.844   5.041  -0.215  0.00  0.00    +0.048 A 
ATOM      8  C   UNL     1       1.703   4.256  -0.162  0.00  0.00    +0.141 A 
ATOM      9 BR   UNL     1       5.930   2.274  -0.206  0.00  0.00    -0.050 Br
BRANCH   8  10
ATOM     10  O   UNL     1       0.475   4.837  -0.153  0.00  0.00    -0.422 OA
BRANCH  10  11
ATOM     11  C   UNL     1      -0.058   5.122   1.051  0.00  0.00    +0.344 C 
ATOM     12  O   UNL     1       0.507   4.764   2.065  0.00  0.00    -0.245 OA
BRANCH  11  13
ATOM     13  C   UNL     1      -1.329   5.868   1.137  0.00  0.00    +0.059 A 
ATOM     14  C   UNL     1      -2.029   6.200  -0.025  0.00  0.00    +0.015 A 
ATOM     15  C   UNL     1      -3.218   6.892   0.064  0.00  0.00    +0.001 A 
ATOM     16  C   UNL     1      -3.713   7.268   1.300  0.00  0.00    +0.000 A 
ATOM     17  C   UNL     1      -3.023   6.948   2.455  0.00  0.00    +0.001 A 
ATOM     18  C   UNL     1      -1.835   6.250   2.382  0.00  0.00    +0.015 A 
ENDBRANCH  11  13
ENDBRANCH  10  11
ENDBRANCH   8  10
ENDBRANCH   2   3
BRANCH   1  21
ATOM     19  C   UNL     1      -2.921   2.326   0.214  0.00  0.00    +0.318 C 
ATOM     20  O   UNL     1      -3.045   3.512  -0.015  0.00  0.00    -0.263 OA
ATOM     21  N   UNL     1      -1.695   1.764   0.212  0.00  0.00    -0.199 N 
ATOM     22  H   UNL     1      -1.601   0.805   0.321  0.00  0.00    +0.178 HD
BRANCH  19  24
ATOM     23  N   UNL     1      -5.348   2.052   0.500  0.00  0.00    -0.278 N 
ATOM     24  C   UNL     1      -4.123   1.491   0.497  0.00  0.00    +0.305 C 
ATOM     25  O   UNL     1      -3.998   0.305   0.726  0.00  0.00    -0.265 OA
ATOM     26  H   UNL     1      -5.457   2.981   0.239  0.00  0.00    +0.155 HD
BRANCH  23  30
ATOM     27  C   UNL     1      -8.668  -0.196   1.625  0.00  0.00    -0.048 A 
ATOM     28  C   UNL     1      -7.447  -0.413   2.239  0.00  0.00    +0.005 A 
ATOM     29  C   UNL     1      -6.344   0.331   1.868  0.00  0.00    +0.023 A 
ATOM     30  C   UNL     1      -6.462   1.298   0.877  0.00  0.00    +0.034 A 
ATOM     31  C   UNL     1      -7.690   1.516   0.267  0.00  0.00    +0.023 A 
ATOM     32  C   UNL     1      -8.788   0.765   0.639  0.00  0.00    +0.005 A 
BRANCH  27  34
ATOM     33  C   UNL     1     -10.604  -0.300   3.171  0.00  0.00    +0.009 C 
ATOM     34  C   UNL     1      -9.869  -1.010   2.032  0.00  0.00    +0.032 C 
ENDBRANCH  27  34
ENDBRANCH  23  30
ENDBRANCH  19  24
ENDBRANCH   1  21
TORSDOF 8
