REMARK  Name = ZINC02927423
REMARK  10 active torsions:
REMARK  status: ('A' for Active; 'I' for Inactive)
REMARK    1  A    between atoms: C_1  and  C_2
REMARK    2  A    between atoms: N_6  and  C_26
REMARK    3  A    between atoms: C_7  and  S_13
REMARK    4  A    between atoms: S_13  and  C_14
REMARK    5  A    between atoms: C_14  and  C_15
REMARK    6  A    between atoms: N_17  and  C_18
REMARK    7  A    between atoms: C_18  and  C_19
REMARK    8  A    between atoms: C_19  and  C_20
REMARK    9  A    between atoms: C_29  and  O_32
REMARK   10  A    between atoms: O_32  and  C_33
REMARK                            x       y       z     vdW  Elec       q    Type
REMARK                         _______ _______ _______ _____ _____    ______ ____
ROOT
ATOM      1  C   UNL     1      -0.013   1.086   0.008  0.00  0.00    +0.068 C 
ATOM      2  C   UNL     1      -0.718   1.572   1.248  0.00  0.00    +0.072 A 
ATOM      3  C   UNL     1      -2.095   1.832   1.363  0.00  0.00    +0.082 A 
ATOM      4  C   UNL     1      -3.238   1.733   0.446  0.00  0.00    +0.124 A 
ATOM      5  N   UNL     1      -3.085   1.336  -0.794  0.00  0.00    -0.384 N 
ATOM      6  N   UNL     1      -4.484   2.083   0.942  0.00  0.00    -0.275 N 
ATOM      7  C   UNL     1      -4.603   2.493   2.242  0.00  0.00    +0.177 A 
ATOM      8  N   UNL     1      -3.579   2.575   3.057  0.00  0.00    -0.204 NA
ATOM      9  C   UNL     1      -2.332   2.260   2.676  0.00  0.00    +0.162 A 
ATOM     10  N   UNL     1      -1.127   2.258   3.308  0.00  0.00    -0.260 N 
ATOM     11  H   UNL     1      -1.058   2.565   4.362  0.00  0.00    +0.191 HD
ATOM     12  N   UNL     1      -0.154   1.828   2.397  0.00  0.00    -0.177 NA
ATOM     13  H   UNL     1      -3.957   1.270  -1.462  0.00  0.00    +0.157 HD
ATOM     14  H   UNL     1      -2.086   1.068  -1.167  0.00  0.00    +0.157 HD
ENDROOT
BRANCH   6  15
ATOM     15  C   UNL     1      -5.616   2.016   0.117  0.00  0.00    +0.051 A 
ATOM     16  C   UNL     1      -6.049   0.790  -0.370  0.00  0.00    +0.030 A 
ATOM     17  C   UNL     1      -7.166   0.725  -1.179  0.00  0.00    +0.047 A 
ATOM     18  C   UNL     1      -7.850   1.885  -1.512  0.00  0.00    +0.120 A 
ATOM     19  C   UNL     1      -7.415   3.111  -1.030  0.00  0.00    +0.047 A 
ATOM     20  C   UNL     1      -6.300   3.177  -0.217  0.00  0.00    +0.030 A 
BRANCH  18  21
ATOM     21  O   UNL     1      -8.947   1.821  -2.313  0.00  0.00    -0.495 OA
ATOM     22  C   UNL     1      -9.339   0.526  -2.774  0.00  0.00    +0.277 C 
ENDBRANCH  18  21
ENDBRANCH   6  15
BRANCH   7  23
ATOM     23  S   UNL     1      -6.199   2.931   2.846  0.00  0.00    -0.078 S 
BRANCH  23  24
ATOM     24  C   UNL     1      -5.779   3.377   4.549  0.00  0.00    +0.173 C 
BRANCH  24  25
ATOM     25  C   UNL     1      -7.028   3.798   5.281  0.00  0.00    +0.223 C 
ATOM     26  O   UNL     1      -8.097   3.796   4.707  0.00  0.00    -0.275 OA
ATOM     27  N   UNL     1      -6.957   4.176   6.572  0.00  0.00    -0.314 N 
ATOM     28  H   UNL     1      -5.988   4.177   7.093  0.00  0.00    +0.149 HD
BRANCH  27  29
ATOM     29  C   UNL     1      -8.171   4.585   7.284  0.00  0.00    +0.108 C 
BRANCH  29  30
ATOM     30  C   UNL     1      -7.816   4.962   8.723  0.00  0.00    +0.049 C 
BRANCH  30  31
ATOM     31  C   UNL     1      -9.065   5.382   9.455  0.00  0.00    -0.072 C 
ATOM     32  C   UNL     1      -9.687   4.490  10.157  0.00  0.00    -0.028 C 
ATOM     33  C   UNL     1     -10.945   4.755  10.930  0.00  0.00    +0.027 C 
ATOM     34  C   UNL     1     -11.139   6.261  11.120  0.00  0.00    +0.004 C 
ATOM     35  C   UNL     1     -10.970   6.948   9.759  0.00  0.00    +0.005 C 
ATOM     36  C   UNL     1      -9.507   6.811   9.329  0.00  0.00    +0.030 C 
ENDBRANCH  30  31
ENDBRANCH  29  30
ENDBRANCH  27  29
ENDBRANCH  24  25
ENDBRANCH  23  24
ENDBRANCH   7  23
TORSDOF 8
