REMARK  Name = ZINC09638329
REMARK  7 active torsions:
REMARK  status: ('A' for Active; 'I' for Inactive)
REMARK    1  A    between atoms: C_1  and  C_2
REMARK    2  A    between atoms: C_2  and  C_32
REMARK    3  A    between atoms: C_13  and  C_15
REMARK    4  A    between atoms: C_15  and  S_16
REMARK    5  A    between atoms: S_16  and  C_17
REMARK    6  A    between atoms: C_20  and  C_25
REMARK    7  A    between atoms: N_21  and  C_22
REMARK                            x       y       z     vdW  Elec       q    Type
REMARK                         _______ _______ _______ _____ _____    ______ ____
ROOT
ATOM      1  C   UNL     1      -2.995  -0.139   0.237  0.00  0.00    +0.173 C 
ENDROOT
BRANCH   1  14
ATOM      2  C   UNL     1       0.162   1.618   0.386  0.00  0.00    +0.042 C 
ATOM      3  C   UNL     1      -0.678   0.980   1.494  0.00  0.00    +0.113 C 
ATOM      4  C   UNL     1       0.042   1.111   2.811  0.00  0.00    +0.241 C 
ATOM      5  O   UNL     1       0.817   0.245   3.160  0.00  0.00    -0.273 OA
ATOM      6  N   UNL     1      -0.165   2.177   3.607  0.00  0.00    -0.282 N 
ATOM      7  C   UNL     1      -1.091   3.164   3.252  0.00  0.00    +0.055 A 
ATOM      8  C   UNL     1      -1.106   4.389   3.900  0.00  0.00    +0.025 A 
ATOM      9  C   UNL     1      -2.037   5.346   3.542  0.00  0.00    +0.002 A 
ATOM     10  C   UNL     1      -2.954   5.089   2.538  0.00  0.00    +0.002 A 
ATOM     11  C   UNL     1      -2.945   3.870   1.884  0.00  0.00    +0.025 A 
ATOM     12  C   UNL     1      -2.015   2.909   2.237  0.00  0.00    +0.059 A 
ATOM     13  N   UNL     1      -1.975   1.666   1.586  0.00  0.00    -0.255 N 
ATOM     14  C   UNL     1      -3.089   1.119   1.062  0.00  0.00    +0.231 C 
ATOM     15  O   UNL     1      -4.168   1.639   1.254  0.00  0.00    -0.274 OA
ATOM     16  C   UNL     1      -0.901  -0.501   1.178  0.00  0.00    +0.042 C 
ATOM     17  H   UNL     1       0.333   2.262   4.435  0.00  0.00    +0.155 HD
ENDBRANCH   1  14
BRANCH   1  18
ATOM     18  S   UNL     1      -4.611  -0.503  -0.494  0.00  0.00    -0.077 S 
BRANCH  18  19
ATOM     19  C   UNL     1      -4.221  -1.977  -1.377  0.00  0.00    +0.193 A 
ATOM     20  N   UNL     1      -3.048  -2.566  -1.433  0.00  0.00    -0.122 NA
ATOM     21  N   UNL     1      -3.118  -3.621  -2.163  0.00  0.00    -0.128 NA
ATOM     22  C   UNL     1      -4.337  -3.766  -2.626  0.00  0.00    +0.168 A 
ATOM     23  N   UNL     1      -5.082  -2.717  -2.137  0.00  0.00    -0.299 N 
BRANCH  22  24
ATOM     24  C   UNL     1      -4.819  -4.851  -3.506  0.00  0.00    +0.054 A 
ATOM     25  C   UNL     1      -6.001  -5.528  -3.202  0.00  0.00    +0.014 A 
ATOM     26  C   UNL     1      -6.447  -6.540  -4.027  0.00  0.00    +0.001 A 
ATOM     27  C   UNL     1      -5.725  -6.885  -5.157  0.00  0.00    +0.003 A 
ATOM     28  C   UNL     1      -4.552  -6.220  -5.466  0.00  0.00    +0.039 A 
ATOM     29  C   UNL     1      -4.097  -5.200  -4.651  0.00  0.00    +0.134 A 
ATOM     30  F   UNL     1      -2.955  -4.547  -4.957  0.00  0.00    -0.205 F 
ENDBRANCH  22  24
BRANCH  23  31
ATOM     31  C   UNL     1      -6.502  -2.451  -2.381  0.00  0.00    +0.091 C 
ATOM     32  C   UNL     1      -7.018  -1.043  -2.078  0.00  0.00    +0.027 C 
ATOM     33  C   UNL     1      -7.395  -2.210  -1.163  0.00  0.00    +0.027 C 
ENDBRANCH  23  31
ENDBRANCH  18  19
ENDBRANCH   1  18
TORSDOF 5
