REMARK  Name = ZINC03885264
REMARK  3 active torsions:
REMARK  status: ('A' for Active; 'I' for Inactive)
REMARK    1  A    between atoms: C_3  and  N_11
REMARK    2  A    between atoms: C_6  and  N_7
REMARK    3  A    between atoms: C_12  and  C_14
REMARK                            x       y       z     vdW  Elec       q    Type
REMARK                         _______ _______ _______ _____ _____    ______ ____
ROOT
ATOM      1  C   UNL     1      -3.671  -0.843  -0.159  0.00  0.00    +0.034 A 
ATOM      2  C   UNL     1      -2.458  -0.188  -0.072  0.00  0.00    +0.026 A 
ATOM      3  C   UNL     1      -2.418   1.200  -0.070  0.00  0.00    +0.048 A 
ATOM      4  C   UNL     1      -3.600   1.926  -0.151  0.00  0.00    +0.041 A 
ATOM      5  C   UNL     1      -4.810   1.264  -0.243  0.00  0.00    +0.049 A 
ATOM      6  C   UNL     1      -4.845  -0.118  -0.244  0.00  0.00    +0.127 A 
ATOM      7 BR   UNL     1      -3.554   3.816  -0.141  0.00  0.00    -0.048 Br
ENDROOT
BRANCH   3   8
ATOM      8  N   UNL     1      -1.191   1.867   0.018  0.00  0.00    -0.284 N 
ATOM      9  C   UNL     1      -0.096   1.343  -0.569  0.00  0.00    +0.232 C 
ATOM     10  O   UNL     1      -0.155   0.256  -1.103  0.00  0.00    -0.274 OA
ATOM     11  H   UNL     1      -1.128   2.705   0.501  0.00  0.00    +0.155 HD
BRANCH   9  12
ATOM     12  C   UNL     1       1.200   2.112  -0.566  0.00  0.00    +0.204 C 
ATOM     13 CL   UNL     1       2.466   1.159  -1.428  0.00  0.00    -0.116 Cl
ENDBRANCH   9  12
ENDBRANCH   3   8
BRANCH   6  14
ATOM     14  N   UNL     1      -6.143  -0.824  -0.337  0.00  0.00    +0.056 N 
ATOM     15  O   UNL     1      -6.176  -2.041  -0.337  0.00  0.00    -0.126 OA
ATOM     16  O   UNL     1      -7.179  -0.187  -0.412  0.00  0.00    -0.126 OA
ENDBRANCH   6  14
TORSDOF 3
