REMARK  Name = ZINC39464695
REMARK  3 active torsions:
REMARK  status: ('A' for Active; 'I' for Inactive)
REMARK    1  A    between atoms: C_1  and  O_2
REMARK    2  A    between atoms: O_2  and  P_3
REMARK    3  A    between atoms: C_12  and  O_19
REMARK                            x       y       z     vdW  Elec       q    Type
REMARK                         _______ _______ _______ _____ _____    ______ ____
ROOT
ATOM      1  P   UNL     1      -1.336  -0.899   0.010  0.00  0.00    +0.421 P 
ATOM      2  O   UNL     1      -2.315  -0.346   0.973  0.00  0.00    -0.239 OA
ATOM      3  N   UNL     1      -1.993  -0.959  -1.506  0.00  0.00    -0.156 NA
ATOM      4  N   UNL     1      -2.842  -2.010  -1.769  0.00  0.00    -0.224 NA
ATOM      5  C   UNL     1      -3.323  -1.929  -3.156  0.00  0.00    +0.108 C 
ATOM      6  C   UNL     1      -4.501  -2.888  -3.326  0.00  0.00    +0.052 C 
ATOM      7  C   UNL     1      -4.114  -4.258  -2.833  0.00  0.00    -0.038 A 
ATOM      8  C   UNL     1      -4.869  -5.347  -3.244  0.00  0.00    +0.046 A 
ATOM      9  C   UNL     1      -4.550  -6.620  -2.815  0.00  0.00    +0.165 A 
ATOM     10  C   UNL     1      -3.466  -6.809  -1.967  0.00  0.00    +0.152 A 
ATOM     11  C   UNL     1      -2.715  -5.721  -1.559  0.00  0.00    +0.054 A 
ATOM     12  C   UNL     1      -3.038  -4.442  -1.991  0.00  0.00    -0.020 A 
ATOM     13  C   UNL     1      -2.188  -3.294  -1.517  0.00  0.00    +0.130 C 
ATOM     14  C   UNL     1      -1.890  -3.475  -0.025  0.00  0.00    +0.196 C 
ATOM     15  O   UNL     1      -0.980  -2.439   0.393  0.00  0.00    -0.294 OA
ATOM     16  F   UNL     1      -5.288  -7.677  -3.219  0.00  0.00    -0.202 F 
ATOM     17  H   UNL     1      -1.790  -0.287  -2.176  0.00  0.00    +0.153 HD
ENDROOT
BRANCH   1  19
ATOM     18  C   UNL     1      -0.017   1.425   0.010  0.00  0.00    +0.206 C 
ATOM     19  O   UNL     1       0.002  -0.004   0.002  0.00  0.00    -0.299 OA
ENDBRANCH   1  19
BRANCH  10  20
ATOM     20  O   UNL     1      -3.144  -8.059  -1.539  0.00  0.00    -0.504 OA
ATOM     21  H   UNL     1      -2.522  -8.524  -2.115  0.00  0.00    +0.292 HD
ENDBRANCH  10  20
TORSDOF 2
