REMARK  Name = ZINC38736720
REMARK  6 active torsions:
REMARK  status: ('A' for Active; 'I' for Inactive)
REMARK    1  A    between atoms: C_1  and  C_2
REMARK    2  A    between atoms: C_7  and  S_15
REMARK    3  A    between atoms: C_12  and  C_14
REMARK    4  A    between atoms: S_15  and  N_18
REMARK    5  A    between atoms: N_18  and  C_19
REMARK    6  A    between atoms: C_22  and  C_25
REMARK                            x       y       z     vdW  Elec       q    Type
REMARK                         _______ _______ _______ _____ _____    ______ ____
ROOT
ATOM      1  N   UNL     1      -3.437  -5.270   3.517  0.00  0.00    -0.216 N 
ATOM      2  H   UNL     1      -4.066  -5.797   3.000  0.00  0.00    +0.174 HD
ENDROOT
BRANCH   1   3
ATOM      3  C   UNL     1      -2.289  -5.868   4.038  0.00  0.00    +0.048 A 
ATOM      4  C   UNL     1      -1.060  -5.228   3.922  0.00  0.00    +0.025 A 
ATOM      5  C   UNL     1       0.076  -5.817   4.435  0.00  0.00    +0.012 A 
ATOM      6  C   UNL     1      -0.008  -7.055   5.071  0.00  0.00    +0.002 A 
ATOM      7  C   UNL     1      -1.242  -7.694   5.187  0.00  0.00    +0.012 A 
ATOM      8  C   UNL     1      -2.376  -7.099   4.677  0.00  0.00    +0.025 A 
BRANCH   6   9
ATOM      9  C   UNL     1       1.212  -7.690   5.623  0.00  0.00    +0.093 A 
ATOM     10  C   UNL     1       1.130  -8.935   6.257  0.00  0.00    +0.033 A 
ATOM     11  C   UNL     1       2.296  -9.487   6.756  0.00  0.00    +0.047 A 
ATOM     12  C   UNL     1       3.482  -8.768   6.597  0.00  0.00    +0.144 A 
ATOM     13  N   UNL     1       3.466  -7.595   5.982  0.00  0.00    -0.134 NA
ATOM     14  N   UNL     1       2.386  -7.083   5.513  0.00  0.00    -0.147 NA
ATOM     15  N   UNL     1       4.678  -9.284   7.082  0.00  0.00    -0.314 N 
ATOM     16  C   UNL     1       5.888  -8.451   7.129  0.00  0.00    +0.106 C 
ATOM     17  C   UNL     1       6.450  -8.477   8.553  0.00  0.00    +0.019 C 
ATOM     18  C   UNL     1       6.670  -9.929   8.984  0.00  0.00    +0.003 C 
ATOM     19  C   UNL     1       5.333 -10.673   8.979  0.00  0.00    +0.019 C 
ATOM     20  C   UNL     1       4.756 -10.669   7.565  0.00  0.00    +0.106 C 
ENDBRANCH   6   9
ENDBRANCH   1   3
BRANCH   1  21
ATOM     21  S   UNL     1      -3.726  -3.661   3.782  0.00  0.00    +0.072 S 
ATOM     22  O   UNL     1      -4.987  -3.373   3.194  0.00  0.00    -0.150 OA
ATOM     23  O   UNL     1      -2.539  -2.970   3.417  0.00  0.00    -0.150 OA
BRANCH  21  29
ATOM     24  C   UNL     1      -2.551  -1.402  10.719  0.00  0.00    +0.029 C 
ATOM     25  C   UNL     1      -2.764  -2.771  10.070  0.00  0.00    +0.083 C 
ATOM     26  C   UNL     1      -1.936  -2.884   8.779  0.00  0.00    +0.059 C 
ATOM     27  C   UNL     1      -2.960  -3.097   7.687  0.00  0.00    -0.022 A 
ATOM     28  C   UNL     1      -2.810  -3.265   6.324  0.00  0.00    +0.034 A 
ATOM     29  C   UNL     1      -3.920  -3.446   5.520  0.00  0.00    +0.109 A 
ATOM     30  C   UNL     1      -5.183  -3.458   6.084  0.00  0.00    +0.030 A 
ATOM     31  C   UNL     1      -5.338  -3.291   7.443  0.00  0.00    +0.026 A 
ATOM     32  C   UNL     1      -4.221  -3.107   8.261  0.00  0.00    +0.040 A 
ATOM     33  N   UNL     1      -4.159  -2.922   9.648  0.00  0.00    -0.268 N 
ATOM     34  C   UNL     1      -5.223  -2.889  10.474  0.00  0.00    +0.217 C 
ATOM     35  O   UNL     1      -6.335  -3.106  10.040  0.00  0.00    -0.276 OA
ATOM     36  C   UNL     1      -5.033  -2.581  11.937  0.00  0.00    +0.109 C 
ENDBRANCH  21  29
ENDBRANCH   1  21
TORSDOF 4
