REMARK  Name = ZINC23328350
REMARK  13 active torsions:
REMARK  status: ('A' for Active; 'I' for Inactive)
REMARK    1  A    between atoms: C_1  and  C_2
REMARK    2  A    between atoms: C_5  and  C_34
REMARK    3  A    between atoms: C_6  and  O_8
REMARK    4  A    between atoms: O_8  and  C_9
REMARK    5  A    between atoms: C_9  and  C_10
REMARK    6  A    between atoms: C_13  and  S_16
REMARK    7  A    between atoms: N_14  and  N_15
REMARK    8  A    between atoms: S_16  and  C_17
REMARK    9  A    between atoms: C_17  and  C_19
REMARK   10  A    between atoms: C_17  and  C_20
REMARK   11  A    between atoms: N_22  and  C_23
REMARK   12  A    between atoms: C_34  and  C_35
REMARK   13  A    between atoms: C_34  and  C_36
REMARK                            x       y       z     vdW  Elec       q    Type
REMARK                         _______ _______ _______ _____ _____    ______ ____
ROOT
ATOM      1  C   UNL     1       8.686   5.453  -3.463  0.00  0.00    +0.189 A 
ATOM      2  N   UNL     1       8.543   4.287  -4.028  0.00  0.00    -0.128 NA
ATOM      3  N   UNL     1       7.853   3.512  -3.270  0.00  0.00    -0.121 NA
ATOM      4  C   UNL     1       7.508   4.149  -2.175  0.00  0.00    +0.209 A 
ATOM      5  N   UNL     1       8.032   5.407  -2.263  0.00  0.00    -0.225 N 
ENDROOT
BRANCH   5   6
ATOM      6  N   UNL     1       7.925   6.411  -1.343  0.00  0.00    -0.295 N 
ATOM      7  H   UNL     1       7.367   6.245  -0.410  0.00  0.00    +0.163 HD
ATOM      8  H   UNL     1       8.397   7.386  -1.536  0.00  0.00    +0.163 HD
ENDBRANCH   5   6
BRANCH   1   9
ATOM      9  C   UNL     1       9.434   6.633  -4.028  0.00  0.00    +0.306 C 
BRANCH   9  10
ATOM     10  O   UNL     1      10.799   6.577  -3.608  0.00  0.00    -0.484 OA
BRANCH  10  16
ATOM     11  C   UNL     1      11.406  10.701  -6.148  0.00  0.00    +0.044 C 
ATOM     12  C   UNL     1      11.949   9.601  -5.272  0.00  0.00    -0.047 A 
ATOM     13  C   UNL     1      13.281   9.608  -4.901  0.00  0.00    +0.004 A 
ATOM     14  C   UNL     1      13.783   8.601  -4.098  0.00  0.00    +0.008 A 
ATOM     15  C   UNL     1      12.954   7.584  -3.664  0.00  0.00    -0.003 A 
ATOM     16  C   UNL     1      11.617   7.576  -4.034  0.00  0.00    +0.125 A 
ATOM     17  C   UNL     1      11.117   8.585  -4.845  0.00  0.00    +0.049 A 
BRANCH  15  18
ATOM     18  C   UNL     1      13.501   6.487  -2.788  0.00  0.00    +0.016 C 
ATOM     19  C   UNL     1      14.623   5.756  -3.527  0.00  0.00    +0.012 C 
ATOM     20  C   UNL     1      14.051   7.092  -1.495  0.00  0.00    +0.012 C 
ENDBRANCH  15  18
ENDBRANCH  10  16
ENDBRANCH   9  10
ENDBRANCH   1   9
BRANCH   4  21
ATOM     21  S   UNL     1       6.555   3.502  -0.842  0.00  0.00    -0.072 S 
BRANCH  21  22
ATOM     22  C   UNL     1       6.247   1.829  -1.459  0.00  0.00    +0.137 C 
ATOM     23  C   UNL     1       7.572   1.069  -1.558  0.00  0.00    +0.029 C 
BRANCH  22  24
ATOM     24  C   UNL     1       5.323   1.106  -0.513  0.00  0.00    +0.227 C 
ATOM     25  O   UNL     1       5.200   1.496   0.629  0.00  0.00    -0.275 OA
ATOM     26  N   UNL     1       4.635   0.028  -0.935  0.00  0.00    -0.308 N 
ATOM     27  H   UNL     1       4.747  -0.326  -1.971  0.00  0.00    +0.149 HD
BRANCH  26  28
ATOM     28  C   UNL     1       3.737  -0.675  -0.015  0.00  0.00    +0.103 C 
ATOM     29  C   UNL     1       3.600  -2.130  -0.457  0.00  0.00    +0.027 C 
ATOM     30  C   UNL     1       2.499  -2.790   0.382  0.00  0.00    +0.007 C 
ATOM     31  C   UNL     1       1.155  -2.199  -0.036  0.00  0.00    +0.035 C 
ATOM     32  C   UNL     1       1.208  -0.693  -0.013  0.00  0.00    -0.042 A 
ATOM     33  C   UNL     1       2.393   0.007  -0.015  0.00  0.00    -0.024 A 
ATOM     34  C   UNL     1       2.372   1.395  -0.010  0.00  0.00    +0.006 A 
ATOM     35  C   UNL     1       1.174   2.078   0.002  0.00  0.00    +0.000 A 
ATOM     36  C   UNL     1      -0.017   1.376   0.010  0.00  0.00    +0.000 A 
ATOM     37  C   UNL     1       0.002  -0.004   0.002  0.00  0.00    +0.004 A 
ENDBRANCH  26  28
ENDBRANCH  22  24
ENDBRANCH  21  22
ENDBRANCH   4  21
TORSDOF 9
