REMARK  Name = ZINC39746811
REMARK  7 active torsions:
REMARK  status: ('A' for Active; 'I' for Inactive)
REMARK    1  A    between atoms: C_1  and  C_2
REMARK    2  A    between atoms: C_2  and  C_4
REMARK    3  A    between atoms: C_2  and  N_14
REMARK    4  A    between atoms: N_14  and  C_15
REMARK    5  A    between atoms: C_15  and  C_17
REMARK    6  A    between atoms: C_15  and  C_23
REMARK    7  A    between atoms: C_23  and  C_25
REMARK                            x       y       z     vdW  Elec       q    Type
REMARK                         _______ _______ _______ _____ _____    ______ ____
ROOT
ATOM      1  C   UNL     1      -0.086  -0.093  -2.394  0.00  0.00    +0.032 C 
ENDROOT
BRANCH   1   2
ATOM      2  C   UNL     1      -1.411  -0.810  -2.382  0.00  0.00    -0.054 A 
ATOM      3  C   UNL     1      -1.479  -2.130  -1.976  0.00  0.00    +0.002 A 
ATOM      4  C   UNL     1      -2.695  -2.788  -1.965  0.00  0.00    +0.000 A 
ATOM      5  C   UNL     1      -3.843  -2.126  -2.360  0.00  0.00    +0.000 A 
ATOM      6  C   UNL     1      -3.774  -0.806  -2.766  0.00  0.00    +0.000 A 
ATOM      7  C   UNL     1      -2.559  -0.147  -2.772  0.00  0.00    +0.002 A 
ENDBRANCH   1   2
BRANCH   1   8
ATOM      8  N   UNL     1       0.690  -0.478  -1.207  0.00  0.00    +0.393 N 
ATOM      9  H   UNL     1       1.608  -0.063  -1.256  0.00  0.00    -0.084 HD
ATOM     10  H   UNL     1       0.776  -1.482  -1.172  0.00  0.00    -0.084 HD
BRANCH   8  12
ATOM     11  C   UNL     1      -0.019   1.526   0.010  0.00  0.00    -0.009 C 
ATOM     12  C   UNL     1       0.002  -0.004   0.002  0.00  0.00    -0.043 C 
BRANCH  12  13
ATOM     13  C   UNL     1       0.731  -0.503   1.223  0.00  0.00    -0.058 A 
ATOM     14  C   UNL     1       2.113  -0.513   1.245  0.00  0.00    +0.006 A 
ATOM     15  C   UNL     1       2.785  -0.972   2.363  0.00  0.00    +0.049 A 
ATOM     16  C   UNL     1       2.074  -1.423   3.465  0.00  0.00    +0.162 A 
ATOM     17  C   UNL     1       0.685  -1.410   3.443  0.00  0.00    +0.162 A 
ATOM     18  C   UNL     1       0.017  -0.945   2.320  0.00  0.00    +0.051 A 
ATOM     19  O   UNL     1      -0.033  -1.841   4.517  0.00  0.00    -0.485 OA
ATOM     20  C   UNL     1       0.665  -2.640   5.478  0.00  0.00    +0.270 C 
ATOM     21  C   UNL     1       2.010  -1.965   5.779  0.00  0.00    +0.270 C 
ATOM     22  O   UNL     1       2.750  -1.875   4.556  0.00  0.00    -0.485 OA
ENDBRANCH  12  13
ENDBRANCH   8  12
ENDBRANCH   1   8
BRANCH   1  23
ATOM     23  C   UNL     1       0.679  -0.470  -3.637  0.00  0.00    +0.152 C 
ATOM     24  O   UNL     1       1.557  -1.306  -3.579  0.00  0.00    -0.294 OA
BRANCH  23  25
ATOM     25  C   UNL     1       0.373   0.148  -4.867  0.00  0.00    +0.022 C 
ATOM     26  C   UNL     1       0.971  -0.086  -6.093  0.00  0.00    +0.006 A 
ATOM     27  C   UNL     1       2.010  -0.953  -6.506  0.00  0.00    +0.010 A 
ATOM     28  C   UNL     1       2.403  -0.976  -7.799  0.00  0.00    +0.001 A 
ATOM     29  C   UNL     1       1.817  -0.160  -8.780  0.00  0.00    +0.002 A 
ATOM     30  C   UNL     1       0.819   0.702  -8.490  0.00  0.00    +0.026 A 
ATOM     31  C   UNL     1       0.330   0.790  -7.104  0.00  0.00    +0.043 A 
ATOM     32  N   UNL     1      -0.600   1.518  -6.555  0.00  0.00    -0.380 N 
ATOM     33  C   UNL     1      -0.682   1.202  -5.125  0.00  0.00    +0.152 C 
ATOM     34  H   UNL     1      -1.154   2.164  -7.019  0.00  0.00    +0.160 HD
ENDBRANCH  23  25
ENDBRANCH   1  23
TORSDOF 6
