REMARK  Name = ZINC16128265
REMARK  6 active torsions:
REMARK  status: ('A' for Active; 'I' for Inactive)
REMARK    1  A    between atoms: C_3  and  S_6
REMARK    2  A    between atoms: S_6  and  N_9
REMARK    3  A    between atoms: N_9  and  C_10
REMARK    4  A    between atoms: C_14  and  S_16
REMARK    5  A    between atoms: S_16  and  N_19
REMARK    6  A    between atoms: N_19  and  C_20
REMARK                            x       y       z     vdW  Elec       q    Type
REMARK                         _______ _______ _______ _____ _____    ______ ____
ROOT
ATOM      1  C   UNL     1       0.184   6.795  -0.519  0.00  0.00    +0.050 A 
ATOM      2  C   UNL     1       1.550   6.547  -0.573  0.00  0.00    +0.026 A 
ATOM      3  C   UNL     1       2.041   5.310  -0.203  0.00  0.00    +0.024 A 
ATOM      4  C   UNL     1       1.174   4.321   0.227  0.00  0.00    +0.068 A 
ATOM      5  C   UNL     1      -0.187   4.564   0.277  0.00  0.00    +0.128 A 
ATOM      6  C   UNL     1      -0.684   5.799  -0.092  0.00  0.00    +0.054 A 
ATOM      7 CL   UNL     1       1.795   2.770   0.698  0.00  0.00    -0.082 Cl
ENDROOT
BRANCH   5   8
ATOM      8  S   UNL     1      -1.288   3.299   0.819  0.00  0.00    +0.074 S 
ATOM      9  O   UNL     1      -2.601   3.834   0.722  0.00  0.00    -0.150 OA
ATOM     10  O   UNL     1      -0.758   2.795   2.037  0.00  0.00    -0.150 OA
BRANCH   8  11
ATOM     11  N   UNL     1      -1.197   2.066  -0.283  0.00  0.00    -0.216 N 
ATOM     12  H   UNL     1      -0.895   1.188  -0.004  0.00  0.00    +0.174 HD
BRANCH  11  13
ATOM     13  C   UNL     1      -1.556   2.291  -1.614  0.00  0.00    +0.048 A 
ATOM     14  C   UNL     1      -2.733   2.967  -1.913  0.00  0.00    +0.026 A 
ATOM     15  C   UNL     1      -3.088   3.183  -3.230  0.00  0.00    +0.022 A 
ATOM     16  C   UNL     1      -2.274   2.727  -4.252  0.00  0.00    +0.041 A 
ATOM     17  C   UNL     1      -1.101   2.053  -3.957  0.00  0.00    +0.022 A 
ATOM     18  C   UNL     1      -0.741   1.834  -2.642  0.00  0.00    +0.026 A 
ATOM     19 CL   UNL     1      -2.723   3.000  -5.906  0.00  0.00    -0.084 Cl
ENDBRANCH  11  13
ENDBRANCH   8  11
ENDBRANCH   5   8
BRANCH   1  20
ATOM     20  N   UNL     1      -0.315   8.046  -0.892  0.00  0.00    -0.216 N 
ATOM     21  H   UNL     1      -1.086   8.105  -1.478  0.00  0.00    +0.174 HD
BRANCH  20  22
ATOM     22  S   UNL     1       0.410   9.427  -0.336  0.00  0.00    +0.079 S 
ATOM     23  O   UNL     1       1.793   9.311  -0.643  0.00  0.00    -0.149 OA
ATOM     24  O   UNL     1      -0.383  10.514  -0.793  0.00  0.00    -0.149 OA
BRANCH  22  27
ATOM     25  C   UNL     1       0.860   9.066   3.681  0.00  0.00    +0.010 A 
ATOM     26  C   UNL     1       1.179   8.979   2.339  0.00  0.00    +0.036 A 
ATOM     27  C   UNL     1       0.281   9.412   1.421  0.00  0.00    +0.146 A 
ATOM     28  S   UNL     1      -1.064   9.970   2.454  0.00  0.00    -0.077 S 
ATOM     29  C   UNL     1      -0.342   9.581   4.039  0.00  0.00    +0.047 A 
ENDBRANCH  22  27
ENDBRANCH  20  22
ENDBRANCH   1  20
TORSDOF 6
