REMARK  Name = ZINC53501398
REMARK  5 active torsions:
REMARK  status: ('A' for Active; 'I' for Inactive)
REMARK    1  A    between atoms: C_1  and  N_2
REMARK    2  A    between atoms: C_11  and  C_13
REMARK    3  A    between atoms: N_15  and  C_16
REMARK    4  A    between atoms: C_16  and  C_17
REMARK    5  A    between atoms: C_17  and  N_22
REMARK                            x       y       z     vdW  Elec       q    Type
REMARK                         _______ _______ _______ _____ _____    ______ ____
ROOT
ATOM      1  C   UNL     1      -0.005  -2.913   4.798  0.00  0.00    +0.244 C 
ATOM      2  O   UNL     1      -0.456  -4.043   4.785  0.00  0.00    -0.270 OA
ATOM      3  N   UNL     1       0.577  -2.432   5.914  0.00  0.00    -0.313 N 
ATOM      4  H   UNL     1       0.937  -1.532   5.924  0.00  0.00    +0.149 HD
ENDROOT
BRANCH   1  15
ATOM      5  C   UNL     1      -0.443   1.761   0.255  0.00  0.00    +0.130 C 
ATOM      6  N   UNL     1      -0.350   0.301   0.175  0.00  0.00    -0.323 N 
ATOM      7  C   UNL     1      -0.343  -0.388  -1.124  0.00  0.00    +0.200 C 
ATOM      8  C   UNL     1      -1.221  -1.610  -1.038  0.00  0.00    +0.235 C 
ATOM      9  O   UNL     1      -1.783  -2.016  -2.033  0.00  0.00    -0.274 OA
ATOM     10  N   UNL     1      -1.389  -2.255   0.132  0.00  0.00    -0.283 N 
ATOM     11  C   UNL     1      -0.789  -1.776   1.304  0.00  0.00    +0.055 A 
ATOM     12  C   UNL     1      -0.259  -0.478   1.329  0.00  0.00    +0.051 A 
ATOM     13  C   UNL     1       0.339   0.017   2.478  0.00  0.00    +0.026 A 
ATOM     14  C   UNL     1       0.421  -0.772   3.606  0.00  0.00    +0.015 A 
ATOM     15  C   UNL     1      -0.097  -2.069   3.591  0.00  0.00    +0.039 A 
ATOM     16  C   UNL     1      -0.712  -2.570   2.430  0.00  0.00    +0.038 A 
ATOM     17  H   UNL     1      -1.930  -3.059   0.164  0.00  0.00    +0.155 HD
ENDBRANCH   1  15
BRANCH   3  18
ATOM     18  C   UNL     1       0.668  -3.270   7.112  0.00  0.00    +0.092 C 
BRANCH  18  19
ATOM     19  C   UNL     1       1.475  -2.539   8.186  0.00  0.00    -0.050 C 
ATOM     20  C   UNL     1       2.910  -2.277   7.683  0.00  0.00    -0.010 C 
ATOM     21  C   UNL     1       3.794  -2.473   8.939  0.00  0.00    -0.001 C 
ATOM     22  C   UNL     1       3.111  -3.663   9.657  0.00  0.00    -0.001 C 
ATOM     23  C   UNL     1       1.603  -3.420   9.441  0.00  0.00    -0.010 C 
BRANCH  19  24
ATOM     24  N   UNL     1       0.821  -1.268   8.528  0.00  0.00    +0.386 N 
ATOM     25  C   UNL     1       1.696  -0.503   9.420  0.00  0.00    -0.067 C 
ATOM     26  C   UNL     1       1.222   0.953   9.490  0.00  0.00    +0.050 C 
ATOM     27  S   UNL     1      -0.457   0.973  10.191  0.00  0.00    -0.164 S 
ATOM     28  C   UNL     1      -1.323  -0.275   9.188  0.00  0.00    +0.050 C 
ATOM     29  C   UNL     1      -0.468  -1.548   9.163  0.00  0.00    -0.067 C 
ATOM     30  H   UNL     1       0.667  -0.738   7.684  0.00  0.00    -0.081 HD
ENDBRANCH  19  24
ENDBRANCH  18  19
ENDBRANCH   3  18
TORSDOF 4
