REMARK  Name = ZINC04738061
REMARK  3 active torsions:
REMARK  status: ('A' for Active; 'I' for Inactive)
REMARK    1  A    between atoms: C_6  and  C_7
REMARK    2  A    between atoms: N_9  and  N_10
REMARK    3  A    between atoms: C_11  and  C_13
REMARK                            x       y       z     vdW  Elec       q    Type
REMARK                         _______ _______ _______ _____ _____    ______ ____
ROOT
ATOM      1  N   UNL     1      -5.143   1.344   1.069  0.00  0.00    -0.234 N 
ATOM      2  C   UNL     1      -4.318   1.035   0.049  0.00  0.00    +0.235 C 
ATOM      3  O   UNL     1      -4.714   0.337  -0.861  0.00  0.00    -0.274 OA
ATOM      4  H   UNL     1      -4.826   1.902   1.797  0.00  0.00    +0.173 HD
ENDROOT
BRANCH   2   5
ATOM      5  C   UNL     1      -2.904   1.556   0.038  0.00  0.00    +0.049 C 
ATOM      6  C   UNL     1      -2.188   1.063  -1.221  0.00  0.00    +0.019 C 
ATOM      7  C   UNL     1      -0.753   1.593  -1.232  0.00  0.00    -0.009 C 
ATOM      8  C   UNL     1      -0.013   1.086   0.008  0.00  0.00    +0.007 C 
ATOM      9  C   UNL     1      -0.729   1.579   1.267  0.00  0.00    -0.009 C 
ATOM     10  C   UNL     1      -2.164   1.050   1.278  0.00  0.00    +0.019 C 
ATOM     11  C   UNL     1      -0.750   3.109   1.275  0.00  0.00    +0.007 C 
ATOM     12  C   UNL     1      -1.490   3.616   0.036  0.00  0.00    -0.009 C 
ATOM     13  C   UNL     1      -0.773   3.123  -1.223  0.00  0.00    +0.007 C 
ATOM     14  C   UNL     1      -2.925   3.086   0.047  0.00  0.00    +0.019 C 
ENDBRANCH   2   5
BRANCH   1  17
ATOM     15  C   UNL     1      -7.281   1.168   2.100  0.00  0.00    +0.260 C 
ATOM     16  O   UNL     1      -6.885   1.867   3.011  0.00  0.00    -0.269 OA
ATOM     17  N   UNL     1      -6.457   0.859   1.079  0.00  0.00    -0.230 N 
ATOM     18  H   UNL     1      -6.774   0.301   0.352  0.00  0.00    +0.173 HD
BRANCH  15  24
ATOM     19  C   UNL     1      -9.128  -0.142   1.062  0.00  0.00    +0.014 A 
ATOM     20  C   UNL     1     -10.421  -0.621   1.079  0.00  0.00    +0.021 A 
ATOM     21  C   UNL     1     -11.266  -0.302   2.130  0.00  0.00    +0.041 A 
ATOM     22  C   UNL     1     -10.817   0.494   3.170  0.00  0.00    +0.021 A 
ATOM     23  C   UNL     1      -9.524   0.974   3.166  0.00  0.00    +0.014 A 
ATOM     24  C   UNL     1      -8.668   0.656   2.110  0.00  0.00    +0.038 A 
ATOM     25 CL   UNL     1     -12.895  -0.903   2.142  0.00  0.00    -0.084 Cl
ENDBRANCH  15  24
ENDBRANCH   1  17
TORSDOF 3
