REMARK  Name = ZINC20176244
REMARK  9 active torsions:
REMARK  status: ('A' for Active; 'I' for Inactive)
REMARK    1  A    between atoms: C_1  and  C_2
REMARK    2  A    between atoms: C_2  and  O_3
REMARK    3  A    between atoms: O_3  and  C_4
REMARK    4  A    between atoms: C_7  and  N_10
REMARK    5  A    between atoms: N_12  and  C_13
REMARK    6  A    between atoms: C_15  and  C_21
REMARK    7  A    between atoms: C_18  and  O_19
REMARK    8  A    between atoms: O_19  and  C_20
REMARK    9  A    between atoms: C_26  and  C_28
REMARK                            x       y       z     vdW  Elec       q    Type
REMARK                         _______ _______ _______ _____ _____    ______ ____
ROOT
ATOM      1  N   UNL     1       2.943   3.817   0.059  0.00  0.00    -0.328 N 
ATOM      2  C   UNL     1       1.818   4.321   0.508  0.00  0.00    +0.190 C 
ATOM      3  N   UNL     1       1.640   5.684   0.541  0.00  0.00    -0.283 N 
ATOM      4  N   UNL     1       0.815   3.485   0.946  0.00  0.00    -0.236 N 
ATOM      5  C   UNL     1       0.741   2.113   0.847  0.00  0.00    +0.140 A 
ATOM      6  N   UNL     1       1.698   1.409   0.278  0.00  0.00    -0.283 NA
ATOM      7  C   UNL     1      -0.395   1.508   1.377  0.00  0.00    +0.058 A 
ATOM      8  C   UNL     1      -1.322   2.320   1.934  0.00  0.00    +0.007 A 
ATOM      9  S   UNL     1      -0.638   3.898   1.743  0.00  0.00    -0.008 S 
ATOM     10  C   UNL     1      -2.634   1.941   2.571  0.00  0.00    +0.053 C 
ATOM     11  H   UNL     1       2.490   6.343   0.772  0.00  0.00    +0.155 HD
ATOM     12  H   UNL     1       1.622   0.443   0.221  0.00  0.00    +0.188 HD
ATOM     13  H   UNL     1       3.082   2.726   0.026  0.00  0.00    +0.169 HD
ENDROOT
BRANCH   3  14
ATOM     14  C   UNL     1       0.378   6.232   0.282  0.00  0.00    +0.076 A 
ATOM     15  C   UNL     1      -0.585   5.480  -0.377  0.00  0.00    +0.030 A 
ATOM     16  C   UNL     1      -1.831   6.022  -0.627  0.00  0.00    -0.048 A 
ATOM     17  C   UNL     1      -2.119   7.316  -0.233  0.00  0.00    +0.007 A 
ATOM     18  C   UNL     1      -1.163   8.072   0.419  0.00  0.00    +0.048 A 
ATOM     19  C   UNL     1       0.087   7.535   0.679  0.00  0.00    +0.141 A 
ATOM     20  C   UNL     1      -2.877   5.203  -1.338  0.00  0.00    +0.044 C 
BRANCH  19  21
ATOM     21  O   UNL     1       1.029   8.278   1.320  0.00  0.00    -0.493 OA
ATOM     22  C   UNL     1       0.660   9.607   1.697  0.00  0.00    +0.277 C 
ENDBRANCH  19  21
ENDBRANCH   3  14
BRANCH   1  26
ATOM     23  C   UNL     1       5.970   6.331  -1.234  0.00  0.00    +0.121 A 
ATOM     24  C   UNL     1       6.246   5.334  -0.310  0.00  0.00    +0.047 A 
ATOM     25  C   UNL     1       5.242   4.494   0.124  0.00  0.00    +0.029 A 
ATOM     26  C   UNL     1       3.945   4.649  -0.369  0.00  0.00    +0.042 A 
ATOM     27  C   UNL     1       3.672   5.650  -1.303  0.00  0.00    +0.029 A 
ATOM     28  C   UNL     1       4.682   6.489  -1.726  0.00  0.00    +0.047 A 
BRANCH  23  29
ATOM     29  O   UNL     1       6.963   7.157  -1.659  0.00  0.00    -0.492 OA
BRANCH  29  31
ATOM     30  C   UNL     1       7.844   8.977  -2.982  0.00  0.00    +0.048 C 
ATOM     31  C   UNL     1       6.589   8.230  -2.525  0.00  0.00    +0.225 C 
ENDBRANCH  29  31
ENDBRANCH  23  29
ENDBRANCH   1  26
TORSDOF 5
