REMARK  Name = ZINC42479153
REMARK  5 active torsions:
REMARK  status: ('A' for Active; 'I' for Inactive)
REMARK    1  A    between atoms: C_1  and  C_2
REMARK    2  A    between atoms: C_3  and  C_9
REMARK    3  A    between atoms: N_5  and  C_7
REMARK    4  A    between atoms: C_10  and  C_11
REMARK    5  A    between atoms: N_13  and  C_14
REMARK                            x       y       z     vdW  Elec       q    Type
REMARK                         _______ _______ _______ _____ _____    ______ ____
ROOT
ATOM      1  C   UNL     1       0.923  -0.394  -4.758  0.00  0.00    +0.237 C 
ATOM      2  O   UNL     1       0.139   0.467  -5.113  0.00  0.00    -0.271 OA
ATOM      3  N   UNL     1       1.779  -0.933  -5.648  0.00  0.00    -0.301 N 
ATOM      4  H   UNL     1       2.404  -1.620  -5.365  0.00  0.00    +0.150 HD
ENDROOT
BRANCH   3   5
ATOM      5  C   UNL     1       1.766  -0.484  -7.042  0.00  0.00    +0.159 C 
ATOM      6  C   UNL     1       2.514  -1.494  -7.915  0.00  0.00    +0.032 C 
ATOM      7  C   UNL     1       3.682  -2.099  -7.157  0.00  0.00    +0.004 C 
ATOM      8  C   UNL     1       4.787  -1.108  -6.842  0.00  0.00    +0.019 C 
ATOM      9  C   UNL     1       4.306  -0.055  -5.841  0.00  0.00    +0.104 C 
ATOM     10  N   UNL     1       3.658   1.038  -6.584  0.00  0.00    -0.314 N 
ATOM     11  C   UNL     1       2.460   0.858  -7.151  0.00  0.00    +0.233 C 
ATOM     12  O   UNL     1       1.931   1.765  -7.756  0.00  0.00    -0.274 OA
ATOM     13  H   UNL     1       4.101   1.897  -6.661  0.00  0.00    +0.149 HD
ENDBRANCH   3   5
BRANCH   1  15
ATOM     14  C   UNL     1       0.077  -0.288  -2.517  0.00  0.00    +0.018 C 
ATOM     15  C   UNL     1       0.935  -0.829  -3.409  0.00  0.00    +0.068 C 
BRANCH  14  18
ATOM     16  C   UNL     1       0.201   1.591   0.037  0.00  0.00    +0.068 C 
ATOM     17  C   UNL     1       0.144   0.085   0.029  0.00  0.00    +0.069 A 
ATOM     18  C   UNL     1       0.090  -0.739  -1.119  0.00  0.00    +0.034 A 
ATOM     19  C   UNL     1       0.050  -2.051  -0.677  0.00  0.00    +0.134 A 
ATOM     20  N   UNL     1       0.079  -2.021   0.667  0.00  0.00    -0.255 N 
ATOM     21  N   UNL     1       0.143  -0.686   1.081  0.00  0.00    -0.175 NA
ATOM     22  C   UNL     1       0.054  -3.190   1.549  0.00  0.00    +0.174 C 
ATOM     23 CL   UNL     1      -0.025  -3.470  -1.673  0.00  0.00    -0.062 Cl
ENDBRANCH  14  18
ENDBRANCH   1  15
TORSDOF 3
