REMARK  Name = ZINC61769975
REMARK  4 active torsions:
REMARK  status: ('A' for Active; 'I' for Inactive)
REMARK    1  A    between atoms: C_1  and  C_2
REMARK    2  A    between atoms: C_2  and  C_3
REMARK    3  A    between atoms: C_2  and  C_4
REMARK    4  A    between atoms: C_2  and  N_5
REMARK                            x       y       z     vdW  Elec       q    Type
REMARK                         _______ _______ _______ _____ _____    ______ ____
ROOT
ATOM      1  N   UNL     1       0.688  -0.476  -1.203  0.00  0.00    -0.305 N 
ATOM      2  C   UNL     1       0.035  -1.259  -2.106  0.00  0.00    +0.109 A 
ATOM      3  C   UNL     1       0.660  -1.700  -3.221  0.00  0.00    +0.131 A 
ATOM      4  N   UNL     1       1.928  -1.391  -3.481  0.00  0.00    -0.230 NA
ATOM      5  C   UNL     1       2.620  -0.638  -2.653  0.00  0.00    +0.220 A 
ATOM      6  C   UNL     1       1.975  -0.137  -1.436  0.00  0.00    +0.296 A 
ATOM      7  O   UNL     1       2.587   0.567  -0.650  0.00  0.00    -0.264 OA
ATOM      8  N   UNL     1       3.949  -0.318  -2.932  0.00  0.00    -0.214 N 
ATOM      9  C   UNL     1       4.654  -0.711  -4.027  0.00  0.00    +0.133 A 
ATOM     10  C   UNL     1       5.899  -0.194  -3.922  0.00  0.00    +0.077 A 
ATOM     11  C   UNL     1       5.962   0.542  -2.725  0.00  0.00    +0.153 A 
ATOM     12  N   UNL     1       4.791   0.470  -2.138  0.00  0.00    -0.149 NA
ATOM     13  N   UNL     1       7.079   1.235  -2.247  0.00  0.00    -0.341 N 
ATOM     14 BR   UNL     1       7.305  -0.419  -5.166  0.00  0.00    -0.045 Br
ATOM     15  H   UNL     1       7.905   1.234  -2.756  0.00  0.00    +0.144 HD
ATOM     16  H   UNL     1       7.027   1.716  -1.407  0.00  0.00    +0.144 HD
ENDROOT
BRANCH   1  18
ATOM     17  C   UNL     1      -0.019   1.526   0.010  0.00  0.00    +0.034 C 
ATOM     18  C   UNL     1       0.002  -0.004   0.002  0.00  0.00    +0.040 C 
ATOM     19  C   UNL     1       0.742  -0.511   1.242  0.00  0.00    +0.034 C 
ATOM     20  C   UNL     1      -1.433  -0.534   0.013  0.00  0.00    +0.034 C 
ENDBRANCH   1  18
TORSDOF 1
