REMARK  Name = ZINC21224992
REMARK  6 active torsions:
REMARK  status: ('A' for Active; 'I' for Inactive)
REMARK    1  A    between atoms: C_1  and  O_2
REMARK    2  A    between atoms: O_2  and  C_3
REMARK    3  A    between atoms: C_6  and  O_35
REMARK    4  A    between atoms: C_7  and  C_9
REMARK    5  A    between atoms: C_14  and  C_24
REMARK    6  A    between atoms: O_35  and  C_36
REMARK                            x       y       z     vdW  Elec       q    Type
REMARK                         _______ _______ _______ _____ _____    ______ ____
ROOT
ATOM      1  C   UNL     1      -4.804   3.158  -1.924  0.00  0.00    +0.036 C 
ATOM      2  C   UNL     1      -3.643   2.864  -2.873  0.00  0.00    +0.060 C 
ATOM      3  C   UNL     1      -2.380   2.589  -2.075  0.00  0.00    +0.017 C 
ATOM      4  C   UNL     1      -2.450   1.999  -0.869  0.00  0.00    +0.037 C 
ATOM      5  C   UNL     1      -1.280   1.661   0.017  0.00  0.00    +0.139 C 
ATOM      6  N   UNL     1       0.016   1.782  -0.615  0.00  0.00    -0.331 N 
ATOM      7  C   UNL     1       0.490   3.018  -1.051  0.00  0.00    +0.049 A 
ATOM      8  C   UNL     1       1.612   3.604  -0.487  0.00  0.00    +0.025 A 
ATOM      9  C   UNL     1       2.017   4.854  -0.921  0.00  0.00    +0.002 A 
ATOM     10  C   UNL     1       1.308   5.517  -1.907  0.00  0.00    +0.002 A 
ATOM     11  C   UNL     1       0.198   4.926  -2.485  0.00  0.00    +0.025 A 
ATOM     12  C   UNL     1      -0.195   3.666  -2.068  0.00  0.00    +0.052 A 
ATOM     13  N   UNL     1      -1.228   2.968  -2.683  0.00  0.00    -0.316 N 
ATOM     14  C   UNL     1      -3.706   1.646  -0.321  0.00  0.00    +0.163 C 
ATOM     15  O   UNL     1      -3.739   1.092   0.760  0.00  0.00    -0.292 OA
ATOM     16  C   UNL     1      -4.998   1.930  -1.027  0.00  0.00    +0.088 C 
ATOM     17  H   UNL     1       0.643   0.889  -0.758  0.00  0.00    +0.147 HD
ATOM     18  H   UNL     1      -1.059   2.725  -3.743  0.00  0.00    +0.152 HD
ENDROOT
BRANCH   5  19
ATOM     19  C   UNL     1      -1.314   2.576   1.214  0.00  0.00    +0.014 A 
ATOM     20  C   UNL     1      -1.665   3.905   1.060  0.00  0.00    +0.048 A 
ATOM     21  C   UNL     1      -1.702   4.743   2.160  0.00  0.00    +0.020 A 
ATOM     22  C   UNL     1      -1.376   4.255   3.412  0.00  0.00    +0.003 A 
ATOM     23  C   UNL     1      -1.020   2.929   3.566  0.00  0.00    +0.020 A 
ATOM     24  C   UNL     1      -0.989   2.088   2.467  0.00  0.00    +0.048 A 
ATOM     25 CL   UNL     1      -0.542   0.422   2.661  0.00  0.00    -0.083 Cl
ATOM     26 CL   UNL     1      -2.066   4.520  -0.513  0.00  0.00    -0.083 Cl
ENDBRANCH   5  19
BRANCH   1  31
ATOM     27  C   UNL     1      -7.714   2.674  -4.287  0.00  0.00    +0.121 A 
ATOM     28  C   UNL     1      -8.367   3.893  -4.176  0.00  0.00    +0.049 A 
ATOM     29  C   UNL     1      -7.868   4.870  -3.338  0.00  0.00    +0.049 A 
ATOM     30  C   UNL     1      -6.713   4.633  -2.607  0.00  0.00    +0.124 A 
ATOM     31  C   UNL     1      -6.060   3.415  -2.718  0.00  0.00    +0.002 A 
ATOM     32  C   UNL     1      -6.556   2.439  -3.560  0.00  0.00    +0.053 A 
BRANCH  27  34
ATOM     33  C   UNL     1      -9.398   2.023  -5.834  0.00  0.00    +0.277 C 
ATOM     34  O   UNL     1      -8.205   1.711  -5.112  0.00  0.00    -0.495 OA
ENDBRANCH  27  34
BRANCH  30  35
ATOM     35  O   UNL     1      -6.221   5.596  -1.783  0.00  0.00    -0.495 OA
ATOM     36  C   UNL     1      -6.944   6.827  -1.718  0.00  0.00    +0.277 C 
ENDBRANCH  30  35
ENDBRANCH   1  31
TORSDOF 4
