REMARK  Name = ZINC14807134
REMARK  6 active torsions:
REMARK  status: ('A' for Active; 'I' for Inactive)
REMARK    1  A    between atoms: C_1  and  O_2
REMARK    2  A    between atoms: O_2  and  C_3
REMARK    3  A    between atoms: C_5  and  O_23
REMARK    4  A    between atoms: C_6  and  O_21
REMARK    5  A    between atoms: C_12  and  C_15
REMARK    6  A    between atoms: O_21  and  C_22
REMARK                            x       y       z     vdW  Elec       q    Type
REMARK                         _______ _______ _______ _____ _____    ______ ____
ROOT
ATOM      1  C   UNL     1      -1.198  -0.636   0.010  0.00  0.00    +0.138 A 
ATOM      2  C   UNL     1      -2.372   0.097   0.019  0.00  0.00    +0.095 A 
ATOM      3  C   UNL     1      -3.599  -0.553   0.029  0.00  0.00    +0.166 A 
ATOM      4  C   UNL     1      -3.666  -1.943   0.033  0.00  0.00    +0.204 A 
ATOM      5  C   UNL     1      -2.502  -2.696   0.025  0.00  0.00    +0.180 A 
ATOM      6  C   UNL     1      -1.258  -2.038   0.003  0.00  0.00    +0.105 A 
ATOM      7  C   UNL     1      -0.029  -2.840  -0.026  0.00  0.00    +0.174 C 
ATOM      8  O   UNL     1       1.052  -2.341  -0.260  0.00  0.00    -0.292 OA
ATOM      9  C   UNL     1      -0.180  -4.324   0.253  0.00  0.00    +0.129 C 
ATOM     10  C   UNL     1      -1.455  -4.794  -0.462  0.00  0.00    +0.211 C 
ATOM     11  O   UNL     1      -2.571  -4.049   0.037  0.00  0.00    -0.479 OA
ENDROOT
BRANCH  10  12
ATOM     12  C   UNL     1      -1.672  -6.261  -0.192  0.00  0.00    -0.007 A 
ATOM     13  C   UNL     1      -2.332  -6.662   0.954  0.00  0.00    +0.007 A 
ATOM     14  C   UNL     1      -2.531  -8.008   1.201  0.00  0.00    +0.000 A 
ATOM     15  C   UNL     1      -2.071  -8.951   0.302  0.00  0.00    +0.000 A 
ATOM     16  C   UNL     1      -1.411  -8.549  -0.844  0.00  0.00    +0.000 A 
ATOM     17  C   UNL     1      -1.216  -7.204  -1.094  0.00  0.00    +0.007 A 
ENDBRANCH  10  12
BRANCH   1  19
ATOM     18  C   UNL     1      -0.017   1.425   0.010  0.00  0.00    +0.277 C 
ATOM     19  O   UNL     1       0.002  -0.004   0.002  0.00  0.00    -0.494 OA
ENDBRANCH   1  19
BRANCH   4  20
ATOM     20  O   UNL     1      -4.878  -2.565   0.044  0.00  0.00    -0.488 OA
ATOM     21  C   UNL     1      -5.465  -2.864  -1.223  0.00  0.00    +0.277 C 
ENDBRANCH   4  20
BRANCH   3  22
ATOM     22  O   UNL     1      -4.745   0.176   0.035  0.00  0.00    -0.503 OA
ATOM     23  H   UNL     1      -5.083   0.385  -0.846  0.00  0.00    +0.292 HD
ENDBRANCH   3  22
TORSDOF 4
