REMARK  Name = ZINC36648069
REMARK  11 active torsions:
REMARK  status: ('A' for Active; 'I' for Inactive)
REMARK    1  A    between atoms: C_1  and  C_2
REMARK    2  A    between atoms: C_2  and  O_3
REMARK    3  A    between atoms: O_3  and  C_4
REMARK    4  A    between atoms: N_13  and  C_14
REMARK    5  A    between atoms: C_14  and  C_15
REMARK    6  A    between atoms: C_15  and  N_16
REMARK    7  A    between atoms: N_16  and  C_17
REMARK    8  A    between atoms: N_16  and  C_18
REMARK    9  A    between atoms: C_19  and  C_21
REMARK   10  A    between atoms: N_27  and  S_28
REMARK   11  A    between atoms: S_28  and  C_31
REMARK                            x       y       z     vdW  Elec       q    Type
REMARK                         _______ _______ _______ _____ _____    ______ ____
ROOT
ATOM      1  C   UNL     1       2.582  -2.051  -1.230  0.00  0.00    +0.147 A 
ATOM      2  C   UNL     1       2.411  -3.077  -0.329  0.00  0.00    +0.048 A 
ATOM      3  C   UNL     1       2.798  -4.374  -0.628  0.00  0.00    +0.005 A 
ATOM      4  C   UNL     1       3.368  -4.645  -1.858  0.00  0.00    +0.017 A 
ATOM      5  C   UNL     1       3.543  -3.629  -2.765  0.00  0.00    +0.044 A 
ATOM      6  C   UNL     1       3.158  -2.296  -2.502  0.00  0.00    +0.122 A 
ATOM      7  N   UNL     1       3.390  -1.411  -3.497  0.00  0.00    -0.221 NA
ATOM      8  C   UNL     1       3.933  -1.761  -4.638  0.00  0.00    +0.168 A 
ATOM      9  S   UNL     1       4.207  -3.512  -4.409  0.00  0.00    -0.052 S 
ATOM     10  N   UNL     1       4.228  -0.972  -5.739  0.00  0.00    -0.251 N 
ATOM     11  C   UNL     1       3.951   0.347  -5.716  0.00  0.00    +0.240 C 
ATOM     12  O   UNL     1       3.531   0.861  -4.701  0.00  0.00    -0.273 OA
ENDROOT
BRANCH  11  13
ATOM     13  C   UNL     1       4.163   1.183  -6.952  0.00  0.00    +0.166 C 
ATOM     14  C   UNL     1       2.831   1.805  -7.385  0.00  0.00    +0.030 C 
ATOM     15  C   UNL     1       3.076   2.762  -8.554  0.00  0.00    +0.003 C 
ATOM     16  C   UNL     1       4.012   3.887  -8.108  0.00  0.00    +0.017 C 
ATOM     17  C   UNL     1       5.357   3.289  -7.682  0.00  0.00    +0.110 C 
ATOM     18  N   UNL     1       5.118   2.261  -6.660  0.00  0.00    -0.164 NA
BRANCH  18  19
ATOM     19  S   UNL     1       5.907   2.317  -5.205  0.00  0.00    +0.068 S 
ATOM     20  O   UNL     1       5.896   0.995  -4.685  0.00  0.00    -0.152 OA
ATOM     21  O   UNL     1       7.111   3.040  -5.424  0.00  0.00    -0.152 OA
BRANCH  19  22
ATOM     22  C   UNL     1       4.925   3.295  -4.117  0.00  0.00    +0.143 A 
ATOM     23  C   UNL     1       4.029   2.892  -3.182  0.00  0.00    +0.036 A 
ATOM     24  C   UNL     1       3.367   3.847  -2.434  0.00  0.00    +0.010 A 
ATOM     25  C   UNL     1       3.631   5.158  -2.658  0.00  0.00    +0.047 A 
ATOM     26  S   UNL     1       4.855   5.071  -3.954  0.00  0.00    -0.077 S 
ENDBRANCH  19  22
ENDBRANCH  18  19
ENDBRANCH  11  13
BRANCH   1  27
ATOM     27  O   UNL     1       2.189  -0.793  -0.899  0.00  0.00    -0.490 OA
BRANCH  27  29
ATOM     28  C   UNL     1       1.238   0.859   0.587  0.00  0.00    +0.048 C 
ATOM     29  C   UNL     1       1.616  -0.611   0.397  0.00  0.00    +0.226 C 
ENDBRANCH  27  29
ENDBRANCH   1  27
BRANCH  10  30
ATOM     30  C   UNL     1       4.841  -1.571  -6.927  0.00  0.00    +0.097 C 
BRANCH  30  31
ATOM     31  C   UNL     1       3.745  -2.072  -7.869  0.00  0.00    -0.060 C 
BRANCH  31  32
ATOM     32  N   UNL     1       4.359  -2.757  -9.014  0.00  0.00    +0.377 N 
ATOM     33  C   UNL     1       5.053  -3.965  -8.547  0.00  0.00    -0.097 C 
ATOM     34  C   UNL     1       3.315  -3.134  -9.976  0.00  0.00    -0.097 C 
ATOM     35  H   UNL     1       5.021  -2.140  -9.460  0.00  0.00    -0.083 HD
ENDBRANCH  31  32
ENDBRANCH  30  31
ENDBRANCH  10  30
TORSDOF 8
