REMARK  Name = ZINC12447699
REMARK  6 active torsions:
REMARK  status: ('A' for Active; 'I' for Inactive)
REMARK    1  A    between atoms: C_1  and  C_2
REMARK    2  A    between atoms: C_5  and  C_8
REMARK    3  A    between atoms: C_13  and  C_30
REMARK    4  A    between atoms: C_15  and  C_29
REMARK    5  A    between atoms: C_30  and  O_31
REMARK    6  A    between atoms: O_31  and  C_32
REMARK                            x       y       z     vdW  Elec       q    Type
REMARK                         _______ _______ _______ _____ _____    ______ ____
ROOT
ATOM      1  C   UNL     1       0.059  -4.275  -0.021  0.00  0.00    +0.205 C 
ATOM      2  N   UNL     1      -0.835  -4.774   1.030  0.00  0.00    -0.319 N 
ATOM      3  C   UNL     1      -0.373  -4.855   2.365  0.00  0.00    +0.056 A 
ATOM      4  C   UNL     1      -1.186  -4.779   3.559  0.00  0.00    +0.035 A 
ATOM      5  C   UNL     1      -2.592  -4.591   3.618  0.00  0.00    -0.009 A 
ATOM      6  C   UNL     1      -3.145  -4.556   4.884  0.00  0.00    +0.029 A 
ATOM      7  C   UNL     1      -2.377  -4.697   6.026  0.00  0.00    +0.040 A 
ATOM      8  N   UNL     1      -1.062  -4.870   5.977  0.00  0.00    -0.245 NA
ATOM      9  C   UNL     1      -0.491  -4.909   4.795  0.00  0.00    +0.111 A 
ATOM     10  S   UNL     1       1.199  -5.113   4.312  0.00  0.00    -0.064 S 
ATOM     11  C   UNL     1       0.988  -5.025   2.566  0.00  0.00    +0.078 A 
ATOM     12  C   UNL     1       1.918  -5.081   1.453  0.00  0.00    +0.152 A 
ATOM     13  N   UNL     1       1.432  -4.738   0.189  0.00  0.00    -0.300 N 
ATOM     14  C   UNL     1       2.460  -4.916  -0.685  0.00  0.00    +0.071 A 
ATOM     15  C   UNL     1       2.560  -4.776  -2.065  0.00  0.00    +0.028 A 
ATOM     16  C   UNL     1       3.793  -5.037  -2.639  0.00  0.00    +0.002 A 
ATOM     17  C   UNL     1       4.888  -5.423  -1.886  0.00  0.00    +0.002 A 
ATOM     18  C   UNL     1       4.816  -5.574  -0.513  0.00  0.00    +0.030 A 
ATOM     19  C   UNL     1       3.578  -5.319   0.090  0.00  0.00    +0.090 A 
ATOM     20  N   UNL     1       3.183  -5.385   1.372  0.00  0.00    -0.227 NA
ATOM     21  C   UNL     1      -3.056  -4.650   7.371  0.00  0.00    +0.065 C 
ATOM     22  H   UNL     1      -1.740  -5.046   0.811  0.00  0.00    +0.148 HD
ENDROOT
BRANCH   1  27
ATOM     23  C   UNL     1      -0.018   1.503   0.010  0.00  0.00    +0.044 C 
ATOM     24  C   UNL     1       0.002  -0.004   0.002  0.00  0.00    -0.050 A 
ATOM     25  C   UNL     1       0.006  -0.689  -1.199  0.00  0.00    +0.004 A 
ATOM     26  C   UNL     1       0.025  -2.071  -1.206  0.00  0.00    +0.007 A 
ATOM     27  C   UNL     1       0.040  -2.768  -0.013  0.00  0.00    -0.007 A 
ATOM     28  C   UNL     1       0.037  -2.084   1.188  0.00  0.00    +0.007 A 
ATOM     29  C   UNL     1       0.023  -0.702   1.195  0.00  0.00    +0.004 A 
ENDBRANCH   1  27
BRANCH   5  30
ATOM     30  C   UNL     1      -3.430  -4.438   2.374  0.00  0.00    +0.195 C 
BRANCH  30  31
ATOM     31  O   UNL     1      -4.800  -4.265   2.742  0.00  0.00    -0.378 OA
ATOM     32  C   UNL     1      -5.685  -4.110   1.631  0.00  0.00    +0.194 C 
ENDBRANCH  30  31
ENDBRANCH   5  30
TORSDOF 3
