REMARK  Name = ZINC40826434
REMARK  6 active torsions:
REMARK  status: ('A' for Active; 'I' for Inactive)
REMARK    1  A    between atoms: C_1  and  C_2
REMARK    2  A    between atoms: C_6  and  C_7
REMARK    3  A    between atoms: N_9  and  C_10
REMARK    4  A    between atoms: N_24  and  N_25
REMARK    5  A    between atoms: C_26  and  C_28
REMARK    6  A    between atoms: C_33  and  O_34
REMARK                            x       y       z     vdW  Elec       q    Type
REMARK                         _______ _______ _______ _____ _____    ______ ____
ROOT
ATOM      1  C   UNL     1      -0.008   1.502   0.010  0.00  0.00    +0.048 C 
ATOM      2  C   UNL     1       0.019  -0.004   0.002  0.00  0.00    +0.009 A 
ATOM      3  C   UNL     1       0.037  -0.839  -1.123  0.00  0.00    +0.042 A 
ATOM      4  C   UNL     1       0.058  -2.138  -0.673  0.00  0.00    +0.115 A 
ATOM      5  O   UNL     1       0.057  -2.112   0.658  0.00  0.00    -0.454 OA
ATOM      6  C   UNL     1       0.038  -0.831   1.091  0.00  0.00    +0.193 A 
ATOM      7  C   UNL     1       0.076  -3.327  -1.599  0.00  0.00    +0.075 C 
ATOM      8  C   UNL     1      -0.441  -2.905  -2.978  0.00  0.00    +0.014 C 
ATOM      9  C   UNL     1       0.328  -1.684  -3.493  0.00  0.00    +0.058 C 
ATOM     10  C   UNL     1       0.038  -0.512  -2.566  0.00  0.00    +0.070 C 
ATOM     11  N   UNL     1      -0.193   0.685  -3.009  0.00  0.00    -0.184 NA
ENDROOT
BRANCH   6  12
ATOM     12  C   UNL     1       0.034  -0.400   2.493  0.00  0.00    +0.284 C 
ATOM     13  O   UNL     1       0.013   0.786   2.765  0.00  0.00    -0.266 OA
ATOM     14  N   UNL     1       0.054  -1.318   3.480  0.00  0.00    -0.278 N 
ATOM     15  H   UNL     1      -0.010  -2.262   3.266  0.00  0.00    +0.155 HD
BRANCH  14  16
ATOM     16  C   UNL     1       0.167  -0.910   4.809  0.00  0.00    +0.042 A 
ATOM     17  C   UNL     1       0.753   0.298   5.119  0.00  0.00    +0.024 A 
ATOM     18  C   UNL     1       0.871   0.714   6.442  0.00  0.00    +0.002 A 
ATOM     19  C   UNL     1       0.410  -0.058   7.465  0.00  0.00    +0.008 A 
ATOM     20  C   UNL     1      -0.195  -1.296   7.192  0.00  0.00    -0.016 A 
ATOM     21  C   UNL     1      -0.325  -1.728   5.849  0.00  0.00    +0.003 A 
ATOM     22  C   UNL     1      -0.933  -2.963   5.578  0.00  0.00    +0.010 A 
ATOM     23  C   UNL     1      -1.396  -3.727   6.606  0.00  0.00    +0.001 A 
ATOM     24  C   UNL     1      -1.274  -3.301   7.927  0.00  0.00    +0.001 A 
ATOM     25  C   UNL     1      -0.679  -2.114   8.228  0.00  0.00    +0.008 A 
ENDBRANCH  14  16
ENDBRANCH   6  12
BRANCH  11  26
ATOM     26  N   UNL     1      -0.180   0.936  -4.388  0.00  0.00    -0.203 N 
ATOM     27  C   UNL     1      -0.420   2.180  -4.848  0.00  0.00    +0.267 C 
ATOM     28  O   UNL     1      -0.648   3.084  -4.067  0.00  0.00    -0.268 OA
ATOM     29  H   UNL     1       0.002   0.215  -5.011  0.00  0.00    +0.178 HD
BRANCH  27  30
ATOM     30  C   UNL     1      -0.406   2.445  -6.299  0.00  0.00    +0.080 A 
ATOM     31  C   UNL     1      -0.150   1.408  -7.200  0.00  0.00    +0.017 A 
ATOM     32  C   UNL     1      -0.140   1.662  -8.554  0.00  0.00    +0.001 A 
ATOM     33  C   UNL     1      -0.381   2.942  -9.028  0.00  0.00    +0.004 A 
ATOM     34  C   UNL     1      -0.634   3.975  -8.148  0.00  0.00    +0.046 A 
ATOM     35  C   UNL     1      -0.655   3.737  -6.782  0.00  0.00    +0.129 A 
BRANCH  35  36
ATOM     36  O   UNL     1      -0.909   4.751  -5.917  0.00  0.00    -0.506 OA
ATOM     37  H   UNL     1      -0.119   5.226  -5.625  0.00  0.00    +0.292 HD
ENDBRANCH  35  36
ENDBRANCH  27  30
ENDBRANCH  11  26
TORSDOF 5
