REMARK  Name = ZINC65008736
REMARK  7 active torsions:
REMARK  status: ('A' for Active; 'I' for Inactive)
REMARK    1  A    between atoms: C_1  and  C_2
REMARK    2  A    between atoms: N_8  and  S_9
REMARK    3  A    between atoms: S_9  and  C_12
REMARK    4  A    between atoms: C_14  and  C_19
REMARK    5  A    between atoms: N_15  and  C_18
REMARK    6  A    between atoms: C_16  and  C_17
REMARK    7  A    between atoms: C_21  and  C_24
REMARK                            x       y       z     vdW  Elec       q    Type
REMARK                         _______ _______ _______ _____ _____    ______ ____
ROOT
ATOM      1  C   UNL     1       0.047   0.243   5.101  0.00  0.00    +0.134 A 
ATOM      2  C   UNL     1      -0.971   0.421   6.050  0.00  0.00    +0.059 A 
ATOM      3  C   UNL     1      -0.579   1.430   6.882  0.00  0.00    +0.076 A 
ATOM      4  N   UNL     1       0.653   1.868   6.460  0.00  0.00    -0.344 N 
ATOM      5  C   UNL     1       1.027   1.132   5.377  0.00  0.00    +0.043 A 
ATOM      6  C   UNL     1       2.316   1.286   4.611  0.00  0.00    +0.065 C 
ATOM      7  C   UNL     1       1.436   2.942   7.076  0.00  0.00    +0.149 C 
ENDROOT
BRANCH   3   8
ATOM      8  C   UNL     1      -1.340   1.956   8.027  0.00  0.00    +0.125 A 
ATOM      9  N   UNL     1      -2.523   1.579   8.491  0.00  0.00    -0.238 NA
ATOM     10  C   UNL     1      -3.065   2.167   9.542  0.00  0.00    +0.079 A 
ATOM     11  C   UNL     1      -2.392   3.185  10.165  0.00  0.00    +0.075 A 
ATOM     12  S   UNL     1      -0.911   3.265   9.166  0.00  0.00    -0.074 S 
BRANCH  10  13
ATOM     13  C   UNL     1      -4.391   1.730  10.044  0.00  0.00    +0.001 A 
ATOM     14  C   UNL     1      -4.962   2.357  11.149  0.00  0.00    +0.011 A 
ATOM     15  C   UNL     1      -6.195   1.947  11.612  0.00  0.00    +0.020 A 
ATOM     16  C   UNL     1      -6.865   0.913  10.980  0.00  0.00    +0.041 A 
ATOM     17  C   UNL     1      -6.302   0.286   9.882  0.00  0.00    +0.020 A 
ATOM     18  C   UNL     1      -5.072   0.694   9.407  0.00  0.00    +0.011 A 
ATOM     19 CL   UNL     1      -8.416   0.400  11.568  0.00  0.00    -0.084 Cl
ENDBRANCH  10  13
ENDBRANCH   3   8
BRANCH   1  20
ATOM     20  S   UNL     1       0.051  -0.934   3.791  0.00  0.00    +0.102 S 
ATOM     21  O   UNL     1      -1.185  -1.632   3.868  0.00  0.00    -0.146 OA
ATOM     22  O   UNL     1       1.306  -1.599   3.845  0.00  0.00    -0.146 OA
BRANCH  20  30
ATOM     23  C   UNL     1      -0.018   1.503   0.010  0.00  0.00    +0.047 C 
ATOM     24  C   UNL     1       0.002  -0.004   0.002  0.00  0.00    -0.007 A 
ATOM     25  C   UNL     1       0.006  -0.684  -1.174  0.00  0.00    +0.008 A 
ATOM     26  C   UNL     1       0.025  -2.090  -1.165  0.00  0.00    +0.018 A 
ATOM     27  C   UNL     1       0.041  -2.765   0.004  0.00  0.00    +0.084 A 
ATOM     28  N   UNL     1       0.037  -2.099   1.193  0.00  0.00    -0.345 N 
ATOM     29  C   UNL     1       0.023  -0.726   1.219  0.00  0.00    +0.155 A 
ATOM     30  N   UNL     1       0.026  -0.085   2.369  0.00  0.00    -0.111 NA
ATOM     31  H   UNL     1       0.047  -2.598   2.025  0.00  0.00    +0.167 HD
ENDBRANCH  20  30
ENDBRANCH   1  20
TORSDOF 4
