REMARK  Name = ZINC30979280
REMARK  9 active torsions:
REMARK  status: ('A' for Active; 'I' for Inactive)
REMARK    1  A    between atoms: C_3  and  C_6
REMARK    2  A    between atoms: C_6  and  S_7
REMARK    3  A    between atoms: S_7  and  C_8
REMARK    4  A    between atoms: C_8  and  C_9
REMARK    5  A    between atoms: C_9  and  N_10
REMARK    6  A    between atoms: C_11  and  C_13
REMARK    7  A    between atoms: N_16  and  C_19
REMARK    8  A    between atoms: C_19  and  C_20
REMARK    9  A    between atoms: C_22  and  C_25
REMARK                            x       y       z     vdW  Elec       q    Type
REMARK                         _______ _______ _______ _____ _____    ______ ____
ROOT
ATOM      1  C   UNL     1       0.606  -2.171  -1.026  0.00  0.00    +0.071 C 
ATOM      2  C   UNL     1       1.353  -2.680   0.210  0.00  0.00    -0.006 C 
ATOM      3  C   UNL     1       1.423  -4.208   0.165  0.00  0.00    -0.077 C 
ATOM      4  N   UNL     1       2.118  -4.631  -1.058  0.00  0.00    +0.386 N 
ATOM      5  C   UNL     1       1.393  -4.195  -2.259  0.00  0.00    -0.077 C 
ATOM      6  C   UNL     1       1.322  -2.667  -2.286  0.00  0.00    -0.006 C 
ATOM      7  H   UNL     1       3.105  -4.146  -1.068  0.00  0.00    -0.081 HD
ENDROOT
BRANCH   1   9
ATOM      8  N   UNL     1       0.002  -0.004   0.002  0.00  0.00    -0.314 N 
ATOM      9  C   UNL     1       0.585  -0.664  -1.018  0.00  0.00    +0.216 C 
ATOM     10  O   UNL     1       1.093  -0.046  -1.929  0.00  0.00    -0.276 OA
ATOM     11  H   UNL     1      -0.459  -0.565   0.828  0.00  0.00    +0.149 HD
BRANCH   8  12
ATOM     12  C   UNL     1      -0.018   1.461   0.010  0.00  0.00    +0.115 C 
BRANCH  12  13
ATOM     13  C   UNL     1      -0.734   1.954   1.269  0.00  0.00    +0.088 C 
BRANCH  13  14
ATOM     14  S   UNL     1      -0.758   3.768   1.279  0.00  0.00    -0.151 S 
BRANCH  14  15
ATOM     15  C   UNL     1      -1.630   4.187   2.814  0.00  0.00    +0.143 C 
BRANCH  15  18
ATOM     16  C   UNL     1      -2.399   7.791   2.824  0.00  0.00    +0.041 A 
ATOM     17  C   UNL     1      -2.718   6.457   2.480  0.00  0.00    +0.045 A 
ATOM     18  C   UNL     1      -1.721   5.685   2.947  0.00  0.00    +0.115 A 
ATOM     19  O   UNL     1      -0.823   6.475   3.558  0.00  0.00    -0.467 OA
ATOM     20  C   UNL     1      -1.226   7.754   3.481  0.00  0.00    +0.195 A 
ENDBRANCH  15  18
ENDBRANCH  14  15
ENDBRANCH  13  14
ENDBRANCH  12  13
ENDBRANCH   8  12
ENDBRANCH   1   9
BRANCH   4  21
ATOM     21  C   UNL     1       2.326  -6.085  -1.068  0.00  0.00    +0.022 C 
BRANCH  21  22
ATOM     22  C   UNL     1       3.275  -6.465   0.039  0.00  0.00    +0.211 A 
ATOM     23  N   UNL     1       2.950  -6.782   1.268  0.00  0.00    -0.193 NA
ATOM     24  C   UNL     1       4.118  -7.045   1.896  0.00  0.00    +0.202 A 
ATOM     25  N   UNL     1       5.075  -6.873   1.021  0.00  0.00    -0.056 NA
ATOM     26  O   UNL     1       4.607  -6.546  -0.049  0.00  0.00    -0.340 OA
BRANCH  24  27
ATOM     27  C   UNL     1       4.284  -7.451   3.314  0.00  0.00    +0.023 A 
ATOM     28  C   UNL     1       3.167  -7.590   4.136  0.00  0.00    +0.013 A 
ATOM     29  C   UNL     1       3.326  -7.973   5.452  0.00  0.00    +0.016 A 
ATOM     30  C   UNL     1       4.593  -8.209   5.959  0.00  0.00    +0.018 A 
ATOM     31  C   UNL     1       5.705  -8.068   5.147  0.00  0.00    +0.016 A 
ATOM     32  C   UNL     1       5.556  -7.690   3.829  0.00  0.00    +0.013 A 
ATOM     33 BR   UNL     1       4.803  -8.727   7.765  0.00  0.00    -0.050 Br
ENDBRANCH  24  27
ENDBRANCH  21  22
ENDBRANCH   4  21
TORSDOF 9
