REMARK  Name = ZINC14199292
REMARK  8 active torsions:
REMARK  status: ('A' for Active; 'I' for Inactive)
REMARK    1  A    between atoms: C_7  and  C_11
REMARK    2  A    between atoms: C_11  and  C_12
REMARK    3  A    between atoms: C_12  and  C_13
REMARK    4  A    between atoms: C_13  and  C_14
REMARK    5  A    between atoms: N_16  and  N_17
REMARK    6  A    between atoms: C_18  and  C_20
REMARK    7  A    between atoms: C_20  and  O_21
REMARK    8  A    between atoms: O_21  and  C_22
REMARK                            x       y       z     vdW  Elec       q    Type
REMARK                         _______ _______ _______ _____ _____    ______ ____
ROOT
ATOM      1  C   UNL     1      -8.387   1.022   0.046  0.00  0.00    +0.229 C 
ATOM      2  O   UNL     1      -8.561   2.223   0.053  0.00  0.00    -0.274 OA
ATOM      3  N   UNL     1      -7.136   0.523   0.037  0.00  0.00    -0.234 N 
ATOM      4  H   UNL     1      -6.997  -0.437   0.031  0.00  0.00    +0.173 HD
ENDROOT
BRANCH   3   5
ATOM      5  N   UNL     1      -6.035   1.390   0.037  0.00  0.00    -0.232 N 
ATOM      6  C   UNL     1      -4.783   0.890   0.029  0.00  0.00    +0.267 C 
ATOM      7  O   UNL     1      -4.610  -0.310   0.021  0.00  0.00    -0.271 OA
ATOM      8  H   UNL     1      -6.174   2.350   0.043  0.00  0.00    +0.173 HD
BRANCH   6   9
ATOM      9  C   UNL     1      -3.600   1.823   0.029  0.00  0.00    +0.326 C 
BRANCH   9  10
ATOM     10  O   UNL     1      -2.392   1.060   0.019  0.00  0.00    -0.483 OA
BRANCH  10  11
ATOM     11  C   UNL     1      -1.223   1.754   0.017  0.00  0.00    +0.122 A 
ATOM     12  C   UNL     1      -0.013   1.076   0.008  0.00  0.00    +0.046 A 
ATOM     13  C   UNL     1       1.174   1.783   0.000  0.00  0.00    +0.005 A 
ATOM     14  C   UNL     1       1.156   3.166   0.008  0.00  0.00    +0.015 A 
ATOM     15  C   UNL     1      -0.049   3.844   0.023  0.00  0.00    +0.021 A 
ATOM     16  C   UNL     1      -1.239   3.140   0.031  0.00  0.00    +0.061 A 
ATOM     17 BR   UNL     1      -0.069   5.735   0.033  0.00  0.00    -0.050 Br
ENDBRANCH  10  11
ENDBRANCH   9  10
ENDBRANCH   6   9
ENDBRANCH   3   5
BRANCH   1  18
ATOM     18  C   UNL     1      -9.571   0.090   0.046  0.00  0.00    +0.097 C 
BRANCH  18  19
ATOM     19  C   UNL     1     -10.864   0.907   0.056  0.00  0.00    +0.014 C 
BRANCH  19  20
ATOM     20  C   UNL     1     -12.066  -0.040   0.056  0.00  0.00    +0.038 C 
BRANCH  20  27
ATOM     21  C   UNL     1     -14.633   1.945  -3.327  0.00  0.00    +0.001 A 
ATOM     22  C   UNL     1     -15.755   2.602  -2.839  0.00  0.00    +0.002 A 
ATOM     23  C   UNL     1     -16.023   2.627  -1.488  0.00  0.00    +0.026 A 
ATOM     24  C   UNL     1     -15.162   1.989  -0.601  0.00  0.00    +0.047 A 
ATOM     25  C   UNL     1     -14.027   1.324  -1.100  0.00  0.00    +0.003 A 
ATOM     26  C   UNL     1     -13.774   1.311  -2.473  0.00  0.00    +0.010 A 
ATOM     27  C   UNL     1     -13.340   0.765   0.067  0.00  0.00    -0.022 A 
ATOM     28  C   UNL     1     -14.063   1.101   1.146  0.00  0.00    +0.087 A 
ATOM     29  N   UNL     1     -15.153   1.837   0.767  0.00  0.00    -0.360 N 
ATOM     30  H   UNL     1     -15.822   2.195   1.372  0.00  0.00    +0.165 HD
ENDBRANCH  20  27
ENDBRANCH  19  20
ENDBRANCH  18  19
ENDBRANCH   1  18
TORSDOF 8
