REMARK  Name = ZINC44395778
REMARK  6 active torsions:
REMARK  status: ('A' for Active; 'I' for Inactive)
REMARK    1  A    between atoms: C_1  and  C_2
REMARK    2  A    between atoms: C_2  and  C_4
REMARK    3  A    between atoms: C_2  and  N_21
REMARK    4  A    between atoms: N_6  and  C_7
REMARK    5  A    between atoms: C_10  and  C_13
REMARK    6  A    between atoms: C_26  and  C_28
REMARK                            x       y       z     vdW  Elec       q    Type
REMARK                         _______ _______ _______ _____ _____    ______ ____
ROOT
ATOM      1  C   UNL     1       0.730  -0.502   1.224  0.00  0.00    +0.242 C 
ATOM      2  O   UNL     1       0.155  -1.204   2.028  0.00  0.00    -0.273 OA
ATOM      3  N   UNL     1       2.019  -0.161   1.426  0.00  0.00    -0.284 N 
ATOM      4  H   UNL     1       2.498   0.344   0.751  0.00  0.00    +0.155 HD
ENDROOT
BRANCH   3   5
ATOM      5  C   UNL     1       2.664  -0.537   2.609  0.00  0.00    +0.033 A 
ATOM      6  C   UNL     1       2.366  -1.756   3.205  0.00  0.00    +0.024 A 
ATOM      7  C   UNL     1       3.001  -2.129   4.371  0.00  0.00    +0.012 A 
ATOM      8  C   UNL     1       3.943  -1.281   4.952  0.00  0.00    +0.002 A 
ATOM      9  C   UNL     1       4.240  -0.058   4.352  0.00  0.00    +0.012 A 
ATOM     10  C   UNL     1       3.606   0.308   3.183  0.00  0.00    +0.024 A 
BRANCH   8  11
ATOM     11  C   UNL     1       4.627  -1.679   6.206  0.00  0.00    +0.090 A 
ATOM     12  C   UNL     1       5.553  -0.949   6.874  0.00  0.00    +0.121 A 
ATOM     13  N   UNL     1       5.939  -1.679   7.992  0.00  0.00    -0.300 N 
ATOM     14  C   UNL     1       6.803  -1.545   9.058  0.00  0.00    +0.100 A 
ATOM     15  C   UNL     1       6.907  -2.503   9.977  0.00  0.00    +0.067 A 
ATOM     16  S   UNL     1       5.741  -3.717   9.379  0.00  0.00    -0.058 S 
ATOM     17  C   UNL     1       5.204  -2.835   7.932  0.00  0.00    +0.178 A 
ATOM     18  N   UNL     1       4.431  -2.828   6.885  0.00  0.00    -0.221 NA
ENDBRANCH   8  11
ENDBRANCH   3   5
BRANCH   1  20
ATOM     19  C   UNL     1      -0.013   1.521  -0.004  0.00  0.00    +0.043 C 
ATOM     20  C   UNL     1       0.004  -0.009  -0.002  0.00  0.00    +0.194 C 
BRANCH  20  21
ATOM     21  N   UNL     1      -1.371  -0.513   0.011  0.00  0.00    -0.217 N 
ATOM     22  C   UNL     1      -1.791  -1.297  -1.000  0.00  0.00    +0.268 A 
ATOM     23  O   UNL     1      -1.032  -1.581  -1.913  0.00  0.00    -0.266 OA
ATOM     24  C   UNL     1      -3.115  -1.787  -0.997  0.00  0.00    +0.074 A 
ATOM     25  C   UNL     1      -3.922  -1.440   0.046  0.00  0.00    +0.035 A 
ATOM     26  C   UNL     1      -3.386  -0.612   1.060  0.00  0.00    +0.092 A 
ATOM     27  N   UNL     1      -2.143  -0.200   0.988  0.00  0.00    -0.168 NA
BRANCH  26  28
ATOM     28  C   UNL     1      -4.232  -0.212   2.211  0.00  0.00    +0.002 A 
ATOM     29  C   UNL     1      -3.712   0.609   3.210  0.00  0.00    +0.010 A 
ATOM     30  C   UNL     1      -4.503   0.978   4.279  0.00  0.00    +0.001 A 
ATOM     31  C   UNL     1      -5.811   0.534   4.359  0.00  0.00    +0.000 A 
ATOM     32  C   UNL     1      -6.333  -0.281   3.371  0.00  0.00    +0.001 A 
ATOM     33  C   UNL     1      -5.552  -0.651   2.295  0.00  0.00    +0.010 A 
ENDBRANCH  26  28
ENDBRANCH  20  21
ENDBRANCH   1  20
TORSDOF 5
