REMARK  Name = ZINC62038591
REMARK  9 active torsions:
REMARK  status: ('A' for Active; 'I' for Inactive)
REMARK    1  A    between atoms: C_1  and  C_2
REMARK    2  A    between atoms: C_2  and  C_3
REMARK    3  A    between atoms: C_6  and  C_9
REMARK    4  A    between atoms: C_17  and  S_19
REMARK    5  A    between atoms: S_19  and  C_20
REMARK    6  A    between atoms: C_20  and  C_22
REMARK    7  A    between atoms: C_20  and  C_23
REMARK    8  A    between atoms: N_25  and  C_26
REMARK    9  A    between atoms: C_31  and  O_32
REMARK                            x       y       z     vdW  Elec       q    Type
REMARK                         _______ _______ _______ _____ _____    ______ ____
ROOT
ATOM      1  C   UNL     1       2.660  -1.834  -4.796  0.00  0.00    +0.004 A 
ATOM      2  C   UNL     1       2.189  -2.898  -5.490  0.00  0.00    +0.056 A 
ATOM      3  S   UNL     1       3.356  -3.061  -6.828  0.00  0.00    -0.078 S 
ATOM      4  C   UNL     1       4.433  -1.712  -6.423  0.00  0.00    +0.093 A 
ATOM      5  C   UNL     1       3.865  -1.165  -5.272  0.00  0.00    +0.080 A 
ATOM      6  C   UNL     1       4.577   0.006  -4.710  0.00  0.00    +0.283 A 
ATOM      7  O   UNL     1       4.162   0.554  -3.700  0.00  0.00    -0.265 OA
ATOM      8  N   UNL     1       5.678   0.458  -5.318  0.00  0.00    -0.185 NA
ATOM      9  C   UNL     1       6.160  -0.101  -6.408  0.00  0.00    +0.171 A 
ATOM     10  N   UNL     1       5.562  -1.188  -6.973  0.00  0.00    -0.328 N 
ATOM     11  H   UNL     1       5.937  -1.582  -7.776  0.00  0.00    +0.168 HD
ENDROOT
BRANCH   1  15
ATOM     12  C   UNL     1       0.656  -0.465  -1.306  0.00  0.00    -0.048 A 
ATOM     13  C   UNL     1      -0.059  -0.685  -2.469  0.00  0.00    +0.004 A 
ATOM     14  C   UNL     1       0.586  -1.130  -3.605  0.00  0.00    +0.009 A 
ATOM     15  C   UNL     1       1.962  -1.357  -3.579  0.00  0.00    -0.017 A 
ATOM     16  C   UNL     1       2.677  -1.133  -2.403  0.00  0.00    +0.009 A 
ATOM     17  C   UNL     1       2.022  -0.683  -1.275  0.00  0.00    +0.004 A 
BRANCH  12  19
ATOM     18  C   UNL     1      -0.068   1.550  -0.055  0.00  0.00    +0.009 C 
ATOM     19  C   UNL     1      -0.054   0.020  -0.068  0.00  0.00    +0.032 C 
ENDBRANCH  12  19
ENDBRANCH   1  15
BRANCH   9  20
ATOM     20  S   UNL     1       7.618   0.562  -7.144  0.00  0.00    -0.075 S 
BRANCH  20  21
ATOM     21  C   UNL     1       8.057   1.956  -6.069  0.00  0.00    +0.137 C 
ATOM     22  C   UNL     1       8.431   1.432  -4.681  0.00  0.00    +0.029 C 
BRANCH  21  23
ATOM     23  C   UNL     1       9.230   2.695  -6.660  0.00  0.00    +0.230 C 
ATOM     24  O   UNL     1       9.946   2.147  -7.472  0.00  0.00    -0.274 OA
ATOM     25  N   UNL     1       9.485   3.964  -6.286  0.00  0.00    -0.282 N 
ATOM     26  H   UNL     1       8.876   4.424  -5.686  0.00  0.00    +0.155 HD
BRANCH  25  27
ATOM     27  C   UNL     1      10.627   4.620  -6.763  0.00  0.00    +0.077 A 
ATOM     28  C   UNL     1      11.090   4.366  -8.046  0.00  0.00    +0.047 A 
ATOM     29  C   UNL     1      12.218   5.015  -8.514  0.00  0.00    +0.043 A 
ATOM     30  C   UNL     1      12.887   5.916  -7.706  0.00  0.00    +0.023 A 
ATOM     31  C   UNL     1      12.432   6.173  -6.426  0.00  0.00    +0.049 A 
ATOM     32  C   UNL     1      11.299   5.532  -5.952  0.00  0.00    +0.138 A 
ATOM     33 CL   UNL     1      12.796   4.697 -10.120  0.00  0.00    -0.083 Cl
BRANCH  32  34
ATOM     34  O   UNL     1      10.847   5.788  -4.695  0.00  0.00    -0.505 OA
ATOM     35  H   UNL     1      11.221   5.210  -4.017  0.00  0.00    +0.292 HD
ENDBRANCH  32  34
ENDBRANCH  25  27
ENDBRANCH  21  23
ENDBRANCH  20  21
ENDBRANCH   9  20
TORSDOF 7
