REMARK  Name = ZINC37376647
REMARK  9 active torsions:
REMARK  status: ('A' for Active; 'I' for Inactive)
REMARK    1  A    between atoms: C_1  and  O_2
REMARK    2  A    between atoms: O_2  and  C_3
REMARK    3  A    between atoms: C_6  and  C_9
REMARK    4  A    between atoms: C_9  and  C_10
REMARK    5  A    between atoms: C_10  and  N_11
REMARK    6  A    between atoms: C_14  and  C_29
REMARK    7  A    between atoms: C_16  and  N_28
REMARK    8  A    between atoms: N_17  and  C_21
REMARK    9  A    between atoms: C_21  and  C_22
REMARK                            x       y       z     vdW  Elec       q    Type
REMARK                         _______ _______ _______ _____ _____    ______ ____
ROOT
ATOM      1  N   UNL     1       4.545  -4.158  -4.789  0.00  0.00    -0.313 N 
ATOM      2  C   UNL     1       5.920  -4.112  -4.929  0.00  0.00    +0.218 A 
ATOM      3  N   UNL     1       6.465  -4.717  -5.980  0.00  0.00    -0.214 NA
ATOM      4  C   UNL     1       7.775  -4.721  -6.191  0.00  0.00    +0.091 A 
ATOM      5  C   UNL     1       8.605  -4.057  -5.260  0.00  0.00    +0.086 A 
ATOM      6  C   UNL     1       9.971  -3.838  -5.122  0.00  0.00    +0.126 A 
ATOM      7  N   UNL     1      10.154  -3.118  -4.002  0.00  0.00    -0.244 N 
ATOM      8  N   UNL     1       8.921  -2.858  -3.394  0.00  0.00    -0.149 NA
ATOM      9  C   UNL     1       7.960  -3.400  -4.109  0.00  0.00    +0.188 A 
ATOM     10  N   UNL     1       6.617  -3.467  -4.017  0.00  0.00    -0.193 NA
ATOM     11  H   UNL     1       4.005  -4.627  -5.445  0.00  0.00    +0.149 HD
ENDROOT
BRANCH   4  12
ATOM     12  C   UNL     1       8.352  -5.404  -7.370  0.00  0.00    +0.039 A 
ATOM     13  C   UNL     1       9.319  -6.397  -7.202  0.00  0.00    +0.013 A 
ATOM     14  C   UNL     1       9.853  -7.030  -8.304  0.00  0.00    +0.004 A 
ATOM     15  C   UNL     1       9.434  -6.686  -9.577  0.00  0.00    +0.041 A 
ATOM     16  C   UNL     1       8.476  -5.703  -9.755  0.00  0.00    +0.159 A 
ATOM     17  C   UNL     1       7.927  -5.063  -8.656  0.00  0.00    +0.168 A 
ATOM     18  F   UNL     1       6.987  -4.107  -8.828  0.00  0.00    -0.202 F 
ATOM     19  F   UNL     1       8.072  -5.371 -11.001  0.00  0.00    -0.202 F 
ENDBRANCH   4  12
BRANCH   6  20
ATOM     20  N   UNL     1      10.960  -4.280  -5.981  0.00  0.00    -0.343 N 
ATOM     21  H   UNL     1      10.720  -4.690  -6.827  0.00  0.00    +0.144 HD
ATOM     22  H   UNL     1      11.894  -4.180  -5.737  0.00  0.00    +0.144 HD
ENDBRANCH   6  20
BRANCH   1  23
ATOM     23  C   UNL     1       3.902  -3.500  -3.648  0.00  0.00    +0.109 C 
BRANCH  23  24
ATOM     24  C   UNL     1       2.387  -3.701  -3.731  0.00  0.00    +0.054 C 
BRANCH  24  28
ATOM     25  C   UNL     1       0.512  -1.780  -0.405  0.00  0.00    +0.120 A 
ATOM     26  C   UNL     1       0.718  -1.081  -1.586  0.00  0.00    +0.046 A 
ATOM     27  C   UNL     1       1.325  -1.704  -2.659  0.00  0.00    +0.007 A 
ATOM     28  C   UNL     1       1.726  -3.023  -2.558  0.00  0.00    -0.046 A 
ATOM     29  C   UNL     1       1.522  -3.722  -1.383  0.00  0.00    +0.007 A 
ATOM     30  C   UNL     1       0.921  -3.102  -0.304  0.00  0.00    +0.046 A 
BRANCH  25  32
ATOM     31  C   UNL     1      -0.479   0.193   0.477  0.00  0.00    +0.277 C 
ATOM     32  O   UNL     1      -0.084  -1.169   0.652  0.00  0.00    -0.495 OA
ENDBRANCH  25  32
ENDBRANCH  24  28
ENDBRANCH  23  24
ENDBRANCH   1  23
BRANCH   7  33
ATOM     33  C   UNL     1      11.454  -2.673  -3.492  0.00  0.00    +0.180 C 
BRANCH  33  34
ATOM     34  C   UNL     1      11.783  -1.320  -4.068  0.00  0.00    -0.026 A 
ATOM     35  C   UNL     1      12.473  -1.227  -5.262  0.00  0.00    +0.005 A 
ATOM     36  C   UNL     1      12.775   0.014  -5.791  0.00  0.00    +0.000 A 
ATOM     37  C   UNL     1      12.386   1.162  -5.127  0.00  0.00    +0.000 A 
ATOM     38  C   UNL     1      11.695   1.069  -3.933  0.00  0.00    +0.000 A 
ATOM     39  C   UNL     1      11.389  -0.172  -3.406  0.00  0.00    +0.005 A 
ENDBRANCH  33  34
ENDBRANCH   7  33
TORSDOF 8
