REMARK  Name = ZINC39678162
REMARK  5 active torsions:
REMARK  status: ('A' for Active; 'I' for Inactive)
REMARK    1  A    between atoms: C_7  and  C_10
REMARK    2  A    between atoms: C_14  and  C_23
REMARK    3  A    between atoms: N_25  and  C_26
REMARK    4  A    between atoms: C_26  and  C_27
REMARK    5  A    between atoms: C_30  and  N_33
REMARK                            x       y       z     vdW  Elec       q    Type
REMARK                         _______ _______ _______ _____ _____    ______ ____
ROOT
ATOM      1  C   UNL     1       0.376  -3.119  -0.020  0.00  0.00    +0.248 C 
ATOM      2  O   UNL     1      -0.774  -2.739   0.095  0.00  0.00    -0.270 OA
ATOM      3  N   UNL     1       0.642  -4.436  -0.132  0.00  0.00    -0.296 N 
ATOM      4  C   UNL     1       1.968  -5.096  -0.157  0.00  0.00    +0.121 C 
ATOM      5  C   UNL     1       1.778  -6.385   0.673  0.00  0.00    +0.100 C 
ATOM      6  C   UNL     1       0.271  -6.680   0.600  0.00  0.00    -0.004 C 
ATOM      7  C   UNL     1      -0.327  -5.551  -0.253  0.00  0.00    +0.115 C 
ATOM      8  C   UNL     1       0.028  -8.031  -0.064  0.00  0.00    -0.010 C 
ATOM      9  C   UNL     1      -1.474  -8.328  -0.072  0.00  0.00    -0.082 C 
ATOM     10  N   UNL     1      -1.980  -8.340   1.306  0.00  0.00    +0.379 N 
ATOM     11  C   UNL     1      -1.827  -7.010   1.906  0.00  0.00    -0.082 C 
ATOM     12  C   UNL     1      -0.340  -6.657   1.998  0.00  0.00    -0.010 C 
ATOM     13  H   UNL     1      -2.957  -8.595   1.302  0.00  0.00    -0.086 HD
ATOM     14  H   UNL     1      -1.461  -9.014   1.847  0.00  0.00    -0.086 HD
ENDROOT
BRANCH   1  21
ATOM     15  C   UNL     1       0.323   0.980   1.833  0.00  0.00    +0.001 A 
ATOM     16  C   UNL     1       1.474   1.742   1.700  0.00  0.00    +0.001 A 
ATOM     17  C   UNL     1       2.561   1.225   1.022  0.00  0.00    +0.015 A 
ATOM     18  C   UNL     1       2.488  -0.043   0.485  0.00  0.00    +0.020 A 
ATOM     19  C   UNL     1       1.332  -0.836   0.606  0.00  0.00    +0.001 A 
ATOM     20  C   UNL     1       0.240  -0.283   1.303  0.00  0.00    +0.010 A 
ATOM     21  C   UNL     1       1.474  -2.145  -0.037  0.00  0.00    +0.052 A 
ATOM     22  C   UNL     1       2.653  -2.428  -0.649  0.00  0.00    +0.059 A 
ATOM     23  S   UNL     1       3.607  -1.066  -0.433  0.00  0.00    -0.096 S 
ENDBRANCH   1  21
BRANCH   5  24
ATOM     24  C   UNL     1       2.567  -7.519   0.069  0.00  0.00    +0.218 C 
ATOM     25  O   UNL     1       2.843  -7.503  -1.112  0.00  0.00    -0.275 OA
ATOM     26  N   UNL     1       2.965  -8.549   0.841  0.00  0.00    -0.311 N 
ATOM     27  H   UNL     1       2.744  -8.561   1.785  0.00  0.00    +0.149 HD
BRANCH  26  28
ATOM     28  C   UNL     1       3.731  -9.651   0.254  0.00  0.00    +0.139 C 
BRANCH  28  29
ATOM     29  C   UNL     1       4.049 -10.666   1.321  0.00  0.00    -0.030 A 
ATOM     30  C   UNL     1       5.212 -10.550   2.059  0.00  0.00    +0.007 A 
ATOM     31  C   UNL     1       5.507 -11.479   3.038  0.00  0.00    +0.023 A 
ATOM     32  C   UNL     1       4.633 -12.531   3.280  0.00  0.00    +0.030 A 
ATOM     33  C   UNL     1       3.465 -12.645   2.537  0.00  0.00    +0.023 A 
ATOM     34  C   UNL     1       3.174 -11.710   1.563  0.00  0.00    +0.007 A 
BRANCH  32  35
ATOM     35  N   UNL     1       4.928 -13.472   4.269  0.00  0.00    -0.326 N 
ATOM     36  C   UNL     1       3.968 -14.532   4.616  0.00  0.00    +0.133 C 
ATOM     37  C   UNL     1       4.702 -15.878   4.587  0.00  0.00    +0.178 C 
ATOM     38  O   UNL     1       5.875 -15.792   5.400  0.00  0.00    -0.377 OA
ATOM     39  C   UNL     1       6.833 -14.832   4.947  0.00  0.00    +0.178 C 
ATOM     40  C   UNL     1       6.210 -13.437   4.990  0.00  0.00    +0.133 C 
ENDBRANCH  32  35
ENDBRANCH  28  29
ENDBRANCH  26  28
ENDBRANCH   5  24
TORSDOF 5
