REMARK  Name = ZINC66363022
REMARK  8 active torsions:
REMARK  status: ('A' for Active; 'I' for Inactive)
REMARK    1  A    between atoms: C_1  and  C_2
REMARK    2  A    between atoms: C_6  and  C_25
REMARK    3  A    between atoms: C_8  and  N_11
REMARK    4  A    between atoms: N_14  and  C_15
REMARK    5  A    between atoms: C_21  and  O_23
REMARK    6  A    between atoms: O_23  and  C_24
REMARK    7  A    between atoms: C_25  and  C_26
REMARK    8  A    between atoms: C_25  and  C_27
REMARK                            x       y       z     vdW  Elec       q    Type
REMARK                         _______ _______ _______ _____ _____    ______ ____
ROOT
ATOM      1  N   UNL     1       1.537  -2.391   2.465  0.00  0.00    -0.296 N 
ATOM      2  C   UNL     1       2.884  -2.336   2.462  0.00  0.00    +0.300 C 
ATOM      3  O   UNL     1       3.475  -1.969   1.465  0.00  0.00    -0.253 OA
ATOM      4  N   UNL     1       3.575  -2.688   3.564  0.00  0.00    -0.296 N 
ATOM      5  H   UNL     1       1.065  -2.684   3.261  0.00  0.00    +0.151 HD
ATOM      6  H   UNL     1       3.103  -2.981   4.360  0.00  0.00    +0.151 HD
ENDROOT
BRANCH   4   7
ATOM      7  C   UNL     1       5.039  -2.628   3.561  0.00  0.00    +0.077 C 
ATOM      8  C   UNL     1       5.601  -3.924   2.972  0.00  0.00    +0.041 C 
ATOM      9  C   UNL     1       7.130  -3.844   2.938  0.00  0.00    +0.113 C 
ATOM     10  N   UNL     1       7.617  -3.534   4.289  0.00  0.00    -0.267 N 
ATOM     11  C   UNL     1       7.074  -2.359   4.984  0.00  0.00    +0.113 C 
ATOM     12  C   UNL     1       5.545  -2.456   4.995  0.00  0.00    +0.041 C 
ATOM     13  C   UNL     1       8.545  -4.313   4.879  0.00  0.00    +0.403 C 
ATOM     14  O   UNL     1       8.986  -5.282   4.294  0.00  0.00    -0.226 OA
BRANCH  13  15
ATOM     15  O   UNL     1       8.983  -4.018   6.118  0.00  0.00    -0.454 OA
ATOM     16  C   UNL     1       9.966  -4.886   6.683  0.00  0.00    +0.282 C 
ENDBRANCH  13  15
ENDBRANCH   4   7
BRANCH   1  22
ATOM     17  C   UNL     1      -0.301   1.434  -0.071  0.00  0.00    +0.007 C 
ATOM     18  C   UNL     1      -0.150  -0.088  -0.028  0.00  0.00    -0.012 C 
ATOM     19  C   UNL     1      -1.535  -0.737   0.011  0.00  0.00    +0.004 C 
ATOM     20  C   UNL     1      -1.385  -2.259   0.054  0.00  0.00    +0.006 C 
ATOM     21  C   UNL     1      -0.600  -2.658   1.305  0.00  0.00    +0.012 C 
ATOM     22  C   UNL     1       0.785  -2.009   1.267  0.00  0.00    +0.078 C 
ATOM     23  C   UNL     1       0.634  -0.487   1.224  0.00  0.00    +0.026 C 
BRANCH  21  24
ATOM     24  C   UNL     1      -0.449  -4.180   1.349  0.00  0.00    -0.012 C 
ATOM     25  C   UNL     1      -1.824  -4.824   1.536  0.00  0.00    +0.007 C 
ATOM     26  C   UNL     1       0.169  -4.669   0.037  0.00  0.00    +0.007 C 
ENDBRANCH  21  24
ENDBRANCH   1  22
TORSDOF 4
