REMARK  Name = ZINC14996258
REMARK  7 active torsions:
REMARK  status: ('A' for Active; 'I' for Inactive)
REMARK    1  A    between atoms: C_6  and  C_7
REMARK    2  A    between atoms: C_7  and  O_21
REMARK    3  A    between atoms: C_12  and  C_13
REMARK    4  A    between atoms: C_12  and  N_62
REMARK    5  A    between atoms: C_23  and  C_25
REMARK    6  A    between atoms: N_27  and  C_28
REMARK    7  A    between atoms: C_28  and  C_29
REMARK                            x       y       z     vdW  Elec       q    Type
REMARK                         _______ _______ _______ _____ _____    ______ ____
ROOT
ATOM      1  C   UNL     1      -0.968  10.139  -1.390  0.00  0.00    +0.010 A 
ATOM      2  C   UNL     1      -0.636   8.915  -0.850  0.00  0.00    +0.047 A 
ATOM      3  C   UNL     1      -0.998   7.746  -1.510  0.00  0.00    +0.136 A 
ATOM      4  C   UNL     1      -1.701   7.835  -2.726  0.00  0.00    +0.021 A 
ATOM      5  C   UNL     1      -2.027   9.085  -3.257  0.00  0.00    +0.018 A 
ATOM      6  C   UNL     1      -1.661  10.220  -2.590  0.00  0.00    -0.015 A 
ATOM      7  C   UNL     1      -1.922   6.455  -3.158  0.00  0.00    +0.063 A 
ATOM      8  C   UNL     1      -1.364   5.668  -2.202  0.00  0.00    +0.190 A 
ATOM      9  O   UNL     1      -0.820   6.439  -1.237  0.00  0.00    -0.450 OA
ENDROOT
BRANCH   6  10
ATOM     10  C   UNL     1      -2.012  11.570  -3.160  0.00  0.00    +0.088 C 
ATOM     11  C   UNL     1      -0.878  12.053  -4.069  0.00  0.00    +0.021 C 
ATOM     12  C   UNL     1      -1.214  13.449  -4.597  0.00  0.00    -0.075 C 
ATOM     13  C   UNL     1      -2.501  13.956  -2.607  0.00  0.00    -0.075 C 
ATOM     14  C   UNL     1      -2.204  12.574  -2.020  0.00  0.00    +0.021 C 
ATOM     15  N   UNL     1      -1.361  14.373  -3.452  0.00  0.00    +0.383 N 
ATOM     16  H   UNL     1      -0.502  14.346  -2.890  0.00  0.00    -0.081 HD
BRANCH  10  17
ATOM     17  O   UNL     1      -3.221  11.469  -3.916  0.00  0.00    -0.384 OA
ATOM     18  H   UNL     1      -3.171  10.851  -4.657  0.00  0.00    +0.211 HD
ENDBRANCH  10  17
BRANCH  15  19
ATOM     19  C   UNL     1      -1.572  15.751  -3.939  0.00  0.00    -0.040 C 
BRANCH  19  20
ATOM     20  C   UNL     1      -0.552  16.060  -5.005  0.00  0.00    -0.026 A 
ATOM     21  C   UNL     1       0.583  16.782  -4.686  0.00  0.00    +0.043 A 
ATOM     22  C   UNL     1       1.522  17.062  -5.664  0.00  0.00    +0.124 A 
ATOM     23  C   UNL     1       1.320  16.627  -6.963  0.00  0.00    +0.041 A 
ATOM     24  C   UNL     1       0.183  15.910  -7.282  0.00  0.00    +0.041 A 
ATOM     25  C   UNL     1      -0.754  15.626  -6.303  0.00  0.00    +0.125 A 
ATOM     26  F   UNL     1      -1.866  14.924  -6.616  0.00  0.00    -0.205 F 
ATOM     27  F   UNL     1       2.633  17.764  -5.352  0.00  0.00    -0.205 F 
ENDBRANCH  19  20
ENDBRANCH  15  19
ENDBRANCH   6  10
BRANCH   8  28
ATOM     28  C   UNL     1      -1.349   4.199  -2.219  0.00  0.00    +0.279 C 
ATOM     29  O   UNL     1      -1.869   3.596  -3.139  0.00  0.00    -0.267 OA
ATOM     30  N   UNL     1      -0.759   3.519  -1.216  0.00  0.00    -0.306 N 
ATOM     31  H   UNL     1      -0.344   4.000  -0.483  0.00  0.00    +0.149 HD
BRANCH  30  32
ATOM     32  C   UNL     1      -0.745   2.054  -1.233  0.00  0.00    +0.136 C 
BRANCH  32  33
ATOM     33  C   UNL     1      -0.019   1.537   0.011  0.00  0.00    +0.135 C 
ATOM     34  C   UNL     1       0.002  -0.004   0.002  0.00  0.00    +0.035 C 
ATOM     35  C   UNL     1       1.508  -0.363   0.039  0.00  0.00    +0.031 C 
ATOM     36  C   UNL     1       2.138   0.935   0.603  0.00  0.00    +0.160 C 
ATOM     37  O   UNL     1       1.348   1.983  -0.000  0.00  0.00    -0.375 OA
ENDBRANCH  32  33
ENDBRANCH  30  32
ENDBRANCH   8  28
TORSDOF 7
