REMARK  Name = ZINC08622848
REMARK  12 active torsions:
REMARK  status: ('A' for Active; 'I' for Inactive)
REMARK    1  A    between atoms: C_1  and  C_2
REMARK    2  A    between atoms: C_5  and  N_9
REMARK    3  A    between atoms: N_9  and  C_10
REMARK    4  A    between atoms: C_10  and  N_12
REMARK    5  A    between atoms: N_12  and  C_13
REMARK    6  A    between atoms: C_13  and  C_14
REMARK    7  A    between atoms: C_22  and  C_24
REMARK    8  A    between atoms: C_26  and  C_31
REMARK    9  A    between atoms: C_28  and  C_30
REMARK   10  A    between atoms: C_34  and  N_37
REMARK   11  A    between atoms: N_37  and  C_38
REMARK   12  A    between atoms: N_37  and  C_39
REMARK                            x       y       z     vdW  Elec       q    Type
REMARK                         _______ _______ _______ _____ _____    ______ ____
ROOT
ATOM      1  C   UNL     1       4.988  -2.669   0.112  0.00  0.00    -0.051 C 
ATOM      2  C   UNL     1       5.034  -4.189  -0.066  0.00  0.00    -0.010 C 
ATOM      3  C   UNL     1       5.870  -4.517  -1.310  0.00  0.00    -0.007 C 
ATOM      4  C   UNL     1       7.279  -3.941  -1.118  0.00  0.00    -0.015 C 
ATOM      5  C   UNL     1       7.171  -2.428  -0.912  0.00  0.00    -0.078 C 
ATOM      6  C   UNL     1       5.175  -2.327  -2.279  0.00  0.00    -0.068 C 
ATOM      7  C   UNL     1       5.215  -3.855  -2.528  0.00  0.00    +0.024 C 
ATOM      8  N   UNL     1       5.756  -2.000  -0.960  0.00  0.00    +0.383 N 
ATOM      9  H   UNL     1       5.710  -0.984  -0.819  0.00  0.00    -0.081 HD
ENDROOT
BRANCH   7  10
ATOM     10  C   UNL     1       3.821  -4.400  -2.710  0.00  0.00    +0.047 A 
ATOM     11  C   UNL     1       2.863  -3.662  -3.381  0.00  0.00    +0.052 A 
ATOM     12  C   UNL     1       1.587  -4.213  -3.529  0.00  0.00    +0.075 A 
ATOM     13  N   UNL     1       1.341  -5.416  -3.012  0.00  0.00    -0.232 NA
ATOM     14  C   UNL     1       2.284  -6.079  -2.377  0.00  0.00    +0.127 A 
ATOM     15  N   UNL     1       3.498  -5.590  -2.225  0.00  0.00    -0.237 NA
ATOM     16  C   UNL     1       1.966  -7.437  -1.806  0.00  0.00    +0.088 C 
BRANCH  12  17
ATOM     17  C   UNL     1       0.523  -3.468  -4.244  0.00  0.00    +0.001 A 
ATOM     18  C   UNL     1       0.820  -2.259  -4.873  0.00  0.00    +0.012 A 
ATOM     19  C   UNL     1      -0.169  -1.571  -5.542  0.00  0.00    +0.024 A 
ATOM     20  C   UNL     1      -1.464  -2.076  -5.580  0.00  0.00    +0.029 A 
ATOM     21  C   UNL     1      -1.763  -3.279  -4.949  0.00  0.00    +0.024 A 
ATOM     22  C   UNL     1      -0.776  -3.973  -4.284  0.00  0.00    +0.012 A 
BRANCH  20  23
ATOM     23  N   UNL     1      -2.464  -1.376  -6.253  0.00  0.00    -0.336 N 
ATOM     24  C   UNL     1      -3.852  -1.842  -6.193  0.00  0.00    +0.129 C 
ATOM     25  C   UNL     1      -2.128  -0.175  -7.021  0.00  0.00    +0.129 C 
ENDBRANCH  20  23
ENDBRANCH  12  17
ENDBRANCH   7  10
BRANCH   1  26
ATOM     26  C   UNL     1       3.535  -2.192   0.054  0.00  0.00    +0.088 C 
BRANCH  26  27
ATOM     27  N   UNL     1       3.499  -0.729   0.113  0.00  0.00    -0.328 N 
ATOM     28  H   UNL     1       4.319  -0.229   0.251  0.00  0.00    +0.148 HD
BRANCH  27  29
ATOM     29  C   UNL     1       2.327  -0.078  -0.025  0.00  0.00    +0.135 C 
ATOM     30  S   UNL     1       0.865  -0.962  -0.141  0.00  0.00    -0.019 S 
BRANCH  29  31
ATOM     31  N   UNL     1       2.306   1.269  -0.073  0.00  0.00    -0.296 N 
ATOM     32  H   UNL     1       3.138   1.768  -0.071  0.00  0.00    +0.154 HD
BRANCH  31  37
ATOM     33  C   UNL     1      -2.650   4.023  -0.284  0.00  0.00    +0.044 C 
ATOM     34  C   UNL     1      -1.334   3.292  -0.227  0.00  0.00    -0.049 A 
ATOM     35  C   UNL     1      -1.110   2.208  -1.057  0.00  0.00    +0.005 A 
ATOM     36  C   UNL     1       0.093   1.532  -1.004  0.00  0.00    +0.024 A 
ATOM     37  C   UNL     1       1.083   1.948  -0.124  0.00  0.00    +0.047 A 
ATOM     38  C   UNL     1       0.858   3.040   0.705  0.00  0.00    +0.039 A 
ATOM     39  C   UNL     1      -0.350   3.709   0.651  0.00  0.00    +0.020 A 
ATOM     40 BR   UNL     1       2.203   3.610   1.906  0.00  0.00    -0.048 Br
ENDBRANCH  31  37
ENDBRANCH  29  31
ENDBRANCH  27  29
ENDBRANCH  26  27
ENDBRANCH   1  26
TORSDOF 8
