REMARK  Name = ZINC19799811
REMARK  8 active torsions:
REMARK  status: ('A' for Active; 'I' for Inactive)
REMARK    1  A    between atoms: C_5  and  C_7
REMARK    2  A    between atoms: N_9  and  C_10
REMARK    3  A    between atoms: C_10  and  C_12
REMARK    4  A    between atoms: C_10  and  N_16
REMARK    5  A    between atoms: N_16  and  C_17
REMARK    6  A    between atoms: C_17  and  N_19
REMARK    7  A    between atoms: N_19  and  C_20
REMARK    8  A    between atoms: C_23  and  N_26
REMARK                            x       y       z     vdW  Elec       q    Type
REMARK                         _______ _______ _______ _____ _____    ______ ____
ROOT
ATOM      1  C   UNL     1       3.554   6.260   0.315  0.00  0.00    +0.211 C 
ENDROOT
BRANCH   1   4
ATOM      2  C   UNL     1       4.643   6.087   2.488  0.00  0.00    +0.247 C 
ATOM      3  O   UNL     1       5.294   5.156   2.054  0.00  0.00    -0.270 OA
ATOM      4  N   UNL     1       3.745   6.707   1.697  0.00  0.00    -0.289 N 
ATOM      5  H   UNL     1       3.156   7.549   2.089  0.00  0.00    +0.151 HD
BRANCH   2  10
ATOM      6  C   UNL     1       4.274   8.022   5.684  0.00  0.00    +0.001 A 
ATOM      7  C   UNL     1       5.197   7.383   6.495  0.00  0.00    +0.001 A 
ATOM      8  C   UNL     1       5.940   6.324   6.006  0.00  0.00    +0.021 A 
ATOM      9  C   UNL     1       5.766   5.896   4.704  0.00  0.00    +0.053 A 
ATOM     10  C   UNL     1       4.836   6.537   3.881  0.00  0.00    +0.055 A 
ATOM     11  C   UNL     1       4.094   7.610   4.381  0.00  0.00    +0.014 A 
ATOM     12 CL   UNL     1       6.699   4.567   4.092  0.00  0.00    -0.083 Cl
ENDBRANCH   2  10
ENDBRANCH   1   4
BRANCH   1  13
ATOM     13  C   UNL     1       3.502   7.476  -0.612  0.00  0.00    +0.225 C 
ATOM     14 CL   UNL     1       2.130   8.542  -0.130  0.00  0.00    -0.080 Cl
ATOM     15 CL   UNL     1       5.049   8.395  -0.486  0.00  0.00    -0.080 Cl
ATOM     16 CL   UNL     1       3.267   6.926  -2.313  0.00  0.00    -0.080 Cl
ENDBRANCH   1  13
BRANCH   1  17
ATOM     17  N   UNL     1       2.297   5.514   0.212  0.00  0.00    -0.305 N 
ATOM     18  H   UNL     1       1.337   6.051   0.224  0.00  0.00    +0.150 HD
BRANCH  17  19
ATOM     19  C   UNL     1       2.318   4.171   0.104  0.00  0.00    +0.136 C 
ATOM     20  S   UNL     1       3.813   3.337   0.086  0.00  0.00    -0.019 S 
BRANCH  19  21
ATOM     21  N   UNL     1       1.162   3.485   0.009  0.00  0.00    -0.297 N 
ATOM     22  H   UNL     1       0.207   4.025  -0.071  0.00  0.00    +0.154 HD
BRANCH  21  23
ATOM     23  C   UNL     1       1.177   2.086   0.013  0.00  0.00    +0.033 A 
ATOM     24  C   UNL     1       2.010   1.401   0.888  0.00  0.00    +0.025 A 
ATOM     25  C   UNL     1       2.022   0.020   0.890  0.00  0.00    +0.034 A 
ATOM     26  C   UNL     1       1.204  -0.681   0.022  0.00  0.00    +0.126 A 
ATOM     27  C   UNL     1       0.373  -0.002  -0.850  0.00  0.00    +0.034 A 
ATOM     28  C   UNL     1       0.357   1.379  -0.857  0.00  0.00    +0.025 A 
BRANCH  26  29
ATOM     29  N   UNL     1       1.219  -2.161   0.027  0.00  0.00    +0.056 N 
ATOM     30  O   UNL     1       1.951  -2.760   0.795  0.00  0.00    -0.126 OA
ATOM     31  O   UNL     1       0.500  -2.780  -0.736  0.00  0.00    -0.126 OA
ENDBRANCH  26  29
ENDBRANCH  21  23
ENDBRANCH  19  21
ENDBRANCH  17  19
ENDBRANCH   1  17
TORSDOF 8
