REMARK  Name = ZINC44681501
REMARK  12 active torsions:
REMARK  status: ('A' for Active; 'I' for Inactive)
REMARK    1  A    between atoms: C_1  and  C_2
REMARK    2  A    between atoms: C_5  and  O_30
REMARK    3  A    between atoms: C_7  and  C_27
REMARK    4  A    between atoms: C_7  and  C_28
REMARK    5  A    between atoms: C_12  and  O_26
REMARK    6  A    between atoms: C_14  and  C_16
REMARK    7  A    between atoms: C_16  and  C_17
REMARK    8  A    between atoms: N_19  and  C_20
REMARK    9  A    between atoms: C_20  and  C_21
REMARK   10  A    between atoms: C_28  and  O_29
REMARK   11  A    between atoms: O_30  and  C_31
REMARK   12  A    between atoms: N_33  and  C_34
REMARK                            x       y       z     vdW  Elec       q    Type
REMARK                         _______ _______ _______ _____ _____    ______ ____
ROOT
ATOM      1  C   UNL     1       0.586   0.856  -0.851  0.00  0.00    +0.012 C 
ATOM      2  C   UNL     1       0.248  -0.630  -0.657  0.00  0.00    -0.023 C 
ATOM      3  C   UNL     1      -1.256  -0.809  -0.873  0.00  0.00    +0.011 C 
ATOM      4  C   UNL     1      -2.021  -0.046   0.210  0.00  0.00    +0.046 C 
ATOM      5  C   UNL     1      -1.686  -0.626   1.579  0.00  0.00    +0.186 C 
ATOM      6  C   UNL     1      -0.187  -0.581   1.872  0.00  0.00    +0.031 C 
ATOM      7  C   UNL     1       0.643  -1.121   0.725  0.00  0.00    +0.007 C 
ATOM      8  C   UNL     1       2.141  -0.905   0.949  0.00  0.00    +0.007 C 
ATOM      9  C   UNL     1       2.912  -1.731  -0.087  0.00  0.00    +0.032 C 
ATOM     10  C   UNL     1       2.527  -1.303  -1.499  0.00  0.00    +0.119 C 
ATOM     11  C   UNL     1       1.022  -1.406  -1.729  0.00  0.00    +0.032 C 
ATOM     12  C   UNL     1       0.221   0.834   2.281  0.00  0.00    +0.017 C 
ENDROOT
BRANCH  10  13
ATOM     13  O   UNL     1       3.198  -2.153  -2.441  0.00  0.00    -0.391 OA
ATOM     14  H   UNL     1       4.163  -2.122  -2.380  0.00  0.00    +0.210 HD
ENDBRANCH  10  13
BRANCH  11  15
ATOM     15  C   UNL     1       0.601  -2.872  -1.780  0.00  0.00    +0.102 C 
BRANCH  15  16
ATOM     16  C   UNL     1       1.125  -3.501  -3.045  0.00  0.00    +0.214 C 
ATOM     17  O   UNL     1       1.607  -2.806  -3.914  0.00  0.00    -0.276 OA
ATOM     18  N   UNL     1       1.058  -4.837  -3.211  0.00  0.00    -0.311 N 
ATOM     19  H   UNL     1       0.672  -5.393  -2.516  0.00  0.00    +0.149 HD
BRANCH  18  20
ATOM     20  C   UNL     1       1.567  -5.449  -4.441  0.00  0.00    +0.146 C 
BRANCH  20  21
ATOM     21  C   UNL     1       1.375  -6.942  -4.376  0.00  0.00    +0.007 A 
ATOM     22  C   UNL     1       0.319  -7.685  -4.788  0.00  0.00    +0.013 A 
ATOM     23  C   UNL     1       0.362  -9.058  -4.628  0.00  0.00    +0.008 A 
ATOM     24  C   UNL     1       1.458  -9.619  -4.063  0.00  0.00    +0.045 A 
ATOM     25  S   UNL     1       2.482  -8.192  -3.743  0.00  0.00    -0.100 S 
ENDBRANCH  20  21
ENDBRANCH  18  20
ENDBRANCH  15  16
ENDBRANCH  11  15
BRANCH   6  26
ATOM     26  C   UNL     1       0.047  -1.494   3.101  0.00  0.00    +0.166 C 
BRANCH  26  27
ATOM     27  O   UNL     1      -0.706  -1.001   4.211  0.00  0.00    -0.394 OA
ATOM     28  H   UNL     1      -0.607  -1.525   5.018  0.00  0.00    +0.209 HD
ENDBRANCH  26  27
ENDBRANCH   6  26
BRANCH   5  29
ATOM     29  O   UNL     1      -2.141  -1.982   1.649  0.00  0.00    -0.446 OA
BRANCH  29  30
ATOM     30  C   UNL     1      -3.394  -2.183   2.098  0.00  0.00    +0.405 C 
ATOM     31  O   UNL     1      -4.083  -1.236   2.421  0.00  0.00    -0.226 OA
ATOM     32  N   UNL     1      -3.884  -3.436   2.189  0.00  0.00    -0.251 N 
ATOM     33  H   UNL     1      -3.308  -4.196   2.012  0.00  0.00    +0.158 HD
BRANCH  32  34
ATOM     34  C   UNL     1      -5.224  -3.639   2.540  0.00  0.00    +0.036 A 
ATOM     35  C   UNL     1      -5.582  -4.738   3.309  0.00  0.00    +0.023 A 
ATOM     36  C   UNL     1      -6.905  -4.937   3.653  0.00  0.00    +0.002 A 
ATOM     37  C   UNL     1      -7.872  -4.042   3.233  0.00  0.00    +0.000 A 
ATOM     38  C   UNL     1      -7.518  -2.946   2.467  0.00  0.00    +0.002 A 
ATOM     39  C   UNL     1      -6.196  -2.739   2.124  0.00  0.00    +0.023 A 
ENDBRANCH  32  34
ENDBRANCH  29  30
ENDBRANCH   5  29
TORSDOF 10
