REMARK  Name = ZINC38732551
REMARK  6 active torsions:
REMARK  status: ('A' for Active; 'I' for Inactive)
REMARK    1  A    between atoms: C_4  and  C_7
REMARK    2  A    between atoms: C_7  and  C_8
REMARK    3  A    between atoms: C_7  and  C_34
REMARK    4  A    between atoms: C_8  and  N_9
REMARK    5  A    between atoms: C_10  and  C_12
REMARK    6  A    between atoms: C_18  and  C_20
REMARK                            x       y       z     vdW  Elec       q    Type
REMARK                         _______ _______ _______ _____ _____    ______ ____
ROOT
ATOM      1  C   UNL     1       3.733   0.142   4.768  0.00  0.00    +0.087 C 
ATOM      2  C   UNL     1       2.675   1.243   4.854  0.00  0.00    +0.013 C 
ATOM      3  C   UNL     1       2.749   1.916   6.226  0.00  0.00    +0.001 C 
ATOM      4  C   UNL     1       2.492   0.877   7.318  0.00  0.00    +0.001 C 
ATOM      5  C   UNL     1       3.550  -0.225   7.233  0.00  0.00    +0.013 C 
ATOM      6  C   UNL     1       3.476  -0.898   5.861  0.00  0.00    +0.087 C 
ENDROOT
BRANCH   6   7
ATOM      7  C   UNL     1       4.519  -1.983   5.777  0.00  0.00    +0.219 C 
ATOM      8  O   UNL     1       5.595  -1.752   5.268  0.00  0.00    -0.275 OA
ATOM      9  N   UNL     1       4.255  -3.211   6.267  0.00  0.00    -0.298 N 
ATOM     10  C   UNL     1       2.998  -3.476   6.982  0.00  0.00    +0.126 C 
ATOM     11  C   UNL     1       2.287  -4.652   6.301  0.00  0.00    +0.125 C 
ATOM     12  N   UNL     1       3.250  -5.749   6.130  0.00  0.00    -0.314 N 
ATOM     13  C   UNL     1       4.506  -5.483   5.416  0.00  0.00    +0.125 C 
ATOM     14  C   UNL     1       5.215  -4.309   6.091  0.00  0.00    +0.126 C 
ATOM     15  C   UNL     1       2.978  -7.015   6.636  0.00  0.00    +0.099 A 
ATOM     16  C   UNL     1       1.729  -7.282   7.189  0.00  0.00    +0.042 A 
ATOM     17  C   UNL     1       1.472  -8.546   7.689  0.00  0.00    +0.005 A 
ATOM     18  C   UNL     1       2.476  -9.504   7.618  0.00  0.00    +0.018 A 
ATOM     19  C   UNL     1       3.691  -9.169   7.056  0.00  0.00    +0.084 A 
ATOM     20  N   UNL     1       3.907  -7.956   6.582  0.00  0.00    -0.350 N 
ATOM     21  H   UNL     1       4.769  -7.749   6.189  0.00  0.00    +0.166 HD
ENDBRANCH   6   7
BRANCH   1  23
ATOM     22  N   UNL     1       3.856   0.205   2.298  0.00  0.00    -0.314 N 
ATOM     23  C   UNL     1       3.660  -0.521   3.417  0.00  0.00    +0.217 C 
ATOM     24  O   UNL     1       3.426  -1.708   3.336  0.00  0.00    -0.275 OA
ATOM     25  H   UNL     1       4.043   1.155   2.363  0.00  0.00    +0.149 HD
BRANCH  22  26
ATOM     26  C   UNL     1       3.785  -0.439   0.985  0.00  0.00    +0.117 C 
BRANCH  26  27
ATOM     27  C   UNL     1       4.042   0.600  -0.108  0.00  0.00    +0.066 C 
BRANCH  27  31
ATOM     28  C   UNL     1       0.894   3.488  -0.097  0.00  0.00    +0.000 A 
ATOM     29  C   UNL     1       2.211   3.901  -0.030  0.00  0.00    +0.000 A 
ATOM     30  C   UNL     1       3.230   2.967  -0.033  0.00  0.00    +0.004 A 
ATOM     31  C   UNL     1       2.931   1.619  -0.103  0.00  0.00    -0.038 A 
ATOM     32  C   UNL     1       1.614   1.206  -0.169  0.00  0.00    +0.004 A 
ATOM     33  C   UNL     1       0.595   2.140  -0.167  0.00  0.00    +0.000 A 
ENDBRANCH  27  31
BRANCH  27  34
ATOM     34  C   UNL     1       4.091  -0.083  -1.450  0.00  0.00    -0.038 A 
ATOM     35  C   UNL     1       3.064  -0.925  -1.835  0.00  0.00    +0.004 A 
ATOM     36  C   UNL     1       3.109  -1.552  -3.066  0.00  0.00    +0.000 A 
ATOM     37  C   UNL     1       4.180  -1.337  -3.913  0.00  0.00    +0.000 A 
ATOM     38  C   UNL     1       5.207  -0.494  -3.528  0.00  0.00    +0.000 A 
ATOM     39  C   UNL     1       5.160   0.136  -2.299  0.00  0.00    +0.004 A 
ENDBRANCH  27  34
ENDBRANCH  26  27
ENDBRANCH  22  26
ENDBRANCH   1  23
TORSDOF 6
