REMARK  Name = ZINC36152217
REMARK  1 active torsions:
REMARK  status: ('A' for Active; 'I' for Inactive)
REMARK    1  A    between atoms: C_11  and  C_16
REMARK                            x       y       z     vdW  Elec       q    Type
REMARK                         _______ _______ _______ _____ _____    ______ ____
ROOT
ATOM      1  C   UNL     1      -0.019   1.523   0.010  0.00  0.00    +0.002 C 
ATOM      2  C   UNL     1       1.425   2.036  -0.001  0.00  0.00    +0.001 C 
ATOM      3  C   UNL     1       2.106   1.557  -1.281  0.00  0.00    +0.016 C 
ATOM      4  C   UNL     1       2.128   0.027  -1.334  0.00  0.00    +0.076 C 
ATOM      5  C   UNL     1       0.695  -0.522  -1.249  0.00  0.00    +0.101 C 
ATOM      6  C   UNL     1       0.002  -0.004   0.002  0.00  0.00    +0.025 C 
ATOM      7  N   UNL     1       0.707  -1.989  -1.187  0.00  0.00    -0.277 N 
ATOM      8  N   UNL     1       1.245  -2.615  -2.258  0.00  0.00    -0.223 N 
ATOM      9  C   UNL     1       1.002  -3.877  -2.716  0.00  0.00    +0.180 A 
ATOM     10  N   UNL     1       1.769  -4.070  -3.755  0.00  0.00    -0.129 NA
ATOM     11  N   UNL     1       2.472  -3.014  -3.990  0.00  0.00    -0.121 NA
ATOM     12  C   UNL     1       2.180  -2.100  -3.115  0.00  0.00    +0.209 A 
ATOM     13  S   UNL     1       2.815  -0.458  -2.959  0.00  0.00    -0.079 S 
ATOM     14  H   UNL     1       1.131  -2.311  -0.329  0.00  0.00    +0.167 HD
ENDROOT
BRANCH   9  15
ATOM     15  C   UNL     1       0.028  -4.867  -2.131  0.00  0.00    +0.187 C 
ATOM     16  C   UNL     1       0.794  -5.962  -1.359  0.00  0.00    +0.042 C 
ATOM     17  C   UNL     1      -0.009  -7.242  -1.719  0.00  0.00    +0.031 C 
ATOM     18  C   UNL     1      -0.437  -6.921  -3.173  0.00  0.00    +0.161 C 
ATOM     19  O   UNL     1      -0.705  -5.508  -3.182  0.00  0.00    -0.369 OA
ENDBRANCH   9  15
TORSDOF 1
