REMARK  Name = ZINC08790133
REMARK  11 active torsions:
REMARK  status: ('A' for Active; 'I' for Inactive)
REMARK    1  A    between atoms: C_1  and  C_2
REMARK    2  A    between atoms: C_16  and  C_18
REMARK    3  A    between atoms: C_18  and  C_19
REMARK    4  A    between atoms: C_19  and  C_20
REMARK    5  A    between atoms: N_25  and  C_28
REMARK    6  A    between atoms: C_28  and  C_29
REMARK    7  A    between atoms: C_29  and  C_30
REMARK    8  A    between atoms: C_33  and  O_38
REMARK    9  A    between atoms: C_34  and  O_36
REMARK   10  A    between atoms: O_36  and  C_37
REMARK   11  A    between atoms: O_38  and  C_39
REMARK                            x       y       z     vdW  Elec       q    Type
REMARK                         _______ _______ _______ _____ _____    ______ ____
ROOT
ATOM      1  C   UNL     1       1.521   7.074 -10.186  0.00  0.00    +0.045 C 
ATOM      2  C   UNL     1       1.447   8.085  -9.071  0.00  0.00    -0.029 A 
ATOM      3  C   UNL     1       2.040   9.321  -9.223  0.00  0.00    +0.005 A 
ATOM      4  C   UNL     1       1.977  10.256  -8.206  0.00  0.00    +0.001 A 
ATOM      5  C   UNL     1       1.317   9.949  -7.029  0.00  0.00    +0.004 A 
ATOM      6  C   UNL     1       0.725   8.717  -6.872  0.00  0.00    -0.027 A 
ATOM      7  C   UNL     1       0.781   7.768  -7.890  0.00  0.00    +0.039 A 
ATOM      8  N   UNL     1       0.114   6.604  -7.502  0.00  0.00    -0.286 N 
ATOM      9  C   UNL     1      -0.402   6.703  -6.261  0.00  0.00    +0.211 C 
ATOM     10  O   UNL     1      -1.028   5.852  -5.667  0.00  0.00    -0.277 OA
ATOM     11  C   UNL     1      -0.050   8.075  -5.756  0.00  0.00    +0.050 C 
ATOM     12  C   UNL     1       0.778   8.004  -4.467  0.00  0.00    +0.088 C 
ATOM     13  C   UNL     1       0.304   9.225  -3.631  0.00  0.00    +0.073 C 
ATOM     14  C   UNL     1      -0.760   9.918  -4.508  0.00  0.00    -0.057 C 
ATOM     15  C   UNL     1      -0.374   8.590  -2.438  0.00  0.00    +0.224 C 
ATOM     16  O   UNL     1      -0.904   9.193  -1.530  0.00  0.00    -0.275 OA
ATOM     17  N   UNL     1      -0.296   7.258  -2.540  0.00  0.00    -0.241 N 
ATOM     18  C   UNL     1       0.329   6.821  -3.639  0.00  0.00    +0.225 C 
ATOM     19  O   UNL     1       0.507   5.657  -3.928  0.00  0.00    -0.275 OA
ATOM     20  H   UNL     1       0.031   5.816  -8.061  0.00  0.00    +0.155 HD
ATOM     21  N   UNL     1      -1.222   8.859  -5.407  0.00  0.00    +0.394 N 
ATOM     22  H   UNL     1      -1.915   8.268  -4.933  0.00  0.00    -0.083 HD
ATOM     23  H   UNL     1      -1.640   9.267  -6.251  0.00  0.00    -0.083 HD
ENDROOT
BRANCH  14  24
ATOM     24  C   UNL     1      -1.901  10.450  -3.639  0.00  0.00    -0.006 C 
BRANCH  24  25
ATOM     25  C   UNL     1      -2.920  11.174  -4.523  0.00  0.00    +0.094 C 
BRANCH  25  26
ATOM     26  C   UNL     1      -4.044  11.699  -3.667  0.00  0.00    +0.210 C 
ATOM     27  O   UNL     1      -4.032  11.512  -2.469  0.00  0.00    -0.276 OA
ATOM     28  N   UNL     1      -5.063  12.375  -4.234  0.00  0.00    -0.329 N 
ATOM     29  H   UNL     1      -5.072  12.524  -5.192  0.00  0.00    +0.145 HD
ATOM     30  H   UNL     1      -5.786  12.713  -3.683  0.00  0.00    +0.145 HD
ENDBRANCH  25  26
ENDBRANCH  24  25
ENDBRANCH  14  24
BRANCH  17  31
ATOM     31  C   UNL     1      -0.855   6.352  -1.533  0.00  0.00    +0.121 C 
BRANCH  31  32
ATOM     32  C   UNL     1       0.207   6.050  -0.474  0.00  0.00    +0.054 C 
BRANCH  32  33
ATOM     33  C   UNL     1      -0.368   5.119   0.562  0.00  0.00    -0.042 A 
ATOM     34  C   UNL     1      -1.003   5.634   1.677  0.00  0.00    +0.007 A 
ATOM     35  C   UNL     1      -1.532   4.784   2.629  0.00  0.00    +0.049 A 
ATOM     36  C   UNL     1      -1.432   3.411   2.465  0.00  0.00    +0.161 A 
ATOM     37  C   UNL     1      -0.787   2.893   1.346  0.00  0.00    +0.162 A 
ATOM     38  C   UNL     1      -0.259   3.751   0.395  0.00  0.00    +0.053 A 
BRANCH  37  39
ATOM     39  O   UNL     1      -0.682   1.547   1.184  0.00  0.00    -0.491 OA
ATOM     40  C   UNL     1      -0.013   1.086   0.008  0.00  0.00    +0.277 C 
ENDBRANCH  37  39
BRANCH  36  41
ATOM     41  O   UNL     1      -1.957   2.573   3.399  0.00  0.00    -0.491 OA
ATOM     42  C   UNL     1      -2.603   3.176   4.521  0.00  0.00    +0.277 C 
ENDBRANCH  36  41
ENDBRANCH  32  33
ENDBRANCH  31  32
ENDBRANCH  17  31
TORSDOF 8
