REMARK  Name = ZINC39664058
REMARK  11 active torsions:
REMARK  status: ('A' for Active; 'I' for Inactive)
REMARK    1  A    between atoms: C_1  and  C_2
REMARK    2  A    between atoms: C_2  and  C_3
REMARK    3  A    between atoms: C_3  and  C_5
REMARK    4  A    between atoms: C_3  and  C_6
REMARK    5  A    between atoms: C_10  and  C_19
REMARK    6  A    between atoms: N_21  and  C_22
REMARK    7  A    between atoms: C_22  and  C_23
REMARK    8  A    between atoms: C_23  and  C_25
REMARK    9  A    between atoms: C_23  and  N_33
REMARK   10  A    between atoms: C_28  and  O_31
REMARK   11  A    between atoms: O_31  and  C_32
REMARK                            x       y       z     vdW  Elec       q    Type
REMARK                         _______ _______ _______ _____ _____    ______ ____
ROOT
ATOM      1  C   UNL     1       2.431  -3.201   5.587  0.00  0.00    +0.218 C 
ATOM      2  O   UNL     1       3.570  -2.855   5.357  0.00  0.00    -0.275 OA
ATOM      3  N   UNL     1       2.075  -3.562   6.836  0.00  0.00    -0.316 N 
ATOM      4  H   UNL     1       1.163  -3.838   7.019  0.00  0.00    +0.149 HD
ENDROOT
BRANCH   1   9
ATOM      5  C   UNL     1       0.792  -2.165   1.070  0.00  0.00    +0.218 C 
ATOM      6  O   UNL     1       0.487  -2.832   0.104  0.00  0.00    -0.275 OA
ATOM      7  N   UNL     1       1.390  -2.747   2.129  0.00  0.00    -0.300 N 
ATOM      8  C   UNL     1       1.726  -2.130   3.434  0.00  0.00    +0.121 C 
ATOM      9  C   UNL     1       1.413  -3.228   4.476  0.00  0.00    +0.100 C 
ATOM     10  C   UNL     1       1.504  -4.549   3.694  0.00  0.00    -0.004 C 
ATOM     11  C   UNL     1       1.854  -4.149   2.253  0.00  0.00    +0.115 C 
ATOM     12  C   UNL     1       0.163  -5.274   3.723  0.00  0.00    -0.010 C 
ATOM     13  C   UNL     1       0.294  -6.611   2.988  0.00  0.00    -0.082 C 
ATOM     14  N   UNL     1       1.328  -7.427   3.635  0.00  0.00    +0.379 N 
ATOM     15  C   UNL     1       2.633  -6.765   3.521  0.00  0.00    -0.082 C 
ATOM     16  C   UNL     1       2.601  -5.434   4.279  0.00  0.00    -0.010 C 
ATOM     17  H   UNL     1       1.098  -7.548   4.610  0.00  0.00    -0.086 HD
ATOM     18  H   UNL     1       1.371  -8.330   3.188  0.00  0.00    -0.086 HD
BRANCH   5  19
ATOM     19  C   UNL     1       0.502  -0.687   1.087  0.00  0.00    +0.072 C 
ATOM     20  C   UNL     1      -0.878  -0.444   1.702  0.00  0.00    +0.017 C 
BRANCH  19  22
ATOM     21  C   UNL     1       0.353   1.374  -0.319  0.00  0.00    +0.004 C 
ATOM     22  C   UNL     1       0.523  -0.147  -0.345  0.00  0.00    +0.009 C 
ENDBRANCH  19  22
ENDBRANCH   5  19
ENDBRANCH   1   9
BRANCH   3  23
ATOM     23  C   UNL     1       3.064  -3.536   7.916  0.00  0.00    +0.093 C 
BRANCH  23  24
ATOM     24  C   UNL     1       2.444  -4.114   9.190  0.00  0.00    -0.020 C 
BRANCH  24  25
ATOM     25  C   UNL     1       2.133  -5.573   8.980  0.00  0.00    -0.059 A 
ATOM     26  C   UNL     1       3.139  -6.516   9.089  0.00  0.00    +0.005 A 
ATOM     27  C   UNL     1       2.857  -7.854   8.897  0.00  0.00    +0.046 A 
ATOM     28  C   UNL     1       1.563  -8.253   8.594  0.00  0.00    +0.120 A 
ATOM     29  C   UNL     1       0.556  -7.306   8.485  0.00  0.00    +0.046 A 
ATOM     30  C   UNL     1       0.842  -5.969   8.684  0.00  0.00    +0.005 A 
BRANCH  28  31
ATOM     31  O   UNL     1       1.283  -9.569   8.404  0.00  0.00    -0.495 OA
ATOM     32  C   UNL     1      -0.070  -9.906   8.095  0.00  0.00    +0.277 C 
ENDBRANCH  28  31
ENDBRANCH  24  25
BRANCH  24  33
ATOM     33  N   UNL     1       3.390  -3.970  10.304  0.00  0.00    +0.385 N 
ATOM     34  C   UNL     1       3.644  -2.532  10.578  0.00  0.00    -0.078 C 
ATOM     35  C   UNL     1       4.152  -2.534  12.041  0.00  0.00    -0.020 C 
ATOM     36  C   UNL     1       3.287  -3.630  12.706  0.00  0.00    -0.020 C 
ATOM     37  C   UNL     1       2.803  -4.519  11.546  0.00  0.00    -0.078 C 
ATOM     38  H   UNL     1       4.255  -4.442  10.090  0.00  0.00    -0.081 HD
ENDBRANCH  24  33
ENDBRANCH  23  24
ENDBRANCH   3  23
TORSDOF 8
