REMARK  Name = ZINC66241186
REMARK  5 active torsions:
REMARK  status: ('A' for Active; 'I' for Inactive)
REMARK    1  A    between atoms: C_5  and  C_7
REMARK    2  A    between atoms: C_13  and  C_15
REMARK    3  A    between atoms: C_18  and  N_21
REMARK    4  A    between atoms: C_22  and  N_28
REMARK    5  A    between atoms: C_23  and  C_26
REMARK                            x       y       z     vdW  Elec       q    Type
REMARK                         _______ _______ _______ _____ _____    ______ ____
ROOT
ATOM      1  C   UNL     1      -1.947  -2.989   1.988  0.00  0.00    +0.037 A 
ATOM      2  C   UNL     1      -2.310  -3.255   3.311  0.00  0.00    +0.015 A 
ATOM      3  C   UNL     1      -3.577  -3.711   3.597  0.00  0.00    +0.028 A 
ATOM      4  C   UNL     1      -4.496  -3.907   2.571  0.00  0.00    +0.067 A 
ATOM      5  C   UNL     1      -4.138  -3.643   1.253  0.00  0.00    +0.028 A 
ATOM      6  C   UNL     1      -2.874  -3.182   0.960  0.00  0.00    +0.015 A 
ENDROOT
BRANCH   1  12
ATOM      7  C   UNL     1       1.217  -2.162  -0.030  0.00  0.00    +0.108 C 
ATOM      8  C   UNL     1       1.417  -2.671  -1.473  0.00  0.00    +0.029 C 
ATOM      9  C   UNL     1       0.506  -3.926  -1.529  0.00  0.00    +0.021 C 
ATOM     10  C   UNL     1      -0.681  -3.489  -0.635  0.00  0.00    +0.109 C 
ATOM     11  N   UNL     1      -0.065  -2.698   0.451  0.00  0.00    -0.290 N 
ATOM     12  C   UNL     1      -0.589  -2.499   1.677  0.00  0.00    +0.247 C 
ATOM     13  O   UNL     1       0.056  -1.917   2.527  0.00  0.00    -0.270 OA
BRANCH   7  18
ATOM     14  C   UNL     1      -0.067   1.388   0.016  0.00  0.00    +0.000 A 
ATOM     15  C   UNL     1       1.113   2.109   0.004  0.00  0.00    +0.001 A 
ATOM     16  C   UNL     1       2.326   1.448  -0.019  0.00  0.00    +0.020 A 
ATOM     17  C   UNL     1       2.361   0.065  -0.030  0.00  0.00    +0.046 A 
ATOM     18  C   UNL     1       1.180  -0.656  -0.018  0.00  0.00    -0.009 A 
ATOM     19  C   UNL     1      -0.033   0.006   0.005  0.00  0.00    +0.007 A 
ATOM     20 CL   UNL     1       3.885  -0.765  -0.059  0.00  0.00    -0.083 Cl
ENDBRANCH   7  18
ENDBRANCH   1  12
BRANCH   4  21
ATOM     21  N   UNL     1      -5.781  -4.370   2.865  0.00  0.00    -0.218 N 
ATOM     22  C   UNL     1      -6.921  -4.017   2.217  0.00  0.00    +0.137 A 
ATOM     23  C   UNL     1      -7.966  -4.707   2.827  0.00  0.00    +0.111 A 
ATOM     24  C   UNL     1      -7.399  -5.484   3.864  0.00  0.00    +0.155 A 
ATOM     25  N   UNL     1      -6.112  -5.282   3.873  0.00  0.00    -0.172 NA
BRANCH  22  26
ATOM     26  N   UNL     1      -7.025  -3.140   1.155  0.00  0.00    -0.342 N 
ATOM     27  H   UNL     1      -6.231  -2.709   0.803  0.00  0.00    +0.144 HD
ATOM     28  H   UNL     1      -7.892  -2.955   0.762  0.00  0.00    +0.144 HD
ENDBRANCH  22  26
BRANCH  23  29
ATOM     29  C   UNL     1      -9.351  -4.641   2.472  0.00  0.00    +0.104 C 
ATOM     30  N   UNL     1     -10.451  -4.589   2.190  0.00  0.00    -0.191 NA
ENDBRANCH  23  29
ENDBRANCH   4  21
TORSDOF 5
