REMARK  Name = ZINC35578386
REMARK  5 active torsions:
REMARK  status: ('A' for Active; 'I' for Inactive)
REMARK    1  A    between atoms: C_4  and  C_7
REMARK    2  A    between atoms: C_7  and  C_8
REMARK    3  A    between atoms: C_16  and  C_31
REMARK    4  A    between atoms: C_18  and  N_30
REMARK    5  A    between atoms: N_19  and  C_23
REMARK                            x       y       z     vdW  Elec       q    Type
REMARK                         _______ _______ _______ _____ _____    ______ ____
ROOT
ATOM      1  C   UNL     1       3.690  -1.396   2.076  0.00  0.00    -0.004 C 
ATOM      2  C   UNL     1       4.053   0.019   2.531  0.00  0.00    +0.023 C 
ATOM      3  C   UNL     1       4.727  -0.047   3.906  0.00  0.00    +0.108 C 
ATOM      4  N   UNL     1       5.869  -0.968   3.828  0.00  0.00    -0.300 N 
ATOM      5  C   UNL     1       5.648  -2.328   3.318  0.00  0.00    +0.108 C 
ATOM      6  C   UNL     1       4.964  -2.235   1.950  0.00  0.00    +0.023 C 
ATOM      7  C   UNL     1       7.130  -0.562   4.228  0.00  0.00    +0.220 A 
ATOM      8  N   UNL     1       8.130  -1.433   4.132  0.00  0.00    -0.213 NA
ATOM      9  C   UNL     1       9.370  -1.126   4.493  0.00  0.00    +0.091 A 
ATOM     10  C   UNL     1       9.620   0.172   4.993  0.00  0.00    +0.086 A 
ATOM     11  C   UNL     1      10.732   0.861   5.461  0.00  0.00    +0.131 A 
ATOM     12  N   UNL     1      10.326   2.099   5.806  0.00  0.00    -0.216 N 
ATOM     13  N   UNL     1       8.953   2.233   5.570  0.00  0.00    -0.144 NA
ATOM     14  C   UNL     1       8.482   1.106   5.083  0.00  0.00    +0.189 A 
ATOM     15  N   UNL     1       7.275   0.667   4.678  0.00  0.00    -0.193 NA
ENDROOT
BRANCH   9  16
ATOM     16  C   UNL     1      10.462  -2.117   4.375  0.00  0.00    +0.039 A 
ATOM     17  C   UNL     1      11.205  -2.479   5.500  0.00  0.00    +0.013 A 
ATOM     18  C   UNL     1      12.222  -3.404   5.385  0.00  0.00    +0.004 A 
ATOM     19  C   UNL     1      12.508  -3.975   4.157  0.00  0.00    +0.041 A 
ATOM     20  C   UNL     1      11.778  -3.622   3.035  0.00  0.00    +0.159 A 
ATOM     21  C   UNL     1      10.751  -2.699   3.138  0.00  0.00    +0.168 A 
ATOM     22  F   UNL     1      10.033  -2.359   2.045  0.00  0.00    -0.202 F 
ATOM     23  F   UNL     1      12.064  -4.184   1.840  0.00  0.00    -0.202 F 
ENDBRANCH   9  16
BRANCH  12  24
ATOM     24  C   UNL     1      11.154   3.102   6.324  0.00  0.00    +0.070 A 
ATOM     25  C   UNL     1      12.209   2.768   7.164  0.00  0.00    +0.028 A 
ATOM     26  C   UNL     1      13.025   3.758   7.674  0.00  0.00    +0.005 A 
ATOM     27  C   UNL     1      12.794   5.083   7.349  0.00  0.00    +0.038 A 
ATOM     28  C   UNL     1      11.744   5.420   6.512  0.00  0.00    +0.125 A 
ATOM     29  C   UNL     1      10.927   4.431   5.994  0.00  0.00    +0.066 A 
ATOM     30  F   UNL     1      11.520   6.715   6.197  0.00  0.00    -0.205 F 
ENDBRANCH  12  24
BRANCH  11  31
ATOM     31  N   UNL     1      12.020   0.368   5.554  0.00  0.00    -0.342 N 
ATOM     32  H   UNL     1      12.210  -0.545   5.288  0.00  0.00    +0.144 HD
ATOM     33  H   UNL     1      12.733   0.934   5.887  0.00  0.00    +0.144 HD
ENDBRANCH  11  31
BRANCH   1  34
ATOM     34  C   UNL     1       2.986  -1.330   0.720  0.00  0.00    +0.038 C 
BRANCH  34  38
ATOM     35  C   UNL     1      -0.740   0.715   1.144  0.00  0.00    +0.000 A 
ATOM     36  C   UNL     1       0.408   1.425   0.844  0.00  0.00    +0.000 A 
ATOM     37  C   UNL     1       1.614   0.763   0.707  0.00  0.00    +0.003 A 
ATOM     38  C   UNL     1       1.672  -0.609   0.870  0.00  0.00    -0.047 A 
ATOM     39  C   UNL     1       0.524  -1.318   1.171  0.00  0.00    +0.003 A 
ATOM     40  C   UNL     1      -0.682  -0.657   1.307  0.00  0.00    +0.000 A 
ENDBRANCH  34  38
ENDBRANCH   1  34
TORSDOF 5
