REMARK  Name = ZINC40367685
REMARK  7 active torsions:
REMARK  status: ('A' for Active; 'I' for Inactive)
REMARK    1  A    between atoms: C_4  and  C_7
REMARK    2  A    between atoms: C_7  and  C_8
REMARK    3  A    between atoms: C_8  and  C_10
REMARK    4  A    between atoms: C_8  and  N_25
REMARK    5  A    between atoms: C_16  and  C_18
REMARK    6  A    between atoms: N_28  and  C_29
REMARK    7  A    between atoms: C_32  and  N_35
REMARK                            x       y       z     vdW  Elec       q    Type
REMARK                         _______ _______ _______ _____ _____    ______ ____
ROOT
ATOM      1  C   UNL     1       4.172  -0.965   1.402  0.00  0.00    +0.165 C 
ENDROOT
BRANCH   1   2
ATOM      2  C   UNL     1       5.420  -1.811   1.395  0.00  0.00    +0.239 C 
ATOM      3  O   UNL     1       6.442  -1.388   1.893  0.00  0.00    -0.273 OA
ATOM      4  N   UNL     1       5.399  -3.037   0.836  0.00  0.00    -0.262 N 
ATOM      5  C   UNL     1       6.550  -3.817   0.829  0.00  0.00    +0.188 A 
ATOM      6  N   UNL     1       7.757  -3.559   1.315  0.00  0.00    -0.125 NA
ATOM      7  N   UNL     1       8.704  -4.388   1.224  0.00  0.00    -0.140 NA
ATOM      8  C   UNL     1       8.547  -5.568   0.636  0.00  0.00    +0.134 A 
ATOM      9  S   UNL     1       6.822  -5.459   0.170  0.00  0.00    -0.030 S 
ATOM     10  H   UNL     1       4.582  -3.375   0.438  0.00  0.00    +0.157 HD
BRANCH   8  11
ATOM     11  C   UNL     1       9.520  -6.662   0.431  0.00  0.00    +0.009 A 
ATOM     12  C   UNL     1       9.131  -7.830  -0.228  0.00  0.00    +0.013 A 
ATOM     13  C   UNL     1      10.042  -8.848  -0.417  0.00  0.00    +0.039 A 
ATOM     14  C   UNL     1      11.341  -8.714   0.047  0.00  0.00    +0.123 A 
ATOM     15  C   UNL     1      11.732  -7.557   0.702  0.00  0.00    +0.039 A 
ATOM     16  C   UNL     1      10.831  -6.530   0.891  0.00  0.00    +0.013 A 
ATOM     17  F   UNL     1      12.229  -9.714  -0.140  0.00  0.00    -0.205 F 
ENDBRANCH   8  11
ENDBRANCH   1   2
BRANCH   1  18
ATOM     18  N   UNL     1       4.452   0.312   2.062  0.00  0.00    -0.288 N 
ATOM     19  C   UNL     1       3.451   1.008   2.637  0.00  0.00    +0.304 C 
ATOM     20  O   UNL     1       2.315   0.575   2.607  0.00  0.00    -0.252 OA
ATOM     21  N   UNL     1       3.708   2.183   3.244  0.00  0.00    -0.269 N 
ATOM     22  H   UNL     1       5.359   0.658   2.086  0.00  0.00    +0.151 HD
ATOM     23  H   UNL     1       4.623   2.496   3.327  0.00  0.00    +0.156 HD
BRANCH  21  24
ATOM     24  C   UNL     1       2.656   2.952   3.755  0.00  0.00    +0.035 A 
ATOM     25  C   UNL     1       2.718   4.338   3.702  0.00  0.00    +0.025 A 
ATOM     26  C   UNL     1       1.678   5.094   4.207  0.00  0.00    +0.034 A 
ATOM     27  C   UNL     1       0.577   4.472   4.765  0.00  0.00    +0.126 A 
ATOM     28  C   UNL     1       0.512   3.092   4.820  0.00  0.00    +0.034 A 
ATOM     29  C   UNL     1       1.546   2.330   4.311  0.00  0.00    +0.025 A 
BRANCH  27  30
ATOM     30  N   UNL     1      -0.536   5.285   5.305  0.00  0.00    +0.056 N 
ATOM     31  O   UNL     1      -0.481   6.492   5.258  0.00  0.00    -0.126 OA
ATOM     32  O   UNL     1      -1.500   4.742   5.793  0.00  0.00    -0.126 OA
ENDBRANCH  27  30
ENDBRANCH  21  24
ENDBRANCH   1  18
BRANCH   1  33
ATOM     33  C   UNL     1       3.723  -0.708  -0.037  0.00  0.00    +0.067 C 
BRANCH  33  37
ATOM     34  C   UNL     1       0.002   1.391  -0.015  0.00  0.00    +0.000 A 
ATOM     35  C   UNL     1       1.192   2.094  -0.015  0.00  0.00    +0.000 A 
ATOM     36  C   UNL     1       2.396   1.415  -0.022  0.00  0.00    +0.004 A 
ATOM     37  C   UNL     1       2.410   0.033  -0.029  0.00  0.00    -0.045 A 
ATOM     38  C   UNL     1       1.220  -0.670  -0.028  0.00  0.00    +0.004 A 
ATOM     39  C   UNL     1       0.016   0.009  -0.022  0.00  0.00    +0.000 A 
ENDBRANCH  33  37
ENDBRANCH   1  33
TORSDOF 7
