REMARK  Name = ZINC59942071
REMARK  11 active torsions:
REMARK  status: ('A' for Active; 'I' for Inactive)
REMARK    1  A    between atoms: C_1  and  C_2
REMARK    2  A    between atoms: C_2  and  O_3
REMARK    3  A    between atoms: O_3  and  C_4
REMARK    4  A    between atoms: C_4  and  C_6
REMARK    5  A    between atoms: C_10  and  N_11
REMARK    6  A    between atoms: C_12  and  C_14
REMARK    7  A    between atoms: C_14  and  S_15
REMARK    8  A    between atoms: S_15  and  C_16
REMARK    9  A    between atoms: C_21  and  N_30
REMARK   10  A    between atoms: N_22  and  C_23
REMARK   11  A    between atoms: C_27  and  C_29
REMARK                            x       y       z     vdW  Elec       q    Type
REMARK                         _______ _______ _______ _____ _____    ______ ____
ROOT
ATOM      1  N   UNL     1      -4.027  -0.024   3.116  0.00  0.00    -0.279 N 
ATOM      2  C   UNL     1      -4.628  -0.795   4.043  0.00  0.00    +0.228 C 
ATOM      3  O   UNL     1      -5.744  -1.227   3.842  0.00  0.00    -0.275 OA
ATOM      4  H   UNL     1      -3.135   0.321   3.277  0.00  0.00    +0.155 HD
ENDROOT
BRANCH   1   9
ATOM      5  C   UNL     1      -4.225   1.045   0.876  0.00  0.00    +0.091 A 
ATOM      6  C   UNL     1      -5.112   1.207  -0.268  0.00  0.00    -0.021 A 
ATOM      7  C   UNL     1      -6.297   0.577  -0.135  0.00  0.00    -0.004 A 
ATOM      8  S   UNL     1      -6.217  -0.207   1.451  0.00  0.00    -0.077 S 
ATOM      9  C   UNL     1      -4.683   0.276   1.933  0.00  0.00    +0.086 A 
ATOM     10  C   UNL     1      -7.436   0.554  -1.106  0.00  0.00    +0.043 C 
ATOM     11  C   UNL     1      -6.900   0.210  -2.502  0.00  0.00    +0.005 C 
ATOM     12  C   UNL     1      -6.511   1.506  -3.207  0.00  0.00    +0.001 C 
ATOM     13  C   UNL     1      -5.994   2.524  -2.193  0.00  0.00    +0.005 C 
ATOM     14  C   UNL     1      -4.734   2.002  -1.509  0.00  0.00    +0.037 C 
BRANCH   5  15
ATOM     15  C   UNL     1      -2.899   1.666   0.905  0.00  0.00    +0.342 C 
ATOM     16  O   UNL     1      -1.936   1.064   0.470  0.00  0.00    -0.245 OA
BRANCH  15  17
ATOM     17  O   UNL     1      -2.747   2.906   1.413  0.00  0.00    -0.461 OA
BRANCH  17  19
ATOM     18  C   UNL     1      -1.450   4.853   2.021  0.00  0.00    +0.048 C 
ATOM     19  C   UNL     1      -1.425   3.450   1.410  0.00  0.00    +0.229 C 
ENDBRANCH  17  19
ENDBRANCH  15  17
ENDBRANCH   5  15
ENDBRANCH   1   9
BRANCH   2  20
ATOM     20  C   UNL     1      -3.915  -1.122   5.330  0.00  0.00    +0.173 C 
BRANCH  20  21
ATOM     21  S   UNL     1      -4.978  -2.168   6.362  0.00  0.00    -0.078 S 
BRANCH  21  22
ATOM     22  C   UNL     1      -4.015  -2.458   7.809  0.00  0.00    +0.179 A 
ATOM     23  N   UNL     1      -2.815  -1.925   7.905  0.00  0.00    -0.185 NA
ATOM     24  C   UNL     1      -2.055  -2.126   8.993  0.00  0.00    +0.276 A 
ATOM     25  O   UNL     1      -0.943  -1.623   9.066  0.00  0.00    -0.266 OA
ATOM     26  C   UNL     1      -2.544  -2.918  10.051  0.00  0.00    +0.114 A 
ATOM     27  C   UNL     1      -3.789  -3.467   9.944  0.00  0.00    +0.108 A 
ATOM     28  N   UNL     1      -4.528  -3.227   8.813  0.00  0.00    -0.277 N 
BRANCH  28  29
ATOM     29  C   UNL     1      -5.810  -3.776   8.687  0.00  0.00    +0.050 A 
ATOM     30  C   UNL     1      -5.976  -5.033   8.120  0.00  0.00    +0.026 A 
ATOM     31  C   UNL     1      -7.241  -5.573   7.997  0.00  0.00    +0.002 A 
ATOM     32  C   UNL     1      -8.343  -4.862   8.438  0.00  0.00    +0.003 A 
ATOM     33  C   UNL     1      -8.181  -3.611   9.003  0.00  0.00    -0.048 A 
ATOM     34  C   UNL     1      -6.918  -3.068   9.133  0.00  0.00    +0.029 A 
ATOM     35  C   UNL     1      -9.385  -2.840   9.482  0.00  0.00    +0.044 C 
ENDBRANCH  28  29
BRANCH  27  36
ATOM     36  N   UNL     1      -4.297  -4.246  10.958  0.00  0.00    -0.344 N 
ATOM     37  H   UNL     1      -3.741  -4.476  11.719  0.00  0.00    +0.144 HD
ATOM     38  H   UNL     1      -5.212  -4.565  10.912  0.00  0.00    +0.144 HD
ENDBRANCH  27  36
ENDBRANCH  21  22
ENDBRANCH  20  21
ENDBRANCH   2  20
TORSDOF 9
