REMARK  Name = ZINC08962316
REMARK  6 active torsions:
REMARK  status: ('A' for Active; 'I' for Inactive)
REMARK    1  A    between atoms: C_1  and  C_2
REMARK    2  A    between atoms: C_7  and  S_8
REMARK    3  A    between atoms: S_8  and  N_11
REMARK    4  A    between atoms: N_11  and  C_12
REMARK    5  A    between atoms: C_21  and  C_24
REMARK    6  A    between atoms: C_21  and  C_25
REMARK                            x       y       z     vdW  Elec       q    Type
REMARK                         _______ _______ _______ _____ _____    ______ ____
ROOT
ATOM      1  C   UNL     1      -2.053   5.873   0.584  0.00  0.00    +0.049 A 
ATOM      2  C   UNL     1      -1.188   6.066  -0.487  0.00  0.00    +0.028 A 
ATOM      3  C   UNL     1      -0.704   4.986  -1.200  0.00  0.00    +0.048 A 
ATOM      4  C   UNL     1      -1.080   3.700  -0.848  0.00  0.00    +0.133 A 
ATOM      5  C   UNL     1      -1.957   3.500   0.229  0.00  0.00    +0.080 A 
ATOM      6  C   UNL     1      -2.440   4.593   0.946  0.00  0.00    +0.041 A 
ATOM      7  C   UNL     1      -2.353   2.122   0.577  0.00  0.00    +0.248 C 
ATOM      8  O   UNL     1      -3.522   1.842   0.759  0.00  0.00    -0.270 OA
ATOM      9  N   UNL     1      -1.392   1.175   0.692  0.00  0.00    -0.303 N 
ATOM     10  C   UNL     1       0.016   1.555   0.566  0.00  0.00    +0.063 C 
ATOM     11  C   UNL     1       0.374   1.827  -0.889  0.00  0.00    +0.254 C 
ATOM     12  O   UNL     1      -0.612   2.625  -1.531  0.00  0.00    -0.489 OA
ATOM     13  C   UNL     1       0.273   2.818   1.392  0.00  0.00    +0.035 C 
ATOM     14  C   UNL     1       0.894   0.421   1.098  0.00  0.00    +0.035 C 
ATOM     15  H   UNL     1      -1.635   0.250   0.854  0.00  0.00    +0.150 HD
ENDROOT
BRANCH   1  16
ATOM     16  N   UNL     1      -2.535   6.976   1.299  0.00  0.00    -0.216 N 
ATOM     17  H   UNL     1      -3.477   7.035   1.524  0.00  0.00    +0.174 HD
BRANCH  16  18
ATOM     18  S   UNL     1      -1.496   8.180   1.763  0.00  0.00    +0.073 S 
ATOM     19  O   UNL     1      -0.799   8.587   0.594  0.00  0.00    -0.150 OA
ATOM     20  O   UNL     1      -2.253   9.087   2.553  0.00  0.00    -0.150 OA
BRANCH  18  27
ATOM     21  C   UNL     1      -2.151   6.935   4.440  0.00  0.00    +0.046 C 
ATOM     22  C   UNL     1      -0.698   6.908   4.042  0.00  0.00    -0.021 A 
ATOM     23  C   UNL     1       0.238   6.334   4.881  0.00  0.00    +0.043 A 
ATOM     24  C   UNL     1       1.573   6.314   4.518  0.00  0.00    +0.124 A 
ATOM     25  C   UNL     1       1.970   6.866   3.311  0.00  0.00    +0.040 A 
ATOM     26  C   UNL     1       1.032   7.435   2.471  0.00  0.00    +0.032 A 
ATOM     27  C   UNL     1      -0.302   7.454   2.835  0.00  0.00    +0.112 A 
ATOM     28  F   UNL     1       2.490   5.757   5.340  0.00  0.00    -0.205 F 
ENDBRANCH  18  27
ENDBRANCH  16  18
ENDBRANCH   1  16
TORSDOF 3
