REMARK  Name = ZINC04455880
REMARK  8 active torsions:
REMARK  status: ('A' for Active; 'I' for Inactive)
REMARK    1  A    between atoms: C_4  and  O_25
REMARK    2  A    between atoms: C_5  and  C_7
REMARK    3  A    between atoms: N_8  and  C_9
REMARK    4  A    between atoms: C_9  and  C_10
REMARK    5  A    between atoms: C_10  and  N_11
REMARK    6  A    between atoms: N_11  and  C_12
REMARK    7  A    between atoms: C_15  and  C_21
REMARK    8  A    between atoms: C_17  and  N_18
REMARK                            x       y       z     vdW  Elec       q    Type
REMARK                         _______ _______ _______ _____ _____    ______ ____
ROOT
ATOM      1  N   UNL     1      -6.735  -0.030   1.561  0.00  0.00    -0.340 N 
ATOM      2  H   UNL     1      -7.021  -0.667   0.710  0.00  0.00    +0.146 HD
ENDROOT
BRANCH   1   3
ATOM      3  C   UNL     1      -7.671   0.273   2.552  0.00  0.00    +0.058 A 
ATOM      4  C   UNL     1      -7.282   0.973   3.687  0.00  0.00    +0.026 A 
ATOM      5  C   UNL     1      -8.210   1.271   4.665  0.00  0.00    +0.014 A 
ATOM      6  C   UNL     1      -9.526   0.874   4.516  0.00  0.00    +0.057 A 
ATOM      7  C   UNL     1      -9.917   0.176   3.387  0.00  0.00    +0.047 A 
ATOM      8  C   UNL     1      -8.995  -0.120   2.403  0.00  0.00    +0.147 A 
BRANCH   6   9
ATOM      9  C   UNL     1     -10.536   1.201   5.585  0.00  0.00    +0.417 C 
ATOM     10  F   UNL     1      -9.909   1.905   6.619  0.00  0.00    -0.166 F 
ATOM     11  F   UNL     1     -11.556   1.986   5.038  0.00  0.00    -0.166 F 
ATOM     12  F   UNL     1     -11.080   0.016   6.091  0.00  0.00    -0.166 F 
ENDBRANCH   6   9
BRANCH   8  13
ATOM     13  N   UNL     1      -9.416  -0.861   1.192  0.00  0.00    +0.058 N 
ATOM     14  O   UNL     1      -8.940  -0.577   0.108  0.00  0.00    -0.126 OA
ATOM     15  O   UNL     1     -10.239  -1.755   1.281  0.00  0.00    -0.126 OA
ENDBRANCH   8  13
ENDBRANCH   1   3
BRANCH   1  16
ATOM     16  C   UNL     1      -5.372   0.499   1.654  0.00  0.00    +0.122 C 
BRANCH  16  17
ATOM     17  C   UNL     1      -4.556   0.021   0.451  0.00  0.00    +0.131 C 
BRANCH  17  19
ATOM     18  C   UNL     1      -2.194  -0.258   0.701  0.00  0.00    +0.089 C 
ATOM     19  N   UNL     1      -3.193   0.550   0.544  0.00  0.00    -0.388 N 
ATOM     20  H   UNL     1      -3.019   1.634   0.481  0.00  0.00    +0.159 HD
BRANCH  18  25
ATOM     21  C   UNL     1       1.538  -0.091   1.044  0.00  0.00    +0.001 A 
ATOM     22  C   UNL     1       1.758   1.274   0.964  0.00  0.00    +0.004 A 
ATOM     23  C   UNL     1       0.698   2.145   0.803  0.00  0.00    +0.046 A 
ATOM     24  C   UNL     1      -0.597   1.655   0.720  0.00  0.00    +0.125 A 
ATOM     25  C   UNL     1      -0.823   0.274   0.795  0.00  0.00    +0.032 A 
ATOM     26  C   UNL     1       0.258  -0.595   0.964  0.00  0.00    +0.013 A 
BRANCH  24  27
ATOM     27  O   UNL     1      -1.640   2.509   0.562  0.00  0.00    -0.506 OA
ATOM     28  H   UNL     1      -2.666   2.119   0.497  0.00  0.00    +0.292 HD
ENDBRANCH  24  27
ENDBRANCH  18  25
ENDBRANCH  17  19
ENDBRANCH  16  17
ENDBRANCH   1  16
TORSDOF 8
