REMARK  Name = ZINC20868229
REMARK  9 active torsions:
REMARK  status: ('A' for Active; 'I' for Inactive)
REMARK    1  A    between atoms: C_1  and  C_2
REMARK    2  A    between atoms: C_4  and  C_34
REMARK    3  A    between atoms: C_5  and  C_9
REMARK    4  A    between atoms: C_6  and  O_8
REMARK    5  A    between atoms: N_17  and  C_28
REMARK    6  A    between atoms: C_18  and  C_20
REMARK    7  A    between atoms: C_23  and  S_26
REMARK    8  A    between atoms: S_26  and  C_27
REMARK    9  A    between atoms: C_28  and  C_29
REMARK                            x       y       z     vdW  Elec       q    Type
REMARK                         _______ _______ _______ _____ _____    ______ ____
ROOT
ATOM      1  C   UNL     1       0.196  -4.485  -0.142  0.00  0.00    +0.102 A 
ATOM      2  C   UNL     1       0.235  -5.230   1.042  0.00  0.00    +0.035 A 
ATOM      3  C   UNL     1       0.185  -6.555   0.654  0.00  0.00    +0.126 A 
ATOM      4  N   UNL     1       0.120  -6.549  -0.711  0.00  0.00    -0.272 N 
ATOM      5  H   UNL     1       0.074  -7.341  -1.270  0.00  0.00    +0.189 HD
ATOM      6  N   UNL     1       0.122  -5.339  -1.144  0.00  0.00    -0.173 NA
ATOM      7  C   UNL     1       0.222  -7.395   1.856  0.00  0.00    +0.266 C 
ATOM      8  O   UNL     1       0.193  -8.611   1.855  0.00  0.00    -0.268 OA
ATOM      9  N   UNL     1       0.292  -6.629   2.960  0.00  0.00    -0.278 N 
ATOM     10  C   UNL     1       0.306  -5.221   2.544  0.00  0.00    +0.142 C 
ENDROOT
BRANCH   1  15
ATOM     11  C   UNL     1       0.315   1.262  -0.565  0.00  0.00    +0.044 C 
ATOM     12  C   UNL     1       0.282  -0.241  -0.452  0.00  0.00    -0.047 A 
ATOM     13  C   UNL     1       1.147  -1.008  -1.212  0.00  0.00    +0.007 A 
ATOM     14  C   UNL     1       1.123  -2.385  -1.115  0.00  0.00    -0.037 A 
ATOM     15  C   UNL     1       0.226  -3.005  -0.249  0.00  0.00    +0.047 A 
ATOM     16  C   UNL     1      -0.647  -2.228   0.517  0.00  0.00    +0.127 A 
ATOM     17  C   UNL     1      -0.609  -0.846   0.414  0.00  0.00    +0.049 A 
ATOM     18  C   UNL     1       2.067  -3.216  -1.945  0.00  0.00    +0.044 C 
BRANCH  16  19
ATOM     19  O   UNL     1      -1.526  -2.824   1.364  0.00  0.00    -0.506 OA
ATOM     20  H   UNL     1      -1.212  -2.887   2.276  0.00  0.00    +0.292 HD
ENDBRANCH  16  19
ENDBRANCH   1  15
BRANCH  10  21
ATOM     21  C   UNL     1       1.581  -4.558   2.998  0.00  0.00    -0.022 A 
ATOM     22  C   UNL     1       2.798  -5.176   2.774  0.00  0.00    +0.007 A 
ATOM     23  C   UNL     1       3.968  -4.572   3.190  0.00  0.00    +0.015 A 
ATOM     24  C   UNL     1       3.922  -3.341   3.833  0.00  0.00    +0.008 A 
ATOM     25  C   UNL     1       2.697  -2.723   4.056  0.00  0.00    +0.015 A 
ATOM     26  C   UNL     1       1.532  -3.330   3.634  0.00  0.00    +0.007 A 
BRANCH  24  27
ATOM     27  S   UNL     1       5.412  -2.566   4.366  0.00  0.00    -0.129 S 
ATOM     28  C   UNL     1       4.854  -1.020   5.132  0.00  0.00    +0.090 C 
ENDBRANCH  24  27
ENDBRANCH  10  21
BRANCH   9  29
ATOM     29  C   UNL     1       0.344  -7.117   4.341  0.00  0.00    +0.183 C 
BRANCH  29  30
ATOM     30  C   UNL     1       1.781  -7.318   4.748  0.00  0.00    +0.122 A 
ATOM     31  C   UNL     1       2.571  -6.396   5.327  0.00  0.00    +0.046 A 
ATOM     32  C   UNL     1       3.829  -7.007   5.535  0.00  0.00    +0.041 A 
ATOM     33  C   UNL     1       3.733  -8.266   5.069  0.00  0.00    +0.195 A 
ATOM     34  O   UNL     1       2.488  -8.450   4.600  0.00  0.00    -0.466 OA
ENDBRANCH  29  30
ENDBRANCH   9  29
TORSDOF 6
