REMARK  Name = ZINC24088055
REMARK  10 active torsions:
REMARK  status: ('A' for Active; 'I' for Inactive)
REMARK    1  A    between atoms: C_1  and  C_2
REMARK    2  A    between atoms: C_6  and  C_30
REMARK    3  A    between atoms: C_7  and  O_8
REMARK    4  A    between atoms: O_8  and  C_9
REMARK    5  A    between atoms: C_9  and  C_10
REMARK    6  A    between atoms: C_10  and  C_12
REMARK    7  A    between atoms: C_10  and  O_29
REMARK    8  A    between atoms: C_12  and  N_13
REMARK    9  A    between atoms: C_16  and  C_20
REMARK   10  A    between atoms: C_16  and  C_21
REMARK                            x       y       z     vdW  Elec       q    Type
REMARK                         _______ _______ _______ _____ _____    ______ ____
ROOT
ATOM      1  N   UNL     1      -2.201   2.278   6.025  0.00  0.00    -0.221 N 
ATOM      2  C   UNL     1      -2.125   1.786   7.277  0.00  0.00    +0.251 C 
ATOM      3  O   UNL     1      -2.208   0.624   7.614  0.00  0.00    -0.272 OA
ATOM      4  C   UNL     1      -1.915   2.987   8.177  0.00  0.00    +0.136 C 
ATOM      5  N   UNL     1      -1.895   4.123   7.240  0.00  0.00    -0.281 N 
ATOM      6  C   UNL     1      -2.064   3.609   6.008  0.00  0.00    +0.310 C 
ATOM      7  O   UNL     1      -2.092   4.278   4.994  0.00  0.00    -0.252 OA
ATOM      8  C   UNL     1      -0.582   2.877   8.919  0.00  0.00    +0.047 C 
ATOM      9  H   UNL     1      -1.779   5.059   7.466  0.00  0.00    +0.152 HD
ENDROOT
BRANCH   4  10
ATOM     10  C   UNL     1      -3.056   3.125   9.152  0.00  0.00    +0.003 A 
ATOM     11  C   UNL     1      -3.832   4.270   9.151  0.00  0.00    +0.009 A 
ATOM     12  C   UNL     1      -4.878   4.397  10.045  0.00  0.00    +0.020 A 
ATOM     13  C   UNL     1      -5.150   3.378  10.941  0.00  0.00    +0.042 A 
ATOM     14  C   UNL     1      -4.375   2.233  10.943  0.00  0.00    +0.040 A 
ATOM     15  C   UNL     1      -3.331   2.104  10.044  0.00  0.00    +0.048 A 
ATOM     16 CL   UNL     1      -2.361   0.664  10.041  0.00  0.00    -0.083 Cl
ATOM     17 CL   UNL     1      -6.464   3.539  12.064  0.00  0.00    -0.083 Cl
ENDBRANCH   4  10
BRANCH   1  18
ATOM     18  C   UNL     1      -2.401   1.456   4.828  0.00  0.00    +0.152 C 
BRANCH  18  19
ATOM     19  C   UNL     1      -1.043   1.022   4.274  0.00  0.00    +0.170 C 
BRANCH  19  20
ATOM     20  O   UNL     1      -0.396   0.166   5.217  0.00  0.00    -0.387 OA
ATOM     21  H   UNL     1      -0.891  -0.639   5.421  0.00  0.00    +0.210 HD
ENDBRANCH  19  20
BRANCH  19  22
ATOM     22  C   UNL     1      -1.246   0.270   2.957  0.00  0.00    +0.262 C 
BRANCH  22  23
ATOM     23  O   UNL     1       0.025  -0.033   2.381  0.00  0.00    -0.489 OA
BRANCH  23  30
ATOM     24  C   UNL     1      -0.018   1.503   0.010  0.00  0.00    +0.047 C 
ATOM     25  C   UNL     1       0.002  -0.004   0.002  0.00  0.00    -0.009 A 
ATOM     26  C   UNL     1       0.006  -0.689  -1.198  0.00  0.00    +0.007 A 
ATOM     27  C   UNL     1       0.024  -2.071  -1.206  0.00  0.00    +0.001 A 
ATOM     28  C   UNL     1       0.040  -2.772  -0.014  0.00  0.00    +0.007 A 
ATOM     29  C   UNL     1       0.036  -2.092   1.188  0.00  0.00    -0.009 A 
ATOM     30  C   UNL     1       0.023  -0.705   1.199  0.00  0.00    +0.126 A 
ATOM     31  C   UNL     1       0.052  -2.856   2.487  0.00  0.00    +0.047 C 
ENDBRANCH  23  30
ENDBRANCH  22  23
ENDBRANCH  19  22
ENDBRANCH  18  19
ENDBRANCH   1  18
TORSDOF 7
