REMARK  Name = ZINC14744381
REMARK  11 active torsions:
REMARK  status: ('A' for Active; 'I' for Inactive)
REMARK    1  A    between atoms: C_1  and  C_2
REMARK    2  A    between atoms: C_2  and  C_3
REMARK    3  A    between atoms: C_2  and  C_4
REMARK    4  A    between atoms: C_2  and  C_28
REMARK    5  A    between atoms: C_4  and  N_66
REMARK    6  A    between atoms: C_5  and  N_66
REMARK    7  A    between atoms: C_11  and  C_15
REMARK    8  A    between atoms: N_13  and  C_14
REMARK    9  A    between atoms: C_28  and  N_69
REMARK   10  A    between atoms: C_29  and  N_69
REMARK   11  A    between atoms: C_30  and  N_69
REMARK                            x       y       z     vdW  Elec       q    Type
REMARK                         _______ _______ _______ _____ _____    ______ ____
ROOT
ATOM      1  C   UNL     1      -1.031   2.679  -0.437  0.00  0.00    -0.067 C 
ATOM      2  C   UNL     1      -1.591   4.101  -0.524  0.00  0.00    -0.009 C 
ATOM      3  C   UNL     1      -2.538   4.356   0.656  0.00  0.00    +0.054 C 
ATOM      4  C   UNL     1      -1.833   3.951   1.925  0.00  0.00    +0.043 A 
ATOM      5  C   UNL     1      -0.729   3.163   1.959  0.00  0.00    +0.004 A 
ATOM      6  C   UNL     1      -0.389   3.031   3.316  0.00  0.00    +0.151 A 
ATOM      7  N   UNL     1      -1.283   3.725   3.999  0.00  0.00    -0.166 NA
ATOM      8  N   UNL     1      -2.135   4.266   3.196  0.00  0.00    -0.270 N 
ATOM      9  C   UNL     1      -3.264   5.104   3.607  0.00  0.00    +0.172 C 
ATOM     10  C   UNL     1      -0.058   2.582   0.746  0.00  0.00    +0.023 C 
ENDROOT
BRANCH   6  11
ATOM     11  C   UNL     1       0.746   2.266   3.871  0.00  0.00    +0.267 C 
ATOM     12  O   UNL     1       1.557   1.755   3.124  0.00  0.00    -0.268 OA
ATOM     13  N   UNL     1       0.881   2.134   5.205  0.00  0.00    -0.292 N 
ATOM     14  C   UNL     1       2.057   1.470   5.794  0.00  0.00    +0.113 C 
ATOM     15  C   UNL     1       2.824   2.510   6.609  0.00  0.00    +0.054 C 
ATOM     16  C   UNL     1       1.891   3.291   7.497  0.00  0.00    -0.041 A 
ATOM     17  C   UNL     1       2.445   3.963   8.580  0.00  0.00    +0.004 A 
ATOM     18  C   UNL     1       1.648   4.702   9.429  0.00  0.00    +0.000 A 
ATOM     19  C   UNL     1       0.287   4.780   9.201  0.00  0.00    +0.000 A 
ATOM     20  C   UNL     1      -0.266   4.112   8.127  0.00  0.00    +0.005 A 
ATOM     21  C   UNL     1       0.534   3.363   7.276  0.00  0.00    -0.027 A 
ATOM     22  C   UNL     1      -0.133   2.652   6.130  0.00  0.00    +0.143 C 
ENDBRANCH   6  11
BRANCH   1  23
ATOM     23  N   UNL     1      -0.312   2.356  -1.683  0.00  0.00    +0.381 N 
ATOM     24  H   UNL     1       0.153   3.201  -2.035  0.00  0.00    -0.085 HD
ATOM     25  H   UNL     1       0.391   1.633  -1.491  0.00  0.00    -0.085 HD
BRANCH  23  26
ATOM     26  C   UNL     1      -1.254   1.859  -2.704  0.00  0.00    -0.078 C 
BRANCH  26  28
ATOM     27  C   UNL     1       0.213   2.796  -4.496  0.00  0.00    +0.007 C 
ATOM     28  C   UNL     1      -0.481   1.533  -3.984  0.00  0.00    -0.065 C 
ATOM     29  C   UNL     1       0.568   0.460  -3.686  0.00  0.00    +0.007 C 
BRANCH  28  30
ATOM     30  C   UNL     1      -1.452   1.017  -5.048  0.00  0.00    -0.075 C 
BRANCH  30  33
ATOM     31  C   UNL     1      -0.116  -0.510  -6.370  0.00  0.00    -0.097 C 
ATOM     32  C   UNL     1      -1.620   1.041  -7.463  0.00  0.00    -0.097 C 
ATOM     33  N   UNL     1      -0.711   0.842  -6.315  0.00  0.00    +0.376 N 
ATOM     34  H   UNL     1       0.042   1.540  -6.361  0.00  0.00    -0.083 HD
ENDBRANCH  30  33
ENDBRANCH  28  30
ENDBRANCH  26  28
ENDBRANCH  23  26
ENDBRANCH   1  23
TORSDOF 6
