REMARK  Name = ZINC33932201
REMARK  16 active torsions:
REMARK  status: ('A' for Active; 'I' for Inactive)
REMARK    1  A    between atoms: C_1  and  C_2
REMARK    2  A    between atoms: C_2  and  C_3
REMARK    3  A    between atoms: C_3  and  C_5
REMARK    4  A    between atoms: C_3  and  O_6
REMARK    5  A    between atoms: O_6  and  C_7
REMARK    6  A    between atoms: C_7  and  C_9
REMARK    7  A    between atoms: C_10  and  C_41
REMARK    8  A    between atoms: C_14  and  C_16
REMARK    9  A    between atoms: C_19  and  O_23
REMARK   10  A    between atoms: C_20  and  O_22
REMARK   11  A    between atoms: O_23  and  C_24
REMARK   12  A    between atoms: C_28  and  C_31
REMARK   13  A    between atoms: C_34  and  O_39
REMARK   14  A    between atoms: C_35  and  O_37
REMARK   15  A    between atoms: O_37  and  C_38
REMARK   16  A    between atoms: O_39  and  C_40
REMARK                            x       y       z     vdW  Elec       q    Type
REMARK                         _______ _______ _______ _____ _____    ______ ____
ROOT
ATOM      1  C   UNL     1       4.024   0.687  -2.434  0.00  0.00    +0.065 C 
ATOM      2  C   UNL     1       4.686   0.647  -3.603  0.00  0.00    +0.016 C 
ATOM      3  N   UNL     1       6.037   0.851  -3.641  0.00  0.00    -0.321 N 
ATOM      4  C   UNL     1       6.797   0.705  -2.512  0.00  0.00    +0.016 C 
ATOM      5  C   UNL     1       6.224   0.743  -1.291  0.00  0.00    +0.024 C 
ATOM      6  C   UNL     1       4.738   0.967  -1.144  0.00  0.00    +0.092 C 
ATOM      7  C   UNL     1       6.991   0.579  -0.124  0.00  0.00    +0.162 C 
ATOM      8  O   UNL     1       6.444   0.626   0.961  0.00  0.00    -0.292 OA
ATOM      9  C   UNL     1       8.475   0.345  -0.193  0.00  0.00    +0.088 C 
ATOM     10  C   UNL     1       8.809  -0.355  -1.514  0.00  0.00    +0.032 C 
ATOM     11  C   UNL     1       8.285   0.506  -2.666  0.00  0.00    +0.059 C 
ATOM     12  C   UNL     1       3.933   0.376  -4.880  0.00  0.00    +0.061 C 
ATOM     13  H   UNL     1       6.462   1.100  -4.477  0.00  0.00    +0.152 HD
ENDROOT
BRANCH   6  14
ATOM     14  C   UNL     1       4.486   2.397  -0.739  0.00  0.00    -0.032 A 
ATOM     15  C   UNL     1       4.869   3.429  -1.576  0.00  0.00    +0.008 A 
ATOM     16  C   UNL     1       4.640   4.742  -1.209  0.00  0.00    +0.050 A 
ATOM     17  C   UNL     1       4.024   5.026  -0.001  0.00  0.00    +0.161 A 
ATOM     18  C   UNL     1       3.638   3.987   0.841  0.00  0.00    +0.159 A 
ATOM     19  C   UNL     1       3.866   2.674   0.465  0.00  0.00    +0.053 A 
BRANCH  18  20
ATOM     20  O   UNL     1       3.034   4.261   2.028  0.00  0.00    -0.503 OA
ATOM     21  H   UNL     1       2.070   4.314   1.976  0.00  0.00    +0.292 HD
ENDBRANCH  18  20
BRANCH  17  22
ATOM     22  O   UNL     1       3.798   6.317   0.362  0.00  0.00    -0.491 OA
ATOM     23  C   UNL     1       4.222   7.331  -0.552  0.00  0.00    +0.277 C 
ENDBRANCH  17  22
ENDBRANCH   6  14
BRANCH  10  24
ATOM     24  C   UNL     1      10.303  -0.517  -1.638  0.00  0.00    -0.040 A 
ATOM     25  C   UNL     1      11.120   0.597  -1.630  0.00  0.00    +0.008 A 
ATOM     26  C   UNL     1      12.491   0.454  -1.743  0.00  0.00    +0.049 A 
ATOM     27  C   UNL     1      13.047  -0.810  -1.864  0.00  0.00    +0.161 A 
ATOM     28  C   UNL     1      12.224  -1.931  -1.871  0.00  0.00    +0.162 A 
ATOM     29  C   UNL     1      10.852  -1.781  -1.753  0.00  0.00    +0.053 A 
BRANCH  28  30
ATOM     30  O   UNL     1      12.765  -3.173  -1.989  0.00  0.00    -0.491 OA
ATOM     31  C   UNL     1      11.860  -4.279  -1.989  0.00  0.00    +0.277 C 
ENDBRANCH  28  30
BRANCH  27  32
ATOM     32  O   UNL     1      14.395  -0.953  -1.976  0.00  0.00    -0.491 OA
ATOM     33  C   UNL     1      15.178   0.243  -1.962  0.00  0.00    +0.277 C 
ENDBRANCH  27  32
ENDBRANCH  10  24
BRANCH   1  34
ATOM     34  C   UNL     1       2.627   0.467  -2.419  0.00  0.00    +0.338 C 
ATOM     35  O   UNL     1       2.182  -0.590  -2.011  0.00  0.00    -0.245 OA
BRANCH  34  36
ATOM     36  O   UNL     1       1.788   1.427  -2.859  0.00  0.00    -0.458 OA
BRANCH  36  37
ATOM     37  C   UNL     1       0.389   1.137  -2.816  0.00  0.00    +0.173 C 
ATOM     38  C   UNL     1      -0.182   1.579  -1.467  0.00  0.00    +0.052 C 
BRANCH  37  40
ATOM     39  C   UNL     1       0.160   1.357  -5.294  0.00  0.00    +0.007 C 
ATOM     40  C   UNL     1      -0.323   1.888  -3.943  0.00  0.00    +0.041 C 
ENDBRANCH  37  40
ENDBRANCH  36  37
ENDBRANCH  34  36
ENDBRANCH   1  34
TORSDOF 10
