REMARK  Name = ZINC66600094
REMARK  6 active torsions:
REMARK  status: ('A' for Active; 'I' for Inactive)
REMARK    1  A    between atoms: C_1  and  C_2
REMARK    2  A    between atoms: C_7  and  C_10
REMARK    3  A    between atoms: C_11  and  C_13
REMARK    4  A    between atoms: N_21  and  C_22
REMARK    5  A    between atoms: C_22  and  C_23
REMARK    6  A    between atoms: C_23  and  C_28
REMARK                            x       y       z     vdW  Elec       q    Type
REMARK                         _______ _______ _______ _____ _____    ______ ____
ROOT
ATOM      1  C   UNL     1       4.195   0.967  -1.988  0.00  0.00    +0.078 C 
ATOM      2  C   UNL     1       5.110  -0.248  -1.821  0.00  0.00    +0.032 C 
ATOM      3  C   UNL     1       6.551   0.228  -1.611  0.00  0.00    +0.110 C 
ATOM      4  N   UNL     1       6.923   1.115  -2.722  0.00  0.00    -0.286 N 
ATOM      5  C   UNL     1       6.060   2.264  -3.027  0.00  0.00    +0.110 C 
ATOM      6  C   UNL     1       4.625   1.766  -3.221  0.00  0.00    +0.032 C 
ATOM      7  C   UNL     1       8.034   0.878  -3.447  0.00  0.00    +0.302 C 
ATOM      8  O   UNL     1       8.380   1.668  -4.303  0.00  0.00    -0.253 OA
ATOM      9  N   UNL     1       8.761  -0.234  -3.222  0.00  0.00    -0.299 N 
ATOM     10  H   UNL     1       8.527  -0.827  -2.491  0.00  0.00    +0.150 HD
ENDROOT
BRANCH   1  19
ATOM     11  C   UNL     1      -0.077   1.913  -0.304  0.00  0.00    +0.039 C 
ATOM     12  C   UNL     1      -0.105   0.399  -0.082  0.00  0.00    +0.133 C 
ATOM     13  C   UNL     1       0.653  -0.299  -1.216  0.00  0.00    +0.139 C 
ATOM     14  N   UNL     1       2.080   0.042  -1.100  0.00  0.00    -0.296 N 
ATOM     15  C   UNL     1       2.730  -0.138   0.208  0.00  0.00    +0.139 C 
ATOM     16  C   UNL     1       1.871   0.552   1.273  0.00  0.00    +0.133 C 
ATOM     17  O   UNL     1       0.522   0.088   1.165  0.00  0.00    -0.371 OA
ATOM     18  C   UNL     1       2.416   0.220   2.664  0.00  0.00    +0.039 C 
ATOM     19  C   UNL     1       2.771   0.504  -2.160  0.00  0.00    +0.219 C 
ATOM     20  O   UNL     1       2.248   0.547  -3.254  0.00  0.00    -0.275 OA
ENDBRANCH   1  19
BRANCH   9  21
ATOM     21  C   UNL     1       9.906  -0.546  -4.081  0.00  0.00    +0.112 C 
BRANCH  21  22
ATOM     22  C   UNL     1      10.553  -1.852  -3.614  0.00  0.00    -0.016 C 
ATOM     23  C   UNL     1      11.101  -1.687  -2.181  0.00  0.00    +0.008 C 
ATOM     24  C   UNL     1      12.415  -2.506  -2.180  0.00  0.00    +0.001 C 
ATOM     25  C   UNL     1      12.995  -2.223  -3.588  0.00  0.00    +0.001 C 
ATOM     26  C   UNL     1      11.758  -2.193  -4.508  0.00  0.00    +0.008 C 
ATOM     27  C   UNL     1       9.530  -2.988  -3.657  0.00  0.00    +0.013 C 
ENDBRANCH  21  22
ENDBRANCH   9  21
TORSDOF 3
