REMARK  Name = ZINC02297397
REMARK  7 active torsions:
REMARK  status: ('A' for Active; 'I' for Inactive)
REMARK    1  A    between atoms: C_1  and  C_2
REMARK    2  A    between atoms: C_6  and  N_8
REMARK    3  A    between atoms: C_9  and  N_32
REMARK    4  A    between atoms: C_10  and  C_21
REMARK    5  A    between atoms: N_23  and  C_24
REMARK    6  A    between atoms: C_24  and  C_25
REMARK    7  A    between atoms: C_25  and  C_26
REMARK                            x       y       z     vdW  Elec       q    Type
REMARK                         _______ _______ _______ _____ _____    ______ ____
ROOT
ATOM      1  N   UNL     1      -1.201  -0.723   0.009  0.00  0.00    -0.280 N 
ATOM      2  C   UNL     1      -1.632  -1.522  -1.007  0.00  0.00    +0.117 A 
ATOM      3  C   UNL     1      -2.861  -2.091  -0.689  0.00  0.00    +0.104 A 
ATOM      4  C   UNL     1      -3.218  -1.594   0.650  0.00  0.00    +0.123 A 
ATOM      5  C   UNL     1      -2.110  -0.723   1.050  0.00  0.00    +0.166 A 
ATOM      6  N   UNL     1      -2.151  -0.118   2.218  0.00  0.00    -0.225 NA
ATOM      7  C   UNL     1      -3.196  -0.313   3.033  0.00  0.00    +0.092 A 
ATOM      8  C   UNL     1      -3.245   0.324   4.287  0.00  0.00    +0.030 A 
ATOM      9  C   UNL     1      -4.311   0.121   5.108  0.00  0.00    +0.002 A 
ATOM     10  C   UNL     1      -5.361  -0.712   4.727  0.00  0.00    +0.002 A 
ATOM     11  C   UNL     1      -5.349  -1.346   3.523  0.00  0.00    +0.030 A 
ATOM     12  C   UNL     1      -4.264  -1.161   2.646  0.00  0.00    +0.090 A 
ATOM     13  N   UNL     1      -4.241  -1.779   1.459  0.00  0.00    -0.241 NA
ENDROOT
BRANCH   1  19
ATOM     14  C   UNL     1       3.717  -0.700  -0.038  0.00  0.00    +0.044 C 
ATOM     15  C   UNL     1       2.399   0.032  -0.021  0.00  0.00    -0.048 A 
ATOM     16  C   UNL     1       2.377   1.415  -0.013  0.00  0.00    +0.003 A 
ATOM     17  C   UNL     1       1.171   2.090   0.002  0.00  0.00    +0.002 A 
ATOM     18  C   UNL     1      -0.017   1.384   0.010  0.00  0.00    +0.026 A 
ATOM     19  C   UNL     1       0.002  -0.004   0.002  0.00  0.00    +0.050 A 
ATOM     20  C   UNL     1       1.216  -0.679  -0.013  0.00  0.00    +0.029 A 
ENDBRANCH   1  19
BRANCH   3  21
ATOM     21  C   UNL     1      -3.643  -3.002  -1.521  0.00  0.00    +0.250 C 
ATOM     22  O   UNL     1      -3.475  -4.205  -1.431  0.00  0.00    -0.270 OA
ATOM     23  N   UNL     1      -4.551  -2.512  -2.388  0.00  0.00    -0.311 N 
ATOM     24  H   UNL     1      -4.685  -1.554  -2.460  0.00  0.00    +0.149 HD
BRANCH  23  25
ATOM     25  C   UNL     1      -5.335  -3.426  -3.222  0.00  0.00    +0.109 C 
BRANCH  25  26
ATOM     26  C   UNL     1      -6.284  -2.618  -4.110  0.00  0.00    +0.054 C 
BRANCH  26  27
ATOM     27  C   UNL     1      -7.091  -3.558  -4.968  0.00  0.00    -0.046 A 
ATOM     28  C   UNL     1      -6.623  -3.931  -6.214  0.00  0.00    +0.004 A 
ATOM     29  C   UNL     1      -7.361  -4.797  -6.999  0.00  0.00    +0.000 A 
ATOM     30  C   UNL     1      -8.572  -5.282  -6.542  0.00  0.00    +0.000 A 
ATOM     31  C   UNL     1      -9.043  -4.905  -5.299  0.00  0.00    +0.000 A 
ATOM     32  C   UNL     1      -8.303  -4.043  -4.512  0.00  0.00    +0.004 A 
ENDBRANCH  26  27
ENDBRANCH  25  26
ENDBRANCH  23  25
ENDBRANCH   3  21
BRANCH   2  33
ATOM     33  N   UNL     1      -0.951  -1.735  -2.178  0.00  0.00    -0.343 N 
ATOM     34  H   UNL     1      -0.097  -1.301  -2.327  0.00  0.00    +0.144 HD
ATOM     35  H   UNL     1      -1.324  -2.319  -2.856  0.00  0.00    +0.144 HD
ENDBRANCH   2  33
TORSDOF 6
