REMARK  Name = ZINC43212838
REMARK  7 active torsions:
REMARK  status: ('A' for Active; 'I' for Inactive)
REMARK    1  A    between atoms: C_1  and  C_2
REMARK    2  A    between atoms: C_4  and  C_7
REMARK    3  A    between atoms: C_9  and  C_12
REMARK    4  A    between atoms: C_14  and  C_25
REMARK    5  A    between atoms: C_15  and  C_24
REMARK    6  A    between atoms: N_16  and  C_17
REMARK    7  A    between atoms: C_17  and  C_18
REMARK                            x       y       z     vdW  Elec       q    Type
REMARK                         _______ _______ _______ _____ _____    ______ ____
ROOT
ATOM      1  C   UNL     1      -1.617  -7.019  -0.112  0.00  0.00    +0.069 A 
ATOM      2  C   UNL     1      -0.337  -7.465  -0.172  0.00  0.00    +0.042 A 
ATOM      3  C   UNL     1      -0.380  -8.876  -0.020  0.00  0.00    +0.058 A 
ATOM      4  C   UNL     1      -1.704  -9.224   0.128  0.00  0.00    +0.028 A 
ATOM      5  N   UNL     1      -2.446  -8.097   0.076  0.00  0.00    -0.340 N 
ATOM      6  C   UNL     1      -2.235 -10.622   0.319  0.00  0.00    +0.064 C 
ENDROOT
BRANCH   1   9
ATOM      7  C   UNL     1      -1.515  -3.370  -0.364  0.00  0.00    +0.130 A 
ATOM      8  N   UNL     1      -1.153  -4.639  -0.264  0.00  0.00    -0.236 NA
ATOM      9  C   UNL     1      -2.048  -5.607  -0.224  0.00  0.00    +0.095 A 
ATOM     10  C   UNL     1      -3.383  -5.292  -0.289  0.00  0.00    +0.077 A 
ATOM     11  S   UNL     1      -3.296  -3.510  -0.405  0.00  0.00    -0.073 S 
BRANCH   7  15
ATOM     12  C   UNL     1      -0.090   1.492  -0.649  0.00  0.00    +0.089 C 
ATOM     13  C   UNL     1      -0.059  -0.012  -0.547  0.00  0.00    +0.135 A 
ATOM     14  C   UNL     1      -1.131  -0.822  -0.524  0.00  0.00    +0.077 A 
ATOM     15  C   UNL     1      -0.669  -2.158  -0.421  0.00  0.00    +0.138 A 
ATOM     16  N   UNL     1       0.643  -2.126  -0.386  0.00  0.00    -0.076 NA
ATOM     17  O   UNL     1       1.045  -0.771  -0.470  0.00  0.00    -0.359 OA
ENDBRANCH   7  15
ENDBRANCH   1   9
BRANCH   3  18
ATOM     18  C   UNL     1       0.773  -9.793  -0.020  0.00  0.00    +0.243 C 
ATOM     19  O   UNL     1       0.599 -10.989   0.120  0.00  0.00    -0.270 OA
ATOM     20  N   UNL     1       2.021  -9.308  -0.175  0.00  0.00    -0.325 N 
ATOM     21  H   UNL     1       2.159  -8.354  -0.286  0.00  0.00    +0.145 HD
ATOM     22  H   UNL     1       2.780  -9.912  -0.175  0.00  0.00    +0.145 HD
ENDBRANCH   3  18
BRANCH   5  23
ATOM     23  C   UNL     1      -3.904  -8.035   0.200  0.00  0.00    +0.153 C 
BRANCH  23  24
ATOM     24  C   UNL     1      -4.539  -8.171  -1.186  0.00  0.00    +0.138 C 
ATOM     25  C   UNL     1      -6.084  -8.199  -1.069  0.00  0.00    +0.035 C 
ATOM     26  C   UNL     1      -6.495  -7.694  -2.478  0.00  0.00    +0.031 C 
ATOM     27  C   UNL     1      -5.371  -6.688  -2.807  0.00  0.00    +0.160 C 
ATOM     28  O   UNL     1      -4.242  -7.016  -1.986  0.00  0.00    -0.375 OA
ENDBRANCH  23  24
ENDBRANCH   5  23
TORSDOF 5
