REMARK  Name = ZINC41423412
REMARK  11 active torsions:
REMARK  status: ('A' for Active; 'I' for Inactive)
REMARK    1  A    between atoms: C_1  and  C_2
REMARK    2  A    between atoms: C_2  and  C_4
REMARK    3  A    between atoms: C_2  and  N_19
REMARK    4  A    between atoms: N_6  and  C_7
REMARK    5  A    between atoms: C_7  and  C_8
REMARK    6  A    between atoms: C_8  and  N_13
REMARK    7  A    between atoms: C_20  and  O_22
REMARK    8  A    between atoms: O_22  and  C_23
REMARK    9  A    between atoms: C_23  and  C_24
REMARK   10  A    between atoms: C_23  and  C_25
REMARK   11  A    between atoms: C_23  and  C_26
REMARK                            x       y       z     vdW  Elec       q    Type
REMARK                         _______ _______ _______ _____ _____    ______ ____
ROOT
ATOM      1  C   UNL     1       0.615  -0.487   1.551  0.00  0.00    +0.233 C 
ATOM      2  O   UNL     1       0.116  -1.190   2.403  0.00  0.00    -0.274 OA
ATOM      3  N   UNL     1       1.918  -0.152   1.631  0.00  0.00    -0.315 N 
ATOM      4  H   UNL     1       2.317   0.410   0.949  0.00  0.00    +0.149 HD
ENDROOT
BRANCH   1   6
ATOM      5  C   UNL     1      -0.233   1.543   0.405  0.00  0.00    +0.038 C 
ATOM      6  C   UNL     1      -0.222   0.013   0.401  0.00  0.00    +0.159 C 
BRANCH   6   7
ATOM      7  N   UNL     1      -1.592  -0.486   0.542  0.00  0.00    -0.270 N 
ATOM      8  C   UNL     1      -2.376  -0.617  -0.546  0.00  0.00    +0.401 C 
ATOM      9  O   UNL     1      -1.947  -0.322  -1.644  0.00  0.00    -0.226 OA
ATOM     10  H   UNL     1      -1.935  -0.721   1.418  0.00  0.00    +0.153 HD
BRANCH   8  11
ATOM     11  O   UNL     1      -3.636  -1.075  -0.417  0.00  0.00    -0.445 OA
BRANCH  11  12
ATOM     12  C   UNL     1      -4.410  -1.189  -1.613  0.00  0.00    +0.107 C 
ATOM     13  C   UNL     1      -3.719  -2.154  -2.578  0.00  0.00    +0.055 C 
ATOM     14  C   UNL     1      -5.803  -1.722  -1.269  0.00  0.00    +0.055 C 
ATOM     15  C   UNL     1      -4.539   0.186  -2.270  0.00  0.00    +0.055 C 
ENDBRANCH  11  12
ENDBRANCH   8  11
ENDBRANCH   6   7
ENDBRANCH   1   6
BRANCH   3  16
ATOM     16  C   UNL     1       2.732  -0.638   2.749  0.00  0.00    +0.092 C 
BRANCH  16  17
ATOM     17  C   UNL     1       4.163  -0.117   2.602  0.00  0.00    -0.050 C 
ATOM     18  C   UNL     1       5.014  -0.566   3.807  0.00  0.00    -0.010 C 
ATOM     19  C   UNL     1       5.721  -1.853   3.315  0.00  0.00    -0.001 C 
ATOM     20  C   UNL     1       6.046  -1.521   1.838  0.00  0.00    -0.001 C 
ATOM     21  C   UNL     1       4.819  -0.725   1.349  0.00  0.00    -0.010 C 
BRANCH  17  22
ATOM     22  N   UNL     1       4.157   1.349   2.506  0.00  0.00    +0.386 N 
ATOM     23  C   UNL     1       5.532   1.824   2.335  0.00  0.00    -0.067 C 
ATOM     24  C   UNL     1       5.524   3.283   1.865  0.00  0.00    +0.050 C 
ATOM     25  S   UNL     1       4.732   4.294   3.154  0.00  0.00    -0.164 S 
ATOM     26  C   UNL     1       3.194   3.380   3.488  0.00  0.00    +0.050 C 
ATOM     27  C   UNL     1       3.550   1.907   3.716  0.00  0.00    -0.067 C 
ATOM     28  H   UNL     1       3.611   1.626   1.704  0.00  0.00    -0.081 HD
ENDBRANCH  17  22
ENDBRANCH  16  17
ENDBRANCH   3  16
TORSDOF 7
