REMARK  Name = ZINC49167038
REMARK  5 active torsions:
REMARK  status: ('A' for Active; 'I' for Inactive)
REMARK    1  A    between atoms: C_5  and  C_6
REMARK    2  A    between atoms: C_7  and  C_8
REMARK    3  A    between atoms: N_10  and  N_11
REMARK    4  A    between atoms: N_14  and  C_15
REMARK    5  A    between atoms: C_15  and  C_16
REMARK                            x       y       z     vdW  Elec       q    Type
REMARK                         _______ _______ _______ _____ _____    ______ ____
ROOT
ATOM      1  C   UNL     1      -2.099  -3.050   0.007  0.00  0.00    +0.253 C 
ATOM      2  O   UNL     1      -3.219  -2.571   0.021  0.00  0.00    -0.269 OA
ATOM      3  N   UNL     1      -1.938  -4.388  -0.002  0.00  0.00    -0.230 N 
ATOM      4  H   UNL     1      -1.046  -4.769  -0.013  0.00  0.00    +0.173 HD
ENDROOT
BRANCH   3   5
ATOM      5  N   UNL     1      -3.059  -5.228   0.005  0.00  0.00    -0.218 N 
ATOM      6  C   UNL     1      -2.897  -6.566  -0.004  0.00  0.00    +0.316 C 
ATOM      7  O   UNL     1      -3.870  -7.296   0.002  0.00  0.00    -0.251 OA
ATOM      8  N   UNL     1      -1.658  -7.096  -0.019  0.00  0.00    -0.298 N 
ATOM      9  H   UNL     1      -3.951  -4.848   0.016  0.00  0.00    +0.174 HD
ATOM     10  H   UNL     1      -0.882  -6.513  -0.024  0.00  0.00    +0.150 HD
BRANCH   8  11
ATOM     11  C   UNL     1      -1.483  -8.550  -0.029  0.00  0.00    +0.109 C 
BRANCH  11  12
ATOM     12  C   UNL     1       0.011  -8.884  -0.046  0.00  0.00    +0.006 C 
ATOM     13  C   UNL     1       0.556  -9.620  -1.271  0.00  0.00    +0.005 C 
ATOM     14  C   UNL     1       0.406 -10.358   0.061  0.00  0.00    +0.005 C 
ENDBRANCH  11  12
ENDBRANCH   8  11
ENDBRANCH   3   5
BRANCH   1  16
ATOM     15  C   UNL     1      -1.130  -0.853   0.009  0.00  0.00    +0.051 C 
ATOM     16  C   UNL     1      -0.968  -2.200   0.000  0.00  0.00    +0.072 C 
BRANCH  15  21
ATOM     17  C   UNL     1      -0.017   1.376   0.010  0.00  0.00    +0.050 A 
ATOM     18  C   UNL     1       1.322   1.793  -0.001  0.00  0.00    +0.056 A 
ATOM     19  C   UNL     1       2.089   0.679  -0.014  0.00  0.00    +0.165 A 
ATOM     20  O   UNL     1       1.293  -0.399  -0.012  0.00  0.00    -0.450 OA
ATOM     21  C   UNL     1       0.002  -0.004   0.002  0.00  0.00    +0.129 A 
ATOM     22  I   UNL     1       4.184   0.644  -0.034  0.00  0.00    -0.001 I 
ENDBRANCH  15  21
ENDBRANCH   1  16
TORSDOF 5
