REMARK  Name = ZINC00872962
REMARK  11 active torsions:
REMARK  status: ('A' for Active; 'I' for Inactive)
REMARK    1  A    between atoms: C_1  and  C_2
REMARK    2  A    between atoms: C_3  and  N_15
REMARK    3  A    between atoms: N_6  and  C_9
REMARK    4  A    between atoms: N_7  and  C_8
REMARK    5  A    between atoms: N_15  and  C_16
REMARK    6  A    between atoms: C_16  and  N_18
REMARK    7  A    between atoms: N_18  and  C_19
REMARK    8  A    between atoms: C_19  and  C_21
REMARK    9  A    between atoms: C_19  and  N_25
REMARK   10  A    between atoms: C_26  and  C_28
REMARK   11  A    between atoms: C_28  and  C_29
REMARK                            x       y       z     vdW  Elec       q    Type
REMARK                         _______ _______ _______ _____ _____    ______ ____
ROOT
ATOM      1  C   UNL     1       0.042  -0.362  -3.382  0.00  0.00    +0.136 C 
ATOM      2  S   UNL     1       0.164  -2.066  -3.496  0.00  0.00    -0.019 S 
ENDROOT
BRANCH   1   3
ATOM      3  N   UNL     1       0.040   0.234  -2.173  0.00  0.00    -0.291 N 
ATOM      4  H   UNL     1       0.046   1.202  -2.110  0.00  0.00    +0.154 HD
BRANCH   3   7
ATOM      5  C   UNL     1       2.180   0.357   0.015  0.00  0.00    +0.067 C 
ATOM      6  C   UNL     1       0.954  -0.520  -0.018  0.00  0.00    +0.059 A 
ATOM      7  C   UNL     1       0.028  -0.549  -1.001  0.00  0.00    +0.120 A 
ATOM      8  C   UNL     1      -0.958  -1.505  -0.647  0.00  0.00    +0.293 A 
ATOM      9  O   UNL     1      -1.944  -1.797  -1.300  0.00  0.00    -0.264 OA
ATOM     10  N   UNL     1      -0.607  -2.034   0.543  0.00  0.00    -0.216 N 
ATOM     11  N   UNL     1       0.591  -1.429   0.944  0.00  0.00    -0.282 N 
ATOM     12  C   UNL     1       1.327  -1.714   2.178  0.00  0.00    +0.171 C 
BRANCH  10  13
ATOM     13  C   UNL     1      -1.311  -3.015   1.249  0.00  0.00    +0.067 A 
ATOM     14  C   UNL     1      -1.586  -2.839   2.599  0.00  0.00    +0.028 A 
ATOM     15  C   UNL     1      -2.281  -3.810   3.292  0.00  0.00    +0.002 A 
ATOM     16  C   UNL     1      -2.703  -4.957   2.645  0.00  0.00    +0.000 A 
ATOM     17  C   UNL     1      -2.430  -5.135   1.301  0.00  0.00    +0.002 A 
ATOM     18  C   UNL     1      -1.741  -4.165   0.600  0.00  0.00    +0.028 A 
ENDBRANCH  10  13
ENDBRANCH   3   7
ENDBRANCH   1   3
BRANCH   1  19
ATOM     19  N   UNL     1      -0.053   0.383  -4.501  0.00  0.00    -0.305 N 
ATOM     20  H   UNL     1      -0.123   1.348  -4.437  0.00  0.00    +0.150 HD
BRANCH  19  21
ATOM     21  C   UNL     1      -0.052  -0.266  -5.815  0.00  0.00    +0.211 C 
BRANCH  21  22
ATOM     22  C   UNL     1      -1.151   0.345  -6.686  0.00  0.00    +0.225 C 
ATOM     23 CL   UNL     1      -0.848   2.111  -6.887  0.00  0.00    -0.080 Cl
ATOM     24 CL   UNL     1      -1.149  -0.453  -8.303  0.00  0.00    -0.080 Cl
ATOM     25 CL   UNL     1      -2.752   0.096  -5.895  0.00  0.00    -0.080 Cl
ENDBRANCH  21  22
BRANCH  21  26
ATOM     26  N   UNL     1       1.249  -0.063  -6.457  0.00  0.00    -0.293 N 
ATOM     27  C   UNL     1       2.133  -1.078  -6.524  0.00  0.00    +0.219 C 
ATOM     28  O   UNL     1       1.852  -2.159  -6.051  0.00  0.00    -0.275 OA
ATOM     29  H   UNL     1       1.474   0.801  -6.835  0.00  0.00    +0.151 HD
BRANCH  27  30
ATOM     30  C   UNL     1       3.472  -0.870  -7.184  0.00  0.00    +0.131 C 
BRANCH  30  31
ATOM     31  C   UNL     1       4.266  -2.150  -7.125  0.00  0.00    -0.039 A 
ATOM     32  C   UNL     1       5.091  -2.402  -6.046  0.00  0.00    +0.004 A 
ATOM     33  C   UNL     1       5.819  -3.575  -5.992  0.00  0.00    +0.000 A 
ATOM     34  C   UNL     1       5.722  -4.497  -7.017  0.00  0.00    +0.000 A 
ATOM     35  C   UNL     1       4.895  -4.246  -8.096  0.00  0.00    +0.000 A 
ATOM     36  C   UNL     1       4.164  -3.074  -8.148  0.00  0.00    +0.004 A 
ENDBRANCH  30  31
ENDBRANCH  27  30
ENDBRANCH  21  26
ENDBRANCH  19  21
ENDBRANCH   1  19
TORSDOF 9
