REMARK  Name = ZINC02948501
REMARK  6 active torsions:
REMARK  status: ('A' for Active; 'I' for Inactive)
REMARK    1  A    between atoms: C_5  and  C_7
REMARK    2  A    between atoms: C_7  and  O_8
REMARK    3  A    between atoms: O_8  and  C_9
REMARK    4  A    between atoms: C_12  and  C_15
REMARK    5  A    between atoms: N_17  and  N_18
REMARK    6  A    between atoms: C_19  and  C_20
REMARK                            x       y       z     vdW  Elec       q    Type
REMARK                         _______ _______ _______ _____ _____    ______ ____
ROOT
ATOM      1  C   UNL     1       1.446   7.795   0.032  0.00  0.00    +0.263 C 
ATOM      2  O   UNL     1       0.240   7.950   0.044  0.00  0.00    -0.268 OA
ATOM      3  N   UNL     1       1.965   6.551   0.020  0.00  0.00    -0.203 N 
ATOM      4  H   UNL     1       2.927   6.427   0.011  0.00  0.00    +0.178 HD
ENDROOT
BRANCH   1   8
ATOM      5  C   UNL     1       4.022  11.171   0.029  0.00  0.00    +0.121 A 
ATOM      6  C   UNL     1       2.644  11.350   0.042  0.00  0.00    +0.046 A 
ATOM      7  C   UNL     1       1.805  10.258   0.043  0.00  0.00    +0.016 A 
ATOM      8  C   UNL     1       2.341   8.968   0.031  0.00  0.00    +0.039 A 
ATOM      9  C   UNL     1       3.728   8.791   0.023  0.00  0.00    +0.016 A 
ATOM     10  C   UNL     1       4.560   9.889   0.017  0.00  0.00    +0.046 A 
BRANCH   5  11
ATOM     11  O   UNL     1       4.846  12.249   0.029  0.00  0.00    -0.487 OA
BRANCH  11  12
ATOM     12  C   UNL     1       6.251  11.993   0.014  0.00  0.00    +0.265 C 
BRANCH  12  17
ATOM     13  C   UNL     1       6.993  15.694   0.030  0.00  0.00    +0.000 A 
ATOM     14  C   UNL     1       8.376  15.700   0.018  0.00  0.00    +0.001 A 
ATOM     15  C   UNL     1       9.071  14.505   0.005  0.00  0.00    +0.015 A 
ATOM     16  C   UNL     1       8.384  13.305   0.004  0.00  0.00    +0.024 A 
ATOM     17  C   UNL     1       7.001  13.300   0.016  0.00  0.00    +0.004 A 
ATOM     18  C   UNL     1       6.306  14.495   0.024  0.00  0.00    +0.008 A 
ATOM     19 BR   UNL     1       9.335  11.670  -0.015  0.00  0.00    -0.050 Br
ENDBRANCH  12  17
ENDBRANCH  11  12
ENDBRANCH   5  11
ENDBRANCH   1   8
BRANCH   3  20
ATOM     20  N   UNL     1       1.115   5.437   0.022  0.00  0.00    -0.187 NA
ATOM     21  C   UNL     1       1.616   4.238   0.010  0.00  0.00    +0.140 C 
BRANCH  21  22
ATOM     22  C   UNL     1       0.723   3.068   0.012  0.00  0.00    +0.020 A 
ATOM     23  C   UNL     1       1.097   1.760   0.001  0.00  0.00    +0.093 A 
ATOM     24  N   UNL     1      -0.011   0.966   0.007  0.00  0.00    -0.360 N 
ATOM     25  H   UNL     1       0.002  -0.004   0.002  0.00  0.00    +0.165 HD
ATOM     26  C   UNL     1      -1.153   1.739   0.016  0.00  0.00    +0.047 A 
ATOM     27  C   UNL     1      -0.751   3.085   0.026  0.00  0.00    +0.008 A 
ATOM     28  C   UNL     1      -1.706   4.098   0.040  0.00  0.00    +0.010 A 
ATOM     29  C   UNL     1      -3.045   3.774   0.050  0.00  0.00    +0.001 A 
ATOM     30  C   UNL     1      -3.443   2.445   0.046  0.00  0.00    +0.002 A 
ATOM     31  C   UNL     1      -2.510   1.432   0.033  0.00  0.00    +0.026 A 
ENDBRANCH  21  22
ENDBRANCH   3  20
TORSDOF 6
