REMARK  Name = ZINC63526607
REMARK  6 active torsions:
REMARK  status: ('A' for Active; 'I' for Inactive)
REMARK    1  A    between atoms: C_1  and  C_2
REMARK    2  A    between atoms: C_5  and  C_8
REMARK    3  A    between atoms: C_16  and  O_35
REMARK    4  A    between atoms: C_23  and  C_25
REMARK    5  A    between atoms: C_29  and  N_31
REMARK    6  A    between atoms: O_35  and  C_36
REMARK                            x       y       z     vdW  Elec       q    Type
REMARK                         _______ _______ _______ _____ _____    ______ ____
ROOT
ATOM      1  C   UNL     1       0.034  -4.295  -0.095  0.00  0.00    +0.247 C 
ATOM      2  O   UNL     1      -0.011  -4.933  -1.128  0.00  0.00    -0.270 OA
ATOM      3  N   UNL     1       0.144  -4.933   1.087  0.00  0.00    -0.288 N 
ATOM      4  C   UNL     1       0.096  -4.164   2.334  0.00  0.00    +0.113 C 
ATOM      5  C   UNL     1       1.384  -4.412   3.140  0.00  0.00    +0.052 C 
ATOM      6  C   UNL     1       1.630  -5.900   3.115  0.00  0.00    -0.035 C 
ATOM      7  C   UNL     1       1.854  -6.769   4.093  0.00  0.00    +0.003 A 
ATOM      8  C   UNL     1       2.053  -6.591   5.540  0.00  0.00    +0.055 A 
ATOM      9  C   UNL     1       2.244  -7.722   6.273  0.00  0.00    +0.121 A 
ATOM     10  C   UNL     1       2.260  -9.015   5.731  0.00  0.00    +0.047 A 
ATOM     11  C   UNL     1       2.096  -9.292   4.412  0.00  0.00    +0.029 A 
ATOM     12  C   UNL     1       1.889  -8.148   3.514  0.00  0.00    +0.043 A 
ATOM     13  N   UNL     1       1.728  -8.105   2.226  0.00  0.00    -0.375 N 
ATOM     14  C   UNL     1       1.635  -6.702   1.819  0.00  0.00    +0.131 C 
ATOM     15  C   UNL     1       0.305  -6.396   1.112  0.00  0.00    +0.133 C 
ATOM     16  H   UNL     1       1.679  -8.873   1.635  0.00  0.00    +0.160 HD
ENDROOT
BRANCH   1  21
ATOM     17  C   UNL     1      -0.221   1.452  -0.247  0.00  0.00    +0.044 C 
ATOM     18  C   UNL     1      -0.154  -0.053  -0.207  0.00  0.00    -0.050 A 
ATOM     19  C   UNL     1      -0.956  -0.755   0.675  0.00  0.00    +0.004 A 
ATOM     20  C   UNL     1      -0.900  -2.133   0.716  0.00  0.00    +0.013 A 
ATOM     21  C   UNL     1      -0.032  -2.818  -0.134  0.00  0.00    +0.037 A 
ATOM     22  C   UNL     1       0.775  -2.104  -1.022  0.00  0.00    +0.013 A 
ATOM     23  C   UNL     1       0.705  -0.727  -1.057  0.00  0.00    +0.004 A 
ENDBRANCH   1  21
BRANCH  15  24
ATOM     24  C   UNL     1      -0.837  -7.022   1.870  0.00  0.00    -0.022 A 
ATOM     25  C   UNL     1      -1.086  -6.648   3.178  0.00  0.00    +0.007 A 
ATOM     26  C   UNL     1      -2.133  -7.222   3.873  0.00  0.00    +0.022 A 
ATOM     27  C   UNL     1      -2.932  -8.171   3.261  0.00  0.00    +0.071 A 
ATOM     28  C   UNL     1      -2.683  -8.545   1.952  0.00  0.00    +0.145 A 
ATOM     29  C   UNL     1      -1.638  -7.966   1.256  0.00  0.00    +0.039 A 
ATOM     30 CL   UNL     1      -4.248  -8.893   4.134  0.00  0.00    -0.081 Cl
BRANCH  28  31
ATOM     31  N   UNL     1      -3.537  -9.560   1.297  0.00  0.00    +0.058 N 
ATOM     32  O   UNL     1      -3.318  -9.886   0.153  0.00  0.00    -0.126 OA
ATOM     33  O   UNL     1      -4.453 -10.062   1.904  0.00  0.00    -0.126 OA
ENDBRANCH  28  31
ENDBRANCH  15  24
BRANCH   9  34
ATOM     34  O   UNL     1       2.431  -7.589   7.613  0.00  0.00    -0.495 OA
ATOM     35  C   UNL     1       2.629  -8.790   8.363  0.00  0.00    +0.277 C 
ENDBRANCH   9  34
TORSDOF 4
