REMARK  Name = ZINC34829776
REMARK  9 active torsions:
REMARK  status: ('A' for Active; 'I' for Inactive)
REMARK    1  A    between atoms: C_1  and  C_2
REMARK    2  A    between atoms: C_5  and  C_8
REMARK    3  A    between atoms: N_17  and  C_18
REMARK    4  A    between atoms: C_18  and  C_19
REMARK    5  A    between atoms: C_25  and  C_28
REMARK    6  A    between atoms: C_29  and  C_31
REMARK    7  A    between atoms: C_31  and  O_32
REMARK    8  A    between atoms: O_32  and  C_33
REMARK    9  A    between atoms: C_33  and  C_34
REMARK                            x       y       z     vdW  Elec       q    Type
REMARK                         _______ _______ _______ _____ _____    ______ ____
ROOT
ATOM      1  C   UNL     1       3.234  -4.727   1.877  0.00  0.00    +0.199 C 
ATOM      2  O   UNL     1       2.779  -5.302   2.843  0.00  0.00    -0.278 OA
ATOM      3  N   UNL     1       4.549  -4.437   1.823  0.00  0.00    -0.300 N 
ATOM      4  C   UNL     1       5.114  -3.736   0.662  0.00  0.00    +0.126 C 
ATOM      5  C   UNL     1       6.263  -4.577   0.093  0.00  0.00    +0.127 C 
ATOM      6  N   UNL     1       7.158  -4.956   1.195  0.00  0.00    -0.294 N 
ATOM      7  C   UNL     1       6.594  -5.657   2.357  0.00  0.00    +0.090 C 
ATOM      8  C   UNL     1       5.443  -4.811   2.928  0.00  0.00    +0.130 C 
ATOM      9  C   UNL     1       6.067  -7.027   1.924  0.00  0.00    +0.029 C 
ATOM     10  C   UNL     1       8.473  -4.666   1.141  0.00  0.00    +0.242 C 
ATOM     11  O   UNL     1       9.202  -4.983   2.057  0.00  0.00    -0.273 OA
ENDROOT
BRANCH   1  12
ATOM     12  C   UNL     1       2.329  -4.338   0.737  0.00  0.00    +0.020 C 
BRANCH  12  21
ATOM     13  C   UNL     1       0.059  -4.275  -0.021  0.00  0.00    -0.005 C 
ATOM     14  C   UNL     1      -1.346  -4.806   0.240  0.00  0.00    -0.047 A 
ATOM     15  C   UNL     1      -2.502  -4.255  -0.307  0.00  0.00    +0.010 A 
ATOM     16  C   UNL     1      -3.711  -4.792  -0.017  0.00  0.00    +0.045 A 
ATOM     17  S   UNL     1      -3.266  -6.138   1.072  0.00  0.00    -0.101 S 
ATOM     18  C   UNL     1      -1.514  -5.885   1.056  0.00  0.00    -0.010 A 
ATOM     19  C   UNL     1      -0.434  -6.647   1.752  0.00  0.00    +0.024 C 
ATOM     20  C   UNL     1       0.907  -6.228   1.125  0.00  0.00    -0.072 C 
ATOM     21  N   UNL     1       0.955  -4.762   1.035  0.00  0.00    +0.393 N 
ATOM     22  H   UNL     1       0.671  -4.367   1.919  0.00  0.00    -0.080 HD
BRANCH  13  27
ATOM     23  C   UNL     1      -0.018   1.503   0.010  0.00  0.00    +0.044 C 
ATOM     24  C   UNL     1       0.002  -0.004   0.002  0.00  0.00    -0.050 A 
ATOM     25  C   UNL     1       0.006  -0.689  -1.199  0.00  0.00    +0.003 A 
ATOM     26  C   UNL     1       0.025  -2.071  -1.206  0.00  0.00    +0.002 A 
ATOM     27  C   UNL     1       0.040  -2.768  -0.013  0.00  0.00    -0.057 A 
ATOM     28  C   UNL     1       0.037  -2.084   1.188  0.00  0.00    +0.002 A 
ATOM     29  C   UNL     1       0.023  -0.702   1.195  0.00  0.00    +0.003 A 
ENDBRANCH  13  27
ENDBRANCH  12  21
ENDBRANCH   1  12
BRANCH  10  30
ATOM     30  C   UNL     1       9.038  -3.947  -0.057  0.00  0.00    +0.256 C 
BRANCH  30  31
ATOM     31  O   UNL     1      10.443  -3.756   0.121  0.00  0.00    -0.366 OA
BRANCH  31  32
ATOM     32  C   UNL     1      11.080  -3.079  -0.965  0.00  0.00    +0.195 C 
BRANCH  32  33
ATOM     33  C   UNL     1      12.551  -2.933  -0.672  0.00  0.00    -0.022 A 
ATOM     34  C   UNL     1      13.014  -1.817  -0.001  0.00  0.00    +0.006 A 
ATOM     35  C   UNL     1      14.364  -1.683   0.267  0.00  0.00    +0.000 A 
ATOM     36  C   UNL     1      15.250  -2.665  -0.135  0.00  0.00    +0.000 A 
ATOM     37  C   UNL     1      14.786  -3.782  -0.806  0.00  0.00    +0.000 A 
ATOM     38  C   UNL     1      13.436  -3.918  -1.070  0.00  0.00    +0.006 A 
ENDBRANCH  32  33
ENDBRANCH  31  32
ENDBRANCH  30  31
ENDBRANCH  10  30
TORSDOF 7
