REMARK  Name = ZINC18148598
REMARK  3 active torsions:
REMARK  status: ('A' for Active; 'I' for Inactive)
REMARK    1  A    between atoms: C_4  and  C_8
REMARK    2  A    between atoms: N_9  and  N_10
REMARK    3  A    between atoms: C_11  and  C_13
REMARK                            x       y       z     vdW  Elec       q    Type
REMARK                         _______ _______ _______ _____ _____    ______ ____
ROOT
ATOM      1  N   UNL     1       4.939  -2.663  -0.061  0.00  0.00    -0.202 N 
ATOM      2  C   UNL     1       4.961  -4.011  -0.069  0.00  0.00    +0.281 C 
ATOM      3  O   UNL     1       3.917  -4.636  -0.061  0.00  0.00    -0.267 OA
ATOM      4  H   UNL     1       5.771  -2.164  -0.067  0.00  0.00    +0.178 HD
ENDROOT
BRANCH   2   5
ATOM      5  C   UNL     1       6.246  -4.725  -0.086  0.00  0.00    +0.125 A 
ATOM      6  C   UNL     1       6.437  -6.084  -0.101  0.00  0.00    +0.005 A 
ATOM      7  C   UNL     1       7.824  -6.277  -0.112  0.00  0.00    +0.067 A 
ATOM      8  N   UNL     1       8.387  -5.104  -0.107  0.00  0.00    -0.178 NA
ATOM      9  N   UNL     1       7.499  -4.171  -0.096  0.00  0.00    -0.272 N 
ATOM     10  H   UNL     1       7.689  -3.220  -0.093  0.00  0.00    +0.189 HD
ATOM     11  C   UNL     1       8.469  -7.641  -0.124  0.00  0.00    +0.057 C 
ATOM     12  C   UNL     1       7.415  -8.672   0.298  0.00  0.00    +0.007 C 
ATOM     13  C   UNL     1       6.144  -8.489  -0.534  0.00  0.00    +0.005 C 
ATOM     14  C   UNL     1       5.428  -7.200  -0.107  0.00  0.00    +0.039 C 
ENDBRANCH   2   5
BRANCH   1  16
ATOM     15  C   UNL     1       3.694  -0.684  -0.038  0.00  0.00    +0.142 C 
ATOM     16  N   UNL     1       3.715  -1.982  -0.045  0.00  0.00    -0.187 NA
BRANCH  15  20
ATOM     17  C   UNL     1      -0.017   1.379   0.010  0.00  0.00    +0.004 A 
ATOM     18  C   UNL     1       1.167   2.095   0.002  0.00  0.00    +0.039 A 
ATOM     19  C   UNL     1       2.379   1.431  -0.013  0.00  0.00    +0.133 A 
ATOM     20  C   UNL     1       2.406   0.032  -0.021  0.00  0.00    +0.048 A 
ATOM     21  C   UNL     1       1.205  -0.682  -0.013  0.00  0.00    +0.052 A 
ATOM     22  C   UNL     1       0.002  -0.004   0.002  0.00  0.00    +0.021 A 
ATOM     23 CL   UNL     1       1.225  -2.418  -0.023  0.00  0.00    -0.083 Cl
ATOM     24  F   UNL     1       3.535   2.131  -0.022  0.00  0.00    -0.205 F 
ENDBRANCH  15  20
ENDBRANCH   1  16
TORSDOF 3
