REMARK  Name = ZINC23990089
REMARK  5 active torsions:
REMARK  status: ('A' for Active; 'I' for Inactive)
REMARK    1  A    between atoms: C_6  and  S_7
REMARK    2  A    between atoms: S_7  and  N_10
REMARK    3  A    between atoms: N_10  and  C_11
REMARK    4  A    between atoms: C_11  and  C_12
REMARK    5  A    between atoms: C_12  and  N_18
REMARK                            x       y       z     vdW  Elec       q    Type
REMARK                         _______ _______ _______ _____ _____    ______ ____
ROOT
ATOM      1  S   UNL     1       1.264  -0.599  -2.007  0.00  0.00    +0.059 S 
ATOM      2  O   UNL     1       0.487   0.203  -1.129  0.00  0.00    -0.153 OA
ATOM      3  O   UNL     1       2.313  -0.062  -2.802  0.00  0.00    -0.153 OA
ENDROOT
BRANCH   1   9
ATOM      4  C   UNL     1       3.139  -2.503  -1.447  0.00  0.00    +0.030 A 
ATOM      5  C   UNL     1       3.706  -3.503  -0.683  0.00  0.00    +0.030 A 
ATOM      6  C   UNL     1       3.112  -3.885   0.514  0.00  0.00    +0.066 A 
ATOM      7  C   UNL     1       1.942  -3.252   0.940  0.00  0.00    +0.068 A 
ATOM      8  C   UNL     1       1.381  -2.246   0.162  0.00  0.00    +0.056 A 
ATOM      9  C   UNL     1       1.979  -1.875  -1.025  0.00  0.00    +0.107 A 
ATOM     10  N   UNL     1       1.333  -3.621   2.136  0.00  0.00    -0.316 N 
ATOM     11  H   UNL     1       0.520  -3.176   2.422  0.00  0.00    +0.169 HD
ATOM     12  C   UNL     1       1.871  -4.596   2.896  0.00  0.00    +0.314 A 
ATOM     13  O   UNL     1       1.342  -4.922   3.940  0.00  0.00    -0.262 OA
ATOM     14  C   UNL     1       3.121  -5.271   2.442  0.00  0.00    +0.314 A 
ATOM     15  O   UNL     1       3.621  -6.152   3.113  0.00  0.00    -0.262 OA
ATOM     16  N   UNL     1       3.690  -4.894   1.279  0.00  0.00    -0.316 N 
ATOM     17  H   UNL     1       4.502  -5.328   0.975  0.00  0.00    +0.169 HD
ENDBRANCH   1   9
BRANCH   1  18
ATOM     18  N   UNL     1       0.202  -1.323  -3.052  0.00  0.00    -0.188 NA
ATOM     19  H   UNL     1       0.368  -1.298  -4.007  0.00  0.00    +0.148 HD
BRANCH  18  20
ATOM     20  C   UNL     1      -0.990  -1.999  -2.533  0.00  0.00    +0.128 C 
BRANCH  20  21
ATOM     21  C   UNL     1      -1.976  -2.242  -3.677  0.00  0.00    +0.036 C 
ATOM     22  C   UNL     1      -3.274  -2.826  -3.115  0.00  0.00    +0.023 C 
ATOM     23  C   UNL     1      -2.975  -4.150  -2.409  0.00  0.00    +0.002 C 
ATOM     24  C   UNL     1      -2.364  -5.134  -3.409  0.00  0.00    +0.000 C 
ATOM     25  C   UNL     1      -1.066  -4.550  -3.971  0.00  0.00    +0.002 C 
ATOM     26  C   UNL     1      -1.366  -3.226  -4.677  0.00  0.00    +0.023 C 
BRANCH  21  27
ATOM     27  N   UNL     1      -2.264  -0.971  -4.354  0.00  0.00    -0.291 NA
ATOM     28  C   UNL     1      -2.805   0.018  -3.410  0.00  0.00    +0.113 C 
ATOM     29  C   UNL     1      -3.034   1.343  -4.143  0.00  0.00    +0.175 C 
ATOM     30  O   UNL     1      -3.906   1.122  -5.255  0.00  0.00    -0.377 OA
ATOM     31  C   UNL     1      -3.410   0.165  -6.194  0.00  0.00    +0.175 C 
ATOM     32  C   UNL     1      -3.185  -1.172  -5.482  0.00  0.00    +0.113 C 
ENDBRANCH  21  27
ENDBRANCH  20  21
ENDBRANCH  18  20
ENDBRANCH   1  18
TORSDOF 5
