REMARK  Name = ZINC08496730
REMARK  8 active torsions:
REMARK  status: ('A' for Active; 'I' for Inactive)
REMARK    1  A    between atoms: C_1  and  O_2
REMARK    2  A    between atoms: O_2  and  C_3
REMARK    3  A    between atoms: C_3  and  C_5
REMARK    4  A    between atoms: C_8  and  N_11
REMARK    5  A    between atoms: C_15  and  C_16
REMARK    6  A    between atoms: C_19  and  C_21
REMARK    7  A    between atoms: C_24  and  S_27
REMARK    8  A    between atoms: S_27  and  N_30
REMARK                            x       y       z     vdW  Elec       q    Type
REMARK                         _______ _______ _______ _____ _____    ______ ____
ROOT
ATOM      1  N   UNL     1       1.056   2.029   0.003  0.00  0.00    -0.184 N 
ATOM      2  C   UNL     1      -0.014   1.213   0.009  0.00  0.00    +0.272 C 
ATOM      3  O   UNL     1       0.002  -0.004   0.002  0.00  0.00    -0.268 OA
ATOM      4  C   UNL     1      -1.209   2.073   0.018  0.00  0.00    +0.105 C 
ATOM      5  C   UNL     1      -2.539   1.671   0.021  0.00  0.00    +0.064 C 
ATOM      6  C   UNL     1      -0.691   3.451   0.027  0.00  0.00    +0.266 C 
ATOM      7  O   UNL     1      -1.351   4.473   0.039  0.00  0.00    -0.268 OA
ATOM      8  N   UNL     1       0.653   3.365   0.014  0.00  0.00    -0.223 N 
ATOM      9  H   UNL     1       1.256   4.124   0.012  0.00  0.00    +0.174 HD
ENDROOT
BRANCH   1  13
ATOM     10  C   UNL     1       5.018   0.747  -0.043  0.00  0.00    +0.059 A 
ATOM     11  C   UNL     1       4.724   2.114  -0.033  0.00  0.00    +0.017 A 
ATOM     12  C   UNL     1       3.413   2.534  -0.017  0.00  0.00    +0.026 A 
ATOM     13  C   UNL     1       2.381   1.600  -0.013  0.00  0.00    +0.056 A 
ATOM     14  C   UNL     1       2.671   0.239  -0.017  0.00  0.00    +0.026 A 
ATOM     15  C   UNL     1       3.979  -0.189  -0.038  0.00  0.00    +0.017 A 
BRANCH  10  16
ATOM     16  C   UNL     1       6.421   0.293  -0.059  0.00  0.00    +0.339 C 
ATOM     17  O   UNL     1       7.323   1.107  -0.063  0.00  0.00    -0.245 OA
BRANCH  16  19
ATOM     18  C   UNL     1       8.105  -1.399  -0.085  0.00  0.00    +0.280 C 
ATOM     19  O   UNL     1       6.702  -1.025  -0.069  0.00  0.00    -0.464 OA
ENDBRANCH  16  19
ENDBRANCH  10  16
ENDBRANCH   1  13
BRANCH   5  20
ATOM     20  C   UNL     1      -2.859   0.305   0.014  0.00  0.00    +0.129 A 
ATOM     21  C   UNL     1      -4.139  -0.232   0.015  0.00  0.00    +0.050 A 
ATOM     22  C   UNL     1      -3.994  -1.618   0.007  0.00  0.00    +0.050 A 
ATOM     23  C   UNL     1      -2.641  -1.883   0.000  0.00  0.00    +0.136 A 
ATOM     24  O   UNL     1      -1.975  -0.716  -0.001  0.00  0.00    -0.455 OA
BRANCH  23  25
ATOM     25  C   UNL     1      -2.026  -3.225  -0.010  0.00  0.00    +0.017 A 
ATOM     26  C   UNL     1      -2.833  -4.366  -0.008  0.00  0.00    +0.013 A 
ATOM     27  C   UNL     1      -2.252  -5.617  -0.023  0.00  0.00    +0.029 A 
ATOM     28  C   UNL     1      -0.874  -5.743  -0.029  0.00  0.00    +0.105 A 
ATOM     29  C   UNL     1      -0.069  -4.617  -0.025  0.00  0.00    +0.029 A 
ATOM     30  C   UNL     1      -0.636  -3.360  -0.016  0.00  0.00    +0.013 A 
BRANCH  28  31
ATOM     31  S   UNL     1      -0.140  -7.345  -0.041  0.00  0.00    +0.056 S 
ATOM     32  O   UNL     1      -1.105  -8.229  -0.594  0.00  0.00    -0.153 OA
ATOM     33  O   UNL     1       1.159  -7.193  -0.596  0.00  0.00    -0.153 OA
BRANCH  31  34
ATOM     34  N   UNL     1       0.070  -7.800   1.537  0.00  0.00    -0.204 NA
ATOM     35  H   UNL     1      -0.202  -7.205   2.253  0.00  0.00    +0.144 HD
ATOM     36  H   UNL     1       0.464  -8.661   1.746  0.00  0.00    +0.144 HD
ENDBRANCH  31  34
ENDBRANCH  28  31
ENDBRANCH  23  25
ENDBRANCH   5  20
TORSDOF 7
