REMARK  Name = ZINC12890249
REMARK  4 active torsions:
REMARK  status: ('A' for Active; 'I' for Inactive)
REMARK    1  A    between atoms: C_1  and  C_2
REMARK    2  A    between atoms: C_8  and  C_13
REMARK    3  A    between atoms: N_15  and  C_16
REMARK    4  A    between atoms: C_22  and  C_24
REMARK                            x       y       z     vdW  Elec       q    Type
REMARK                         _______ _______ _______ _____ _____    ______ ____
ROOT
ATOM      1  C   UNL     1      -2.508   3.897   0.080  0.00  0.00    +0.045 C 
ATOM      2  C   UNL     1      -1.202   3.146   0.050  0.00  0.00    -0.034 A 
ATOM      3  C   UNL     1      -1.200   1.746   0.021  0.00  0.00    +0.008 A 
ATOM      4  C   UNL     1      -0.012   1.075  -0.003  0.00  0.00    +0.047 A 
ATOM      5  C   UNL     1       1.192   1.799  -0.007  0.00  0.00    +0.140 A 
ATOM      6  N   UNL     1       2.351   1.137  -0.036  0.00  0.00    -0.237 NA
ATOM      7  C   UNL     1       3.508   1.767  -0.040  0.00  0.00    +0.131 A 
ATOM      8  C   UNL     1       3.538   3.168  -0.017  0.00  0.00    +0.119 A 
ATOM      9  C   UNL     1       2.309   3.870   0.013  0.00  0.00    +0.271 A 
ATOM     10  O   UNL     1       2.291   5.088   0.034  0.00  0.00    -0.266 OA
ATOM     11  N   UNL     1       1.157   3.164   0.017  0.00  0.00    -0.267 N 
ATOM     12  C   UNL     1      -0.032   3.826   0.045  0.00  0.00    +0.099 A 
ENDROOT
BRANCH   8  13
ATOM     13  C   UNL     1       4.816   3.890  -0.022  0.00  0.00    +0.251 C 
ATOM     14  O   UNL     1       5.863   3.276   0.059  0.00  0.00    -0.270 OA
ATOM     15  N   UNL     1       4.829   5.235  -0.118  0.00  0.00    -0.308 N 
ATOM     16  H   UNL     1       3.994   5.730  -0.108  0.00  0.00    +0.149 HD
BRANCH  15  17
ATOM     17  C   UNL     1       6.103   5.948  -0.236  0.00  0.00    +0.076 C 
ATOM     18  C   UNL     1       6.532   5.986  -1.704  0.00  0.00    +0.022 C 
ATOM     19  C   UNL     1       5.464   6.708  -2.529  0.00  0.00    +0.002 C 
ATOM     20  C   UNL     1       5.298   8.138  -2.009  0.00  0.00    +0.000 C 
ATOM     21  C   UNL     1       4.869   8.100  -0.540  0.00  0.00    +0.005 C 
ATOM     22  C   UNL     1       5.937   7.378   0.284  0.00  0.00    +0.006 C 
ATOM     23  C   UNL     1       5.508   7.340   1.752  0.00  0.00    +0.009 C 
ENDBRANCH  15  17
ENDBRANCH   8  13
TORSDOF 2
