REMARK  Name = ZINC21472843
REMARK  11 active torsions:
REMARK  status: ('A' for Active; 'I' for Inactive)
REMARK    1  A    between atoms: C_1  and  C_2
REMARK    2  A    between atoms: N_12  and  C_13
REMARK    3  A    between atoms: C_13  and  C_14
REMARK    4  A    between atoms: N_16  and  C_17
REMARK    5  A    between atoms: N_16  and  C_21
REMARK    6  A    between atoms: C_17  and  C_18
REMARK    7  A    between atoms: C_18  and  O_19
REMARK    8  A    between atoms: O_19  and  C_20
REMARK    9  A    between atoms: C_22  and  N_37
REMARK   10  A    between atoms: N_23  and  C_30
REMARK   11  A    between atoms: C_30  and  C_31
REMARK                            x       y       z     vdW  Elec       q    Type
REMARK                         _______ _______ _______ _____ _____    ______ ____
ROOT
ATOM      1  C   UNL     1      -1.392   0.697  -1.784  0.00  0.00    +0.237 C 
ATOM      2  O   UNL     1      -1.781   1.054  -2.876  0.00  0.00    -0.274 OA
ATOM      3  N   UNL     1      -0.517   1.461  -1.097  0.00  0.00    -0.261 N 
ENDROOT
BRANCH   3   4
ATOM      4  C   UNL     1      -0.137   2.724  -1.599  0.00  0.00    +0.140 A 
ATOM      5  C   UNL     1       1.162   2.955  -2.005  0.00  0.00    +0.128 A 
ATOM      6  N   UNL     1       1.503   4.196  -2.490  0.00  0.00    -0.276 N 
ATOM      7  C   UNL     1       0.581   5.173  -2.569  0.00  0.00    +0.331 A 
ATOM      8  O   UNL     1       0.902   6.263  -3.001  0.00  0.00    -0.246 OA
ATOM      9  N   UNL     1      -0.689   4.965  -2.179  0.00  0.00    -0.273 N 
ATOM     10  H   UNL     1      -1.426   5.780  -2.248  0.00  0.00    +0.173 HD
ATOM     11  C   UNL     1      -1.076   3.767  -1.701  0.00  0.00    +0.277 A 
ATOM     12  O   UNL     1      -2.232   3.588  -1.355  0.00  0.00    -0.266 OA
BRANCH   5  13
ATOM     13  N   UNL     1       2.104   1.957  -1.925  0.00  0.00    -0.343 N 
ATOM     14  H   UNL     1       3.137   2.149  -2.249  0.00  0.00    +0.144 HD
ATOM     15  H   UNL     1       1.824   0.967  -1.536  0.00  0.00    +0.144 HD
ENDBRANCH   5  13
BRANCH   6  16
ATOM     16  C   UNL     1       2.878   4.456  -2.924  0.00  0.00    +0.163 C 
BRANCH  16  17
ATOM     17  C   UNL     1       3.014   4.122  -4.387  0.00  0.00    -0.028 A 
ATOM     18  C   UNL     1       3.384   2.848  -4.774  0.00  0.00    +0.005 A 
ATOM     19  C   UNL     1       3.504   2.541  -6.117  0.00  0.00    +0.000 A 
ATOM     20  C   UNL     1       3.264   3.511  -7.072  0.00  0.00    +0.000 A 
ATOM     21  C   UNL     1       2.900   4.787  -6.685  0.00  0.00    +0.000 A 
ATOM     22  C   UNL     1       2.775   5.093  -5.342  0.00  0.00    +0.005 A 
ENDBRANCH  16  17
ENDBRANCH   6  16
ENDBRANCH   3   4
BRANCH   1  23
ATOM     23  C   UNL     1      -1.885  -0.599  -1.194  0.00  0.00    +0.201 C 
BRANCH  23  34
ATOM     24  C   UNL     1      -0.883  -2.719  -2.877  0.00  0.00    +0.028 C 
ATOM     25  C   UNL     1      -1.958  -1.730  -3.329  0.00  0.00    +0.071 C 
ATOM     26  C   UNL     1      -2.903  -2.416  -4.324  0.00  0.00    +0.027 C 
ATOM     27  C   UNL     1      -3.835  -1.349  -4.902  0.00  0.00    +0.039 C 
ATOM     28  C   UNL     1      -4.392  -0.503  -3.786  0.00  0.00    -0.026 A 
ATOM     29  C   UNL     1      -5.490   0.298  -4.058  0.00  0.00    +0.005 A 
ATOM     30  C   UNL     1      -6.032   1.102  -3.075  0.00  0.00    +0.000 A 
ATOM     31  C   UNL     1      -5.477   1.111  -1.808  0.00  0.00    +0.002 A 
ATOM     32  C   UNL     1      -4.386   0.316  -1.530  0.00  0.00    +0.023 A 
ATOM     33  C   UNL     1      -3.836  -0.502  -2.519  0.00  0.00    +0.034 A 
ATOM     34  N   UNL     1      -2.738  -1.288  -2.172  0.00  0.00    -0.318 N 
ENDBRANCH  23  34
ENDBRANCH   1  23
BRANCH   3  35
ATOM     35  C   UNL     1       0.037   0.980   0.171  0.00  0.00    +0.142 C 
BRANCH  35  36
ATOM     36  C   UNL     1      -0.778   1.551   1.334  0.00  0.00    +0.178 C 
BRANCH  36  37
ATOM     37  O   UNL     1      -2.109   1.034   1.282  0.00  0.00    -0.381 OA
ATOM     38  C   UNL     1      -2.958   1.507   2.330  0.00  0.00    +0.194 C 
ENDBRANCH  36  37
ENDBRANCH  35  36
ENDBRANCH   3  35
TORSDOF 9
