REMARK  Name = ZINC15356871
REMARK  9 active torsions:
REMARK  status: ('A' for Active; 'I' for Inactive)
REMARK    1  A    between atoms: C_3  and  C_6
REMARK    2  A    between atoms: C_6  and  O_7
REMARK    3  A    between atoms: O_7  and  C_8
REMARK    4  A    between atoms: C_13  and  C_14
REMARK    5  A    between atoms: C_14  and  N_44
REMARK    6  A    between atoms: C_15  and  C_16
REMARK    7  A    between atoms: C_15  and  N_44
REMARK    8  A    between atoms: C_16  and  N_17
REMARK    9  A    between atoms: C_18  and  C_20
REMARK                            x       y       z     vdW  Elec       q    Type
REMARK                         _______ _______ _______ _____ _____    ______ ____
ROOT
ATOM      1  N   UNL     1      -1.679   3.875  -3.189  0.00  0.00    +0.383 N 
ATOM      2  H   UNL     1      -1.076   4.208  -3.950  0.00  0.00    -0.085 HD
ATOM      3  H   UNL     1      -1.169   3.926  -2.300  0.00  0.00    -0.085 HD
ENDROOT
BRANCH   1   4
ATOM      4  C   UNL     1      -2.062   2.474  -3.451  0.00  0.00    -0.043 C 
BRANCH   4  10
ATOM      5  C   UNL     1      -0.194   1.208  -2.360  0.00  0.00    +0.122 A 
ATOM      6  C   UNL     1       0.948   0.423  -2.431  0.00  0.00    +0.047 A 
ATOM      7  C   UNL     1       1.465   0.067  -3.661  0.00  0.00    +0.019 A 
ATOM      8  C   UNL     1       0.844   0.491  -4.822  0.00  0.00    +0.018 A 
ATOM      9  C   UNL     1      -0.295   1.274  -4.754  0.00  0.00    +0.020 A 
ATOM     10  C   UNL     1      -0.818   1.628  -3.525  0.00  0.00    -0.022 A 
ATOM     11 BR   UNL     1       1.553   0.002  -6.505  0.00  0.00    -0.050 Br
BRANCH   5  12
ATOM     12  O   UNL     1      -0.704   1.559  -1.150  0.00  0.00    -0.487 OA
BRANCH  12  13
ATOM     13  C   UNL     1      -0.013   1.086   0.008  0.00  0.00    +0.271 C 
BRANCH  13  16
ATOM     14  C   UNL     1      -2.214   1.616   3.071  0.00  0.00    +0.008 A 
ATOM     15  C   UNL     1      -1.714   0.979   1.951  0.00  0.00    +0.014 A 
ATOM     16  C   UNL     1      -0.718   1.572   1.248  0.00  0.00    +0.027 A 
ATOM     17  S   UNL     1      -0.454   3.074   2.176  0.00  0.00    -0.098 S 
ATOM     18  C   UNL     1      -1.694   2.814   3.433  0.00  0.00    +0.045 A 
ENDBRANCH  13  16
ENDBRANCH  12  13
ENDBRANCH   5  12
ENDBRANCH   4  10
ENDBRANCH   1   4
BRANCH   1  19
ATOM     19  C   UNL     1      -2.880   4.728  -3.111  0.00  0.00    -0.063 C 
BRANCH  19  20
ATOM     20  C   UNL     1      -2.453   6.172  -2.840  0.00  0.00    +0.085 C 
BRANCH  20  21
ATOM     21  N   UNL     1      -3.640   7.026  -2.761  0.00  0.00    -0.312 N 
ATOM     22  C   UNL     1      -3.506   8.347  -2.527  0.00  0.00    +0.269 C 
ATOM     23  O   UNL     1      -2.400   8.829  -2.382  0.00  0.00    -0.268 OA
ATOM     24  H   UNL     1      -4.523   6.641  -2.877  0.00  0.00    +0.149 HD
BRANCH  22  25
ATOM     25  C   UNL     1      -4.706   9.211  -2.448  0.00  0.00    +0.209 A 
ATOM     26  C   UNL     1      -4.784  10.669  -2.203  0.00  0.00    +0.192 A 
ATOM     27  N   UNL     1      -6.077  10.896  -2.238  0.00  0.00    -0.033 NA
ATOM     28  O   UNL     1      -6.662   9.859  -2.449  0.00  0.00    -0.240 OA
ATOM     29  N   UNL     1      -5.971   8.876  -2.583  0.00  0.00    -0.042 NA
ATOM     30  N   UNL     1      -3.750  11.570  -1.989  0.00  0.00    -0.339 N 
ATOM     31  H   UNL     1      -2.830  11.262  -1.990  0.00  0.00    +0.144 HD
ATOM     32  H   UNL     1      -3.947  12.508  -1.840  0.00  0.00    +0.144 HD
ENDBRANCH  22  25
ENDBRANCH  20  21
ENDBRANCH  19  20
ENDBRANCH   1  19
TORSDOF 9
