REMARK  Name = ZINC63279937
REMARK  12 active torsions:
REMARK  status: ('A' for Active; 'I' for Inactive)
REMARK    1  A    between atoms: C_1  and  O_2
REMARK    2  A    between atoms: O_2  and  C_3
REMARK    3  A    between atoms: C_5  and  C_13
REMARK    4  A    between atoms: C_7  and  O_11
REMARK    5  A    between atoms: C_8  and  O_9
REMARK    6  A    between atoms: O_9  and  C_10
REMARK    7  A    between atoms: O_11  and  C_12
REMARK    8  A    between atoms: C_16  and  C_20
REMARK    9  A    between atoms: C_20  and  C_21
REMARK   10  A    between atoms: N_23  and  C_24
REMARK   11  A    between atoms: C_24  and  C_25
REMARK   12  A    between atoms: C_25  and  C_26
REMARK                            x       y       z     vdW  Elec       q    Type
REMARK                         _______ _______ _______ _____ _____    ______ ____
ROOT
ATOM      1  C   UNL     1      -4.871   0.264   0.038  0.00  0.00    +0.143 C 
ATOM      2  N   UNL     1      -5.964  -0.493   0.688  0.00  0.00    -0.297 NA
ATOM      3  C   UNL     1      -7.061  -0.910  -0.188  0.00  0.00    +0.073 C 
ATOM      4  C   UNL     1      -7.271   0.117  -1.339  0.00  0.00    +0.090 C 
ATOM      5  S   UNL     1      -5.494   0.519  -1.677  0.00  0.00    -0.136 S 
ATOM      6  H   UNL     1      -5.601  -1.276   1.210  0.00  0.00    +0.124 HD
ENDROOT
BRANCH   1   9
ATOM      7  C   UNL     1      -1.201  -0.638   0.010  0.00  0.00    +0.166 A 
ATOM      8  C   UNL     1      -2.375   0.101   0.019  0.00  0.00    +0.055 A 
ATOM      9  C   UNL     1      -3.598  -0.543   0.028  0.00  0.00    -0.013 A 
ATOM     10  C   UNL     1      -3.657  -1.924   0.027  0.00  0.00    +0.055 A 
ATOM     11  C   UNL     1      -2.488  -2.670   0.017  0.00  0.00    +0.166 A 
ATOM     12  C   UNL     1      -1.256  -2.027   0.003  0.00  0.00    +0.204 A 
BRANCH   7  14
ATOM     13  C   UNL     1      -0.017   1.425   0.010  0.00  0.00    +0.277 C 
ATOM     14  O   UNL     1       0.002  -0.004   0.002  0.00  0.00    -0.491 OA
ENDBRANCH   7  14
BRANCH  12  15
ATOM     15  O   UNL     1      -0.106  -2.755  -0.012  0.00  0.00    -0.488 OA
ATOM     16  C   UNL     1       0.454  -3.109   1.254  0.00  0.00    +0.277 C 
ENDBRANCH  12  15
BRANCH  11  17
ATOM     17  O   UNL     1      -2.547  -4.028   0.017  0.00  0.00    -0.491 OA
ATOM     18  C   UNL     1      -3.847  -4.621   0.026  0.00  0.00    +0.277 C 
ENDBRANCH  11  17
ENDBRANCH   1   9
BRANCH   3  19
ATOM     19  C   UNL     1      -8.348  -1.016   0.632  0.00  0.00    +0.115 C 
BRANCH  19  20
ATOM     20  C   UNL     1      -8.219  -2.141   1.627  0.00  0.00    +0.215 C 
ATOM     21  O   UNL     1      -7.199  -2.794   1.675  0.00  0.00    -0.276 OA
ATOM     22  N   UNL     1      -9.239  -2.421   2.463  0.00  0.00    -0.315 N 
ATOM     23  H   UNL     1     -10.055  -1.898   2.425  0.00  0.00    +0.149 HD
BRANCH  22  24
ATOM     24  C   UNL     1      -9.113  -3.514   3.430  0.00  0.00    +0.108 C 
BRANCH  24  25
ATOM     25  C   UNL     1     -10.400  -3.620   4.250  0.00  0.00    +0.052 C 
BRANCH  25  26
ATOM     26  C   UNL     1     -10.272  -4.745   5.245  0.00  0.00    -0.040 C 
ATOM     27  C   UNL     1      -9.889  -4.646   6.538  0.00  0.00    +0.000 A 
ATOM     28  C   UNL     1      -9.493  -3.507   7.374  0.00  0.00    +0.030 A 
ATOM     29  C   UNL     1      -9.154  -3.727   8.666  0.00  0.00    +0.042 A 
ATOM     30  C   UNL     1      -9.171  -5.014   9.224  0.00  0.00    +0.022 A 
ATOM     31  C   UNL     1      -9.524  -6.109   8.519  0.00  0.00    +0.027 A 
ATOM     32  C   UNL     1      -9.900  -5.994   7.152  0.00  0.00    +0.043 A 
ATOM     33  N   UNL     1     -10.274  -6.890   6.271  0.00  0.00    -0.380 N 
ATOM     34  C   UNL     1     -10.550  -6.211   5.000  0.00  0.00    +0.144 C 
ATOM     35 CL   UNL     1      -8.684  -2.381   9.658  0.00  0.00    -0.084 Cl
ATOM     36  H   UNL     1     -10.359  -7.843   6.434  0.00  0.00    +0.160 HD
ENDBRANCH  25  26
ENDBRANCH  24  25
ENDBRANCH  22  24
ENDBRANCH  19  20
ENDBRANCH   3  19
TORSDOF 9
