REMARK  Name = ZINC13471546
REMARK  7 active torsions:
REMARK  status: ('A' for Active; 'I' for Inactive)
REMARK    1  A    between atoms: C_1  and  C_2
REMARK    2  A    between atoms: C_2  and  N_3
REMARK    3  A    between atoms: C_10  and  C_22
REMARK    4  A    between atoms: C_12  and  C_18
REMARK    5  A    between atoms: C_12  and  C_20
REMARK    6  A    between atoms: C_13  and  N_17
REMARK    7  A    between atoms: C_14  and  C_15
REMARK                            x       y       z     vdW  Elec       q    Type
REMARK                         _______ _______ _______ _____ _____    ______ ____
ROOT
ATOM      1  N   UNL     1      -0.234   2.158  -3.223  0.00  0.00    -0.298 NA
ATOM      2  C   UNL     1       0.422   3.431  -3.575  0.00  0.00    +0.112 C 
ATOM      3  C   UNL     1       0.806   4.117  -2.287  0.00  0.00    -0.007 C 
ATOM      4  C   UNL     1       0.051   3.975  -1.214  0.00  0.00    -0.026 C 
ATOM      5  C   UNL     1      -1.232   3.192  -1.215  0.00  0.00    +0.044 C 
ATOM      6  C   UNL     1      -1.475   2.416  -2.488  0.00  0.00    +0.093 C 
ATOM      7  C   UNL     1      -1.239   2.291   0.021  0.00  0.00    +0.071 C 
ATOM      8  C   UNL     1      -1.227   3.168   1.273  0.00  0.00    +0.188 C 
ATOM      9  C   UNL     1      -0.142   4.201   1.220  0.00  0.00    +0.054 C 
ATOM     10  C   UNL     1       0.458   4.600   0.069  0.00  0.00    +0.074 C 
ENDROOT
BRANCH   7  11
ATOM     11  C   UNL     1      -0.017   1.410   0.010  0.00  0.00    -0.003 A 
ATOM     12  C   UNL     1       0.002  -0.004   0.002  0.00  0.00    +0.045 A 
ATOM     13  C   UNL     1       1.295  -0.376  -0.012  0.00  0.00    +0.195 A 
ATOM     14  O   UNL     1       2.055   0.731  -0.014  0.00  0.00    -0.471 OA
ATOM     15  C   UNL     1       1.265   1.817  -0.000  0.00  0.00    +0.198 A 
ENDBRANCH   7  11
BRANCH   9  16
ATOM     16  N   UNL     1       0.264   4.772   2.393  0.00  0.00    -0.358 N 
ATOM     17  H   UNL     1       1.058   5.534   2.387  0.00  0.00    +0.142 HD
ATOM     18  H   UNL     1      -0.202   4.471   3.342  0.00  0.00    +0.142 HD
ENDBRANCH   9  16
BRANCH   1  20
ATOM     19  C   UNL     1       0.841   0.892  -5.022  0.00  0.00    +0.020 C 
ATOM     20  C   UNL     1      -0.490   1.349  -4.422  0.00  0.00    +0.081 C 
ENDBRANCH   1  20
BRANCH  10  21
ATOM     21  C   UNL     1       1.472   5.612   0.093  0.00  0.00    +0.101 C 
ATOM     22  N   UNL     1       2.276   6.414   0.112  0.00  0.00    -0.191 NA
ENDBRANCH  10  21
BRANCH   8  23
ATOM     23  C   UNL     1      -2.528   3.845   1.397  0.00  0.00    +0.091 C 
ATOM     24  N   UNL     1      -3.532   4.368   1.492  0.00  0.00    -0.194 NA
ENDBRANCH   8  23
BRANCH   8  25
ATOM     25  C   UNL     1      -1.019   2.315   2.454  0.00  0.00    +0.091 C 
ATOM     26  N   UNL     1      -0.858   1.656   3.366  0.00  0.00    -0.194 NA
ENDBRANCH   8  25
TORSDOF 6
