REMARK  Name = ZINC37162669
REMARK  5 active torsions:
REMARK  status: ('A' for Active; 'I' for Inactive)
REMARK    1  A    between atoms: C_3  and  N_11
REMARK    2  A    between atoms: C_4  and  N_8
REMARK    3  A    between atoms: C_6  and  O_7
REMARK    4  A    between atoms: N_11  and  C_12
REMARK    5  A    between atoms: C_12  and  C_13
REMARK                            x       y       z     vdW  Elec       q    Type
REMARK                         _______ _______ _______ _____ _____    ______ ____
ROOT
ATOM      1  C   UNL     1      -0.001   1.378  -0.216  0.00  0.00    +0.047 A 
ATOM      2  C   UNL     1       1.197   2.063  -0.276  0.00  0.00    +0.029 A 
ATOM      3  C   UNL     1       2.393   1.390  -0.066  0.00  0.00    +0.058 A 
ATOM      4  C   UNL     1       2.383   0.027   0.205  0.00  0.00    +0.150 A 
ATOM      5  C   UNL     1       1.185  -0.656   0.265  0.00  0.00    +0.080 A 
ATOM      6  C   UNL     1      -0.009   0.018   0.055  0.00  0.00    +0.119 A 
ENDROOT
BRANCH   4   7
ATOM      7  N   UNL     1       3.657  -0.692   0.428  0.00  0.00    +0.058 N 
ATOM      8  O   UNL     1       3.797  -1.818   0.010  0.00  0.00    -0.126 OA
ATOM      9  O   UNL     1       4.558  -0.154   1.029  0.00  0.00    -0.126 OA
ENDBRANCH   4   7
BRANCH   6  10
ATOM     10  O   UNL     1      -1.189  -0.655   0.115  0.00  0.00    -0.507 OA
ATOM     11  H   UNL     1      -1.476  -1.023  -0.733  0.00  0.00    +0.292 HD
ENDBRANCH   6  10
BRANCH   3  12
ATOM     12  N   UNL     1       3.607   2.083  -0.128  0.00  0.00    -0.337 N 
ATOM     13  H   UNL     1       4.446   1.599  -0.066  0.00  0.00    +0.146 HD
BRANCH  12  14
ATOM     14  C   UNL     1       3.612   3.539  -0.285  0.00  0.00    +0.144 C 
BRANCH  14  15
ATOM     15  C   UNL     1       5.034   4.035  -0.324  0.00  0.00    +0.008 A 
ATOM     16  C   UNL     1       5.849   4.208  -1.392  0.00  0.00    +0.014 A 
ATOM     17  C   UNL     1       7.132   4.681  -1.188  0.00  0.00    +0.023 A 
ATOM     18  C   UNL     1       7.537   4.958   0.077  0.00  0.00    +0.055 A 
ATOM     19  S   UNL     1       6.080   4.556   1.027  0.00  0.00    -0.085 S 
ATOM     20 BR   UNL     1       9.208   5.610   0.677  0.00  0.00    -0.043 Br
ENDBRANCH  14  15
ENDBRANCH  12  14
ENDBRANCH   3  12
TORSDOF 5
