REMARK  Name = ZINC39634999
REMARK  7 active torsions:
REMARK  status: ('A' for Active; 'I' for Inactive)
REMARK    1  A    between atoms: C_1  and  O_2
REMARK    2  A    between atoms: O_2  and  C_3
REMARK    3  A    between atoms: C_6  and  C_9
REMARK    4  A    between atoms: C_9  and  C_10
REMARK    5  A    between atoms: C_10  and  N_11
REMARK    6  A    between atoms: C_12  and  C_14
REMARK    7  A    between atoms: C_25  and  C_27
REMARK                            x       y       z     vdW  Elec       q    Type
REMARK                         _______ _______ _______ _____ _____    ______ ____
ROOT
ATOM      1  C   UNL     1       6.458  -4.712  -5.758  0.00  0.00    +0.100 C 
ATOM      2  C   UNL     1       5.961  -6.078  -6.280  0.00  0.00    +0.121 C 
ATOM      3  N   UNL     1       7.188  -6.777  -6.730  0.00  0.00    -0.296 N 
ATOM      4  C   UNL     1       8.206  -6.426  -5.711  0.00  0.00    +0.115 C 
ATOM      5  C   UNL     1       7.932  -4.944  -5.385  0.00  0.00    -0.004 C 
ATOM      6  C   UNL     1       8.148  -4.684  -3.897  0.00  0.00    -0.010 C 
ATOM      7  C   UNL     1       9.631  -4.864  -3.561  0.00  0.00    -0.082 C 
ATOM      8  N   UNL     1      10.433  -3.933  -4.363  0.00  0.00    +0.379 N 
ATOM      9  C   UNL     1      10.293  -4.251  -5.789  0.00  0.00    -0.082 C 
ATOM     10  C   UNL     1       8.838  -4.044  -6.219  0.00  0.00    -0.010 C 
ATOM     11  C   UNL     1       7.344  -7.554  -7.819  0.00  0.00    +0.247 C 
ATOM     12  O   UNL     1       6.447  -7.645  -8.634  0.00  0.00    -0.270 OA
ATOM     13  H   UNL     1      10.116  -2.989  -4.197  0.00  0.00    -0.086 HD
ATOM     14  H   UNL     1      11.403  -4.011  -4.096  0.00  0.00    -0.086 HD
ENDROOT
BRANCH  11  15
ATOM     15  C   UNL     1       8.605  -8.297  -8.023  0.00  0.00    +0.037 A 
ATOM     16  C   UNL     1       9.448  -8.556  -6.941  0.00  0.00    +0.014 A 
ATOM     17  C   UNL     1      10.624  -9.250  -7.137  0.00  0.00    +0.016 A 
ATOM     18  C   UNL     1      10.969  -9.689  -8.405  0.00  0.00    +0.018 A 
ATOM     19  C   UNL     1      10.137  -9.435  -9.482  0.00  0.00    +0.016 A 
ATOM     20  C   UNL     1       8.956  -8.747  -9.297  0.00  0.00    +0.014 A 
ATOM     21 BR   UNL     1      12.584 -10.638  -8.665  0.00  0.00    -0.050 Br
ENDBRANCH  11  15
BRANCH   1  23
ATOM     22  N   UNL     1       5.474  -2.986  -4.284  0.00  0.00    -0.315 N 
ATOM     23  C   UNL     1       5.669  -4.295  -4.544  0.00  0.00    +0.218 C 
ATOM     24  O   UNL     1       5.209  -5.136  -3.802  0.00  0.00    -0.275 OA
ATOM     25  H   UNL     1       5.843  -2.314  -4.878  0.00  0.00    +0.149 HD
BRANCH  22  26
ATOM     26  C   UNL     1       4.707  -2.581  -3.104  0.00  0.00    +0.109 C 
BRANCH  26  27
ATOM     27  C   UNL     1       4.635  -1.054  -3.042  0.00  0.00    +0.054 C 
BRANCH  27  31
ATOM     28  C   UNL     1       2.396   0.129   0.401  0.00  0.00    +0.120 A 
ATOM     29  C   UNL     1       3.770  -0.042   0.490  0.00  0.00    +0.046 A 
ATOM     30  C   UNL     1       4.492  -0.425  -0.624  0.00  0.00    +0.007 A 
ATOM     31  C   UNL     1       3.846  -0.637  -1.828  0.00  0.00    -0.046 A 
ATOM     32  C   UNL     1       2.477  -0.466  -1.920  0.00  0.00    +0.007 A 
ATOM     33  C   UNL     1       1.750  -0.089  -0.807  0.00  0.00    +0.046 A 
BRANCH  28  35
ATOM     34  C   UNL     1       2.416   0.713   2.705  0.00  0.00    +0.277 C 
ATOM     35  O   UNL     1       1.684   0.505   1.495  0.00  0.00    -0.495 OA
ENDBRANCH  28  35
ENDBRANCH  27  31
ENDBRANCH  26  27
ENDBRANCH  22  26
ENDBRANCH   1  23
TORSDOF 6
