REMARK  Name = ZINC51097856
REMARK  8 active torsions:
REMARK  status: ('A' for Active; 'I' for Inactive)
REMARK    1  A    between atoms: C_1  and  C_2
REMARK    2  A    between atoms: C_5  and  C_7
REMARK    3  A    between atoms: N_9  and  C_10
REMARK    4  A    between atoms: N_13  and  C_16
REMARK    5  A    between atoms: C_16  and  C_18
REMARK    6  A    between atoms: C_16  and  C_19
REMARK    7  A    between atoms: C_19  and  C_21
REMARK    8  A    between atoms: C_22  and  C_31
REMARK                            x       y       z     vdW  Elec       q    Type
REMARK                         _______ _______ _______ _____ _____    ______ ____
ROOT
ATOM      1  C   UNL     1       4.878  -3.193  -0.692  0.00  0.00    +0.070 C 
ATOM      2  C   UNL     1       4.581  -3.855   0.656  0.00  0.00    +0.004 C 
ATOM      3  C   UNL     1       5.231  -5.240   0.693  0.00  0.00    -0.076 C 
ATOM      4  N   UNL     1       6.682  -5.108   0.521  0.00  0.00    +0.386 N 
ATOM      5  C   UNL     1       6.978  -4.540  -0.799  0.00  0.00    -0.076 C 
ATOM      6  C   UNL     1       6.395  -3.128  -0.894  0.00  0.00    +0.004 C 
ATOM      7  H   UNL     1       7.051  -4.500   1.238  0.00  0.00    -0.081 HD
ENDROOT
BRANCH   1  10
ATOM      8  C   UNL     1       3.035  -1.640  -1.049  0.00  0.00    +0.280 C 
ATOM      9  O   UNL     1       2.333  -2.588  -1.347  0.00  0.00    -0.267 OA
ATOM     10  N   UNL     1       4.324  -1.838  -0.706  0.00  0.00    -0.306 N 
ATOM     11  H   UNL     1       4.883  -1.082  -0.468  0.00  0.00    +0.149 HD
BRANCH   8  16
ATOM     12  C   UNL     1       2.687   3.337  -0.619  0.00  0.00    +0.086 C 
ATOM     13  C   UNL     1       2.321   1.897  -0.875  0.00  0.00    +0.103 A 
ATOM     14  C   UNL     1       1.106   1.452  -1.266  0.00  0.00    +0.045 A 
ATOM     15  C   UNL     1       1.198   0.057  -1.388  0.00  0.00    +0.055 A 
ATOM     16  C   UNL     1       2.480  -0.283  -1.062  0.00  0.00    +0.189 A 
ATOM     17  O   UNL     1       3.147   0.850  -0.758  0.00  0.00    -0.455 OA
ENDBRANCH   8  16
ENDBRANCH   1  10
BRANCH   4  18
ATOM     18  C   UNL     1       7.310  -6.431   0.635  0.00  0.00    +0.001 C 
ATOM     19  C   UNL     1       7.011  -7.020   2.015  0.00  0.00    -0.005 C 
BRANCH  18  20
ATOM     20  C   UNL     1       8.800  -6.297   0.459  0.00  0.00    +0.152 C 
ATOM     21  O   UNL     1       9.342  -5.229   0.660  0.00  0.00    -0.294 OA
BRANCH  20  22
ATOM     22  C   UNL     1       9.570  -7.418   0.059  0.00  0.00    +0.044 A 
ATOM     23  C   UNL     1       9.792  -7.851  -1.231  0.00  0.00    +0.024 A 
ATOM     24  N   UNL     1      10.574  -8.948  -1.211  0.00  0.00    -0.358 N 
ATOM     25  H   UNL     1      10.865  -9.432  -2.000  0.00  0.00    +0.166 HD
ATOM     26  C   UNL     1      10.904  -9.289   0.085  0.00  0.00    +0.047 A 
ATOM     27  C   UNL     1      10.302  -8.351   0.938  0.00  0.00    +0.010 A 
ATOM     28  C   UNL     1      10.473  -8.448   2.316  0.00  0.00    +0.011 A 
ATOM     29  C   UNL     1      11.239  -9.467   2.838  0.00  0.00    +0.001 A 
ATOM     30  C   UNL     1      11.838 -10.393   1.997  0.00  0.00    +0.002 A 
ATOM     31  C   UNL     1      11.670 -10.313   0.631  0.00  0.00    +0.026 A 
ATOM     32  C   UNL     1       9.243  -7.199  -2.473  0.00  0.00    +0.064 C 
ENDBRANCH  20  22
ENDBRANCH  18  20
ENDBRANCH   4  18
TORSDOF 5
