REMARK  Name = ZINC39674722
REMARK  8 active torsions:
REMARK  status: ('A' for Active; 'I' for Inactive)
REMARK    1  A    between atoms: C_1  and  C_2
REMARK    2  A    between atoms: C_4  and  C_14
REMARK    3  A    between atoms: C_7  and  C_12
REMARK    4  A    between atoms: C_14  and  C_15
REMARK    5  A    between atoms: C_15  and  N_16
REMARK    6  A    between atoms: C_17  and  C_19
REMARK    7  A    between atoms: C_30  and  C_32
REMARK    8  A    between atoms: C_32  and  C_38
REMARK                            x       y       z     vdW  Elec       q    Type
REMARK                         _______ _______ _______ _____ _____    ______ ____
ROOT
ATOM      1  C   UNL     1      -7.627  -0.918  -2.937  0.00  0.00    +0.100 C 
ATOM      2  C   UNL     1      -6.881  -1.547  -4.135  0.00  0.00    +0.121 C 
ATOM      3  N   UNL     1      -7.360  -2.948  -4.181  0.00  0.00    -0.300 N 
ATOM      4  C   UNL     1      -8.805  -2.854  -3.863  0.00  0.00    +0.115 C 
ATOM      5  C   UNL     1      -8.891  -1.776  -2.764  0.00  0.00    -0.004 C 
ATOM      6  C   UNL     1     -10.140  -0.922  -2.957  0.00  0.00    -0.010 C 
ATOM      7  C   UNL     1     -11.384  -1.784  -2.723  0.00  0.00    -0.082 C 
ATOM      8  N   UNL     1     -11.349  -2.336  -1.363  0.00  0.00    +0.379 N 
ATOM      9  C   UNL     1     -10.195  -3.231  -1.214  0.00  0.00    -0.082 C 
ATOM     10  C   UNL     1      -8.901  -2.429  -1.385  0.00  0.00    -0.010 C 
ATOM     11  C   UNL     1      -6.644  -4.058  -4.451  0.00  0.00    +0.222 C 
ATOM     12  O   UNL     1      -5.444  -3.982  -4.606  0.00  0.00    -0.275 OA
ATOM     13  H   UNL     1     -11.277  -1.582  -0.697  0.00  0.00    -0.086 HD
ATOM     14  H   UNL     1     -12.198  -2.853  -1.190  0.00  0.00    -0.086 HD
ENDROOT
BRANCH  11  15
ATOM     15  C   UNL     1      -7.336  -5.392  -4.560  0.00  0.00    +0.044 C 
ATOM     16  C   UNL     1      -8.499  -5.285  -5.548  0.00  0.00    +0.016 C 
ATOM     17  C   UNL     1      -7.965  -4.872  -6.921  0.00  0.00    +0.001 C 
ATOM     18  C   UNL     1      -6.970  -5.923  -7.418  0.00  0.00    +0.000 C 
ATOM     19  C   UNL     1      -5.807  -6.031  -6.430  0.00  0.00    +0.001 C 
ATOM     20  C   UNL     1      -6.341  -6.443  -5.057  0.00  0.00    +0.016 C 
ATOM     21  C   UNL     1      -7.869  -5.804  -3.187  0.00  0.00    +0.021 C 
ENDBRANCH  11  15
BRANCH   1  23
ATOM     22  N   UNL     1      -6.903  -0.042  -0.739  0.00  0.00    -0.315 N 
ATOM     23  C   UNL     1      -6.774  -0.983  -1.696  0.00  0.00    +0.218 C 
ATOM     24  O   UNL     1      -5.972  -1.882  -1.558  0.00  0.00    -0.275 OA
ATOM     25  H   UNL     1      -7.545   0.677  -0.850  0.00  0.00    +0.149 HD
BRANCH  22  26
ATOM     26  C   UNL     1      -6.075  -0.105   0.467  0.00  0.00    +0.108 C 
BRANCH  26  27
ATOM     27  C   UNL     1      -6.417   1.072   1.383  0.00  0.00    +0.052 C 
BRANCH  27  30
ATOM     28  C   UNL     1      -6.961   1.985   4.445  0.00  0.00    +0.035 C 
ATOM     29  C   UNL     1      -5.579   1.971   3.788  0.00  0.00    +0.103 C 
ATOM     30  C   UNL     1      -5.565   1.007   2.624  0.00  0.00    -0.037 C 
ATOM     31  C   UNL     1      -4.629   0.070   2.924  0.00  0.00    +0.000 A 
ATOM     32  C   UNL     1      -4.176  -1.076   2.218  0.00  0.00    +0.028 A 
ATOM     33  C   UNL     1      -3.195  -1.875   2.758  0.00  0.00    +0.052 A 
ATOM     34  C   UNL     1      -2.599  -1.572   4.054  0.00  0.00    +0.021 A 
ATOM     35  C   UNL     1      -2.989  -0.497   4.769  0.00  0.00    +0.027 A 
ATOM     36  C   UNL     1      -4.033   0.388   4.240  0.00  0.00    +0.043 A 
ATOM     37  N   UNL     1      -4.574   1.476   4.735  0.00  0.00    -0.378 N 
ATOM     38  H   UNL     1      -4.349   1.885   5.586  0.00  0.00    +0.160 HD
BRANCH  33  39
ATOM     39  C   UNL     1      -2.751  -3.027   2.032  0.00  0.00    +0.099 C 
ATOM     40  N   UNL     1      -2.398  -3.941   1.457  0.00  0.00    -0.191 NA
ENDBRANCH  33  39
ENDBRANCH  27  30
ENDBRANCH  26  27
ENDBRANCH  22  26
ENDBRANCH   1  23
TORSDOF 6
