REMARK  Name = ZINC57341197
REMARK  7 active torsions:
REMARK  status: ('A' for Active; 'I' for Inactive)
REMARK    1  A    between atoms: C_1  and  C_2
REMARK    2  A    between atoms: C_2  and  C_3
REMARK    3  A    between atoms: C_4  and  C_25
REMARK    4  A    between atoms: C_8  and  C_20
REMARK    5  A    between atoms: C_11  and  S_12
REMARK    6  A    between atoms: S_12  and  C_13
REMARK    7  A    between atoms: C_18  and  N_19
REMARK                            x       y       z     vdW  Elec       q    Type
REMARK                         _______ _______ _______ _____ _____    ______ ____
ROOT
ATOM      1  C   UNL     1       0.773  -0.824  -1.596  0.00  0.00    +0.006 A 
ATOM      2  C   UNL     1       0.168  -1.021  -2.834  0.00  0.00    +0.048 A 
ATOM      3  N   UNL     1       0.867  -1.476  -3.854  0.00  0.00    -0.216 NA
ATOM      4  C   UNL     1       2.169  -1.760  -3.732  0.00  0.00    +0.255 A 
ATOM      5  N   UNL     1       3.066  -2.219  -4.596  0.00  0.00    -0.186 NA
ATOM      6  C   UNL     1       4.252  -2.340  -3.992  0.00  0.00    +0.219 A 
ATOM      7  N   UNL     1       4.141  -1.962  -2.732  0.00  0.00    -0.139 NA
ATOM      8  N   UNL     1       2.807  -1.582  -2.536  0.00  0.00    -0.189 N 
ATOM      9  C   UNL     1       2.119  -1.107  -1.455  0.00  0.00    +0.112 A 
ATOM     10  C   UNL     1      -1.297  -0.713  -3.008  0.00  0.00    +0.066 C 
ENDROOT
BRANCH   6  11
ATOM     11  C   UNL     1       5.493  -2.822  -4.634  0.00  0.00    +0.173 A 
ATOM     12  C   UNL     1       5.622  -3.209  -5.931  0.00  0.00    +0.053 A 
ATOM     13  C   UNL     1       6.967  -3.589  -6.109  0.00  0.00    +0.042 A 
ATOM     14  C   UNL     1       7.586  -3.417  -4.925  0.00  0.00    +0.196 A 
ATOM     15  O   UNL     1       6.694  -2.948  -4.037  0.00  0.00    -0.460 OA
ENDBRANCH   6  11
BRANCH   1  17
ATOM     16  C   UNL     1      -0.081   1.225  -0.490  0.00  0.00    +0.009 C 
ATOM     17  C   UNL     1      -0.026  -0.303  -0.429  0.00  0.00    +0.036 C 
ENDBRANCH   1  17
BRANCH   9  18
ATOM     18  S   UNL     1       2.930  -0.866   0.091  0.00  0.00    -0.068 S 
BRANCH  18  19
ATOM     19  C   UNL     1       4.077   0.434  -0.228  0.00  0.00    +0.035 A 
ATOM     20  C   UNL     1       4.076   1.077  -1.457  0.00  0.00    +0.017 A 
ATOM     21  C   UNL     1       4.976   2.096  -1.705  0.00  0.00    +0.001 A 
ATOM     22  C   UNL     1       5.879   2.479  -0.730  0.00  0.00    +0.002 A 
ATOM     23  C   UNL     1       5.887   1.844   0.498  0.00  0.00    +0.024 A 
ATOM     24  C   UNL     1       4.984   0.824   0.757  0.00  0.00    +0.039 A 
BRANCH  24  25
ATOM     25  N   UNL     1       4.987   0.184   2.002  0.00  0.00    -0.357 N 
ATOM     26  H   UNL     1       4.357  -0.532   2.180  0.00  0.00    +0.142 HD
ATOM     27  H   UNL     1       5.618   0.456   2.686  0.00  0.00    +0.142 HD
ENDBRANCH  24  25
ENDBRANCH  18  19
ENDBRANCH   9  18
TORSDOF 5
