REMARK  Name = ZINC35799532
REMARK  6 active torsions:
REMARK  status: ('A' for Active; 'I' for Inactive)
REMARK    1  A    between atoms: C_1  and  C_2
REMARK    2  A    between atoms: C_2  and  C_3
REMARK    3  A    between atoms: C_3  and  N_4
REMARK    4  A    between atoms: N_10  and  C_16
REMARK    5  A    between atoms: C_13  and  C_15
REMARK    6  A    between atoms: C_18  and  C_23
REMARK                            x       y       z     vdW  Elec       q    Type
REMARK                         _______ _______ _______ _____ _____    ______ ____
ROOT
ATOM      1  N   UNL     1       0.965  -2.045   1.061  0.00  0.00    -0.299 N 
ATOM      2  C   UNL     1       1.497  -2.690   2.119  0.00  0.00    +0.303 C 
ATOM      3  O   UNL     1       2.088  -2.064   2.978  0.00  0.00    -0.253 OA
ATOM      4  N   UNL     1       1.375  -4.028   2.224  0.00  0.00    -0.273 N 
ATOM      5  C   UNL     1       0.766  -4.829   1.148  0.00  0.00    +0.129 C 
ATOM      6  C   UNL     1       1.818  -5.812   0.633  0.00  0.00    +0.133 C 
ATOM      7  N   UNL     1       2.491  -6.477   1.740  0.00  0.00    -0.266 N 
ATOM      8  C   UNL     1       2.551  -6.001   2.985  0.00  0.00    +0.240 C 
ATOM      9  O   UNL     1       3.209  -6.606   3.804  0.00  0.00    -0.273 OA
ATOM     10  C   UNL     1       1.848  -4.748   3.416  0.00  0.00    +0.161 C 
ATOM     11  C   UNL     1       2.817  -3.861   4.200  0.00  0.00    +0.038 C 
ATOM     12  H   UNL     1       0.558  -2.550   0.340  0.00  0.00    +0.150 HD
ENDROOT
BRANCH   7  13
ATOM     13  C   UNL     1       3.118  -7.702   1.481  0.00  0.00    +0.072 A 
ATOM     14  C   UNL     1       4.448  -7.734   1.086  0.00  0.00    +0.029 A 
ATOM     15  C   UNL     1       5.064  -8.944   0.831  0.00  0.00    -0.049 A 
ATOM     16  C   UNL     1       4.357 -10.124   0.968  0.00  0.00    +0.006 A 
ATOM     17  C   UNL     1       3.031 -10.098   1.360  0.00  0.00    +0.040 A 
ATOM     18  C   UNL     1       2.410  -8.891   1.623  0.00  0.00    +0.145 A 
ATOM     19  F   UNL     1       1.116  -8.866   2.012  0.00  0.00    -0.204 F 
ATOM     20  C   UNL     1       6.508  -8.977   0.403  0.00  0.00    +0.044 C 
ENDBRANCH   7  13
BRANCH   1  21
ATOM     21  C   UNL     1       1.002  -0.582   1.001  0.00  0.00    +0.105 C 
BRANCH  21  23
ATOM     22  C   UNL     1       0.374   1.420  -0.356  0.00  0.00    +0.005 C 
ATOM     23  C   UNL     1       0.336  -0.108  -0.293  0.00  0.00    +0.015 C 
ENDBRANCH  21  23
ENDBRANCH   1  21
TORSDOF 3
