REMARK  Name = ZINC40385056
REMARK  4 active torsions:
REMARK  status: ('A' for Active; 'I' for Inactive)
REMARK    1  A    between atoms: C_6  and  S_7
REMARK    2  A    between atoms: S_7  and  N_10
REMARK    3  A    between atoms: C_14  and  S_17
REMARK    4  A    between atoms: S_17  and  N_20
REMARK                            x       y       z     vdW  Elec       q    Type
REMARK                         _______ _______ _______ _____ _____    ______ ____
ROOT
ATOM      1  N   UNL     1      -1.948  -1.147  -1.567  0.00  0.00    -0.175 NA
ATOM      2  C   UNL     1      -2.787  -0.167  -2.270  0.00  0.00    +0.109 C 
ATOM      3  C   UNL     1      -3.999  -0.892  -2.865  0.00  0.00    +0.019 C 
ATOM      4  C   UNL     1      -3.516  -2.050  -3.741  0.00  0.00    +0.030 C 
ATOM      5  C   UNL     1      -2.730  -3.046  -2.885  0.00  0.00    +0.163 C 
ATOM      6  C   UNL     1      -1.499  -2.343  -2.293  0.00  0.00    +0.137 C 
ENDROOT
BRANCH   1   7
ATOM      7  S   UNL     1      -1.512  -0.905   0.012  0.00  0.00    +0.061 S 
ATOM      8  O   UNL     1      -1.218  -2.186   0.553  0.00  0.00    -0.153 OA
ATOM      9  O   UNL     1      -2.492  -0.046   0.577  0.00  0.00    -0.153 OA
BRANCH   7  15
ATOM     10  C   UNL     1      -0.017   1.378   0.010  0.00  0.00    +0.030 A 
ATOM     11  C   UNL     1       1.171   2.086   0.002  0.00  0.00    +0.022 A 
ATOM     12  C   UNL     1       2.378   1.410  -0.013  0.00  0.00    +0.041 A 
ATOM     13  C   UNL     1       2.396   0.027  -0.021  0.00  0.00    +0.022 A 
ATOM     14  C   UNL     1       1.208  -0.679  -0.013  0.00  0.00    +0.030 A 
ATOM     15  C   UNL     1       0.002  -0.004   0.002  0.00  0.00    +0.106 A 
ATOM     16 CL   UNL     1       3.870   2.298  -0.023  0.00  0.00    -0.084 Cl
ENDBRANCH   7  15
ENDBRANCH   1   7
BRANCH   5  17
ATOM     17  S   UNL     1      -2.192  -4.438  -3.917  0.00  0.00    +0.031 S 
ATOM     18  O   UNL     1      -1.413  -3.967  -5.008  0.00  0.00    -0.158 OA
ATOM     19  O   UNL     1      -1.724  -5.501  -3.099  0.00  0.00    -0.158 OA
BRANCH  17  20
ATOM     20  N   UNL     1      -3.581  -5.017  -4.608  0.00  0.00    -0.208 NA
ATOM     21  H   UNL     1      -3.550  -5.436  -5.482  0.00  0.00    +0.144 HD
ATOM     22  H   UNL     1      -4.426  -4.938  -4.138  0.00  0.00    +0.144 HD
ENDBRANCH  17  20
ENDBRANCH   5  17
TORSDOF 4
