REMARK  Name = ZINC40340436
REMARK  15 active torsions:
REMARK  status: ('A' for Active; 'I' for Inactive)
REMARK    1  A    between atoms: C_1  and  C_2
REMARK    2  A    between atoms: C_5  and  C_8
REMARK    3  A    between atoms: N_16  and  C_30
REMARK    4  A    between atoms: C_17  and  C_19
REMARK    5  A    between atoms: C_21  and  O_28
REMARK    6  A    between atoms: C_22  and  O_27
REMARK    7  A    between atoms: C_23  and  O_25
REMARK    8  A    between atoms: O_25  and  C_26
REMARK    9  A    between atoms: O_28  and  C_29
REMARK   10  A    between atoms: C_30  and  C_31
REMARK   11  A    between atoms: C_31  and  C_32
REMARK   12  A    between atoms: C_35  and  O_40
REMARK   13  A    between atoms: C_36  and  O_38
REMARK   14  A    between atoms: O_38  and  C_39
REMARK   15  A    between atoms: O_40  and  C_41
REMARK                            x       y       z     vdW  Elec       q    Type
REMARK                         _______ _______ _______ _____ _____    ______ ____
ROOT
ATOM      1  C   UNL     1       0.059  -4.256  -0.021  0.00  0.00    +0.099 A 
ATOM      2  C   UNL     1       0.717  -5.081   0.898  0.00  0.00    +0.035 A 
ATOM      3  C   UNL     1       0.457  -6.377   0.495  0.00  0.00    +0.126 A 
ATOM      4  N   UNL     1      -0.326  -6.277  -0.621  0.00  0.00    -0.272 N 
ATOM      5  H   UNL     1      -0.669  -7.029  -1.129  0.00  0.00    +0.189 HD
ATOM      6  N   UNL     1      -0.545  -5.040  -0.893  0.00  0.00    -0.173 NA
ATOM      7  C   UNL     1       1.122  -7.297   1.423  0.00  0.00    +0.265 C 
ATOM      8  O   UNL     1       1.088  -8.510   1.343  0.00  0.00    -0.268 OA
ATOM      9  N   UNL     1       1.777  -6.609   2.376  0.00  0.00    -0.285 N 
ATOM     10  C   UNL     1       1.579  -5.175   2.127  0.00  0.00    +0.141 C 
ENDROOT
BRANCH   1  15
ATOM     11  C   UNL     1      -0.018   1.503   0.010  0.00  0.00    +0.044 C 
ATOM     12  C   UNL     1       0.002  -0.004   0.002  0.00  0.00    -0.050 A 
ATOM     13  C   UNL     1       0.006  -0.687  -1.201  0.00  0.00    +0.004 A 
ATOM     14  C   UNL     1       0.024  -2.067  -1.214  0.00  0.00    +0.010 A 
ATOM     15  C   UNL     1       0.040  -2.772  -0.013  0.00  0.00    +0.002 A 
ATOM     16  C   UNL     1       0.036  -2.080   1.196  0.00  0.00    +0.010 A 
ATOM     17  C   UNL     1       0.023  -0.700   1.198  0.00  0.00    +0.004 A 
ENDBRANCH   1  15
BRANCH  10  18
ATOM     18  C   UNL     1       2.905  -4.502   1.883  0.00  0.00    -0.015 A 
ATOM     19  C   UNL     1       3.885  -5.153   1.157  0.00  0.00    +0.055 A 
ATOM     20  C   UNL     1       5.107  -4.538   0.931  0.00  0.00    +0.165 A 
ATOM     21  C   UNL     1       5.345  -3.265   1.435  0.00  0.00    +0.201 A 
ATOM     22  C   UNL     1       4.357  -2.614   2.164  0.00  0.00    +0.165 A 
ATOM     23  C   UNL     1       3.136  -3.234   2.381  0.00  0.00    +0.055 A 
BRANCH  22  24
ATOM     24  O   UNL     1       4.586  -1.368   2.659  0.00  0.00    -0.491 OA
ATOM     25  C   UNL     1       3.526  -0.759   3.399  0.00  0.00    +0.277 C 
ENDBRANCH  22  24
BRANCH  21  26
ATOM     26  O   UNL     1       6.543  -2.658   1.215  0.00  0.00    -0.501 OA
ATOM     27  H   UNL     1       6.574  -2.128   0.407  0.00  0.00    +0.292 HD
ENDBRANCH  21  26
BRANCH  20  28
ATOM     28  O   UNL     1       6.070  -5.179   0.217  0.00  0.00    -0.491 OA
ATOM     29  C   UNL     1       5.756  -6.485  -0.270  0.00  0.00    +0.277 C 
ENDBRANCH  20  28
ENDBRANCH  10  18
BRANCH   9  30
ATOM     30  C   UNL     1       2.554  -7.189   3.474  0.00  0.00    +0.114 C 
BRANCH  30  31
ATOM     31  C   UNL     1       4.007  -7.372   3.029  0.00  0.00    +0.054 C 
BRANCH  31  32
ATOM     32  C   UNL     1       4.806  -7.969   4.159  0.00  0.00    -0.042 A 
ATOM     33  C   UNL     1       5.427  -7.143   5.077  0.00  0.00    +0.007 A 
ATOM     34  C   UNL     1       6.162  -7.686   6.114  0.00  0.00    +0.049 A 
ATOM     35  C   UNL     1       6.276  -9.062   6.236  0.00  0.00    +0.161 A 
ATOM     36  C   UNL     1       5.651  -9.893   5.312  0.00  0.00    +0.162 A 
ATOM     37  C   UNL     1       4.912  -9.342   4.277  0.00  0.00    +0.053 A 
BRANCH  36  38
ATOM     38  O   UNL     1       5.761 -11.244   5.427  0.00  0.00    -0.491 OA
ATOM     39  C   UNL     1       5.092 -12.036   4.443  0.00  0.00    +0.277 C 
ENDBRANCH  36  38
BRANCH  35  40
ATOM     40  O   UNL     1       6.999  -9.598   7.256  0.00  0.00    -0.491 OA
ATOM     41  C   UNL     1       7.614  -8.684   8.166  0.00  0.00    +0.277 C 
ENDBRANCH  35  40
ENDBRANCH  31  32
ENDBRANCH  30  31
ENDBRANCH   9  30
TORSDOF 10
