REMARK  Name = ZINC08809825
REMARK  5 active torsions:
REMARK  status: ('A' for Active; 'I' for Inactive)
REMARK    1  A    between atoms: C_1  and  C_2
REMARK    2  A    between atoms: C_5  and  N_9
REMARK    3  A    between atoms: N_22  and  N_23
REMARK    4  A    between atoms: C_24  and  C_25
REMARK    5  A    between atoms: C_30  and  O_31
REMARK                            x       y       z     vdW  Elec       q    Type
REMARK                         _______ _______ _______ _____ _____    ______ ____
ROOT
ATOM      1  N   UNL     1      -1.720   6.729  -3.665  0.00  0.00    -0.283 N 
ATOM      2  C   UNL     1      -1.362   5.407  -3.844  0.00  0.00    +0.225 A 
ATOM      3  N   UNL     1      -2.031   4.648  -4.707  0.00  0.00    -0.179 NA
ATOM      4  C   UNL     1      -1.686   3.375  -4.880  0.00  0.00    +0.241 A 
ATOM      5  N   UNL     1      -0.672   2.862  -4.189  0.00  0.00    -0.180 NA
ATOM      6  C   UNL     1      -0.004   3.621  -3.327  0.00  0.00    +0.224 A 
ATOM      7  N   UNL     1      -0.352   4.891  -3.150  0.00  0.00    -0.181 NA
ATOM      8  N   UNL     1       1.048   3.088  -2.610  0.00  0.00    -0.295 N 
ATOM      9  C   UNL     1       1.257   1.673  -2.953  0.00  0.00    +0.136 C 
ATOM     10  C   UNL     1       2.468   1.140  -2.182  0.00  0.00    +0.179 C 
ATOM     11  O   UNL     1       2.257   1.331  -0.781  0.00  0.00    -0.377 OA
ATOM     12  C   UNL     1       2.050   2.697  -0.411  0.00  0.00    +0.179 C 
ATOM     13  C   UNL     1       0.835   3.247  -1.164  0.00  0.00    +0.136 C 
ATOM     14  N   UNL     1      -2.381   2.587  -5.775  0.00  0.00    -0.205 N 
ATOM     15  H   UNL     1      -1.180   7.305  -3.102  0.00  0.00    +0.155 HD
ATOM     16  H   UNL     1      -2.130   1.659  -5.901  0.00  0.00    +0.177 HD
ENDROOT
BRANCH   1  21
ATOM     17  C   UNL     1      -6.351   8.784  -6.217  0.00  0.00    +0.044 C 
ATOM     18  C   UNL     1      -5.121   8.239  -5.540  0.00  0.00    -0.049 A 
ATOM     19  C   UNL     1      -5.080   6.913  -5.147  0.00  0.00    +0.005 A 
ATOM     20  C   UNL     1      -3.954   6.410  -4.526  0.00  0.00    +0.025 A 
ATOM     21  C   UNL     1      -2.862   7.236  -4.295  0.00  0.00    +0.048 A 
ATOM     22  C   UNL     1      -2.908   8.568  -4.686  0.00  0.00    +0.039 A 
ATOM     23  C   UNL     1      -4.036   9.064  -5.312  0.00  0.00    +0.020 A 
ATOM     24 BR   UNL     1      -1.427   9.700  -4.367  0.00  0.00    -0.048 Br
ENDBRANCH   1  21
BRANCH  14  25
ATOM     25  N   UNL     1      -3.449   3.128  -6.503  0.00  0.00    -0.187 NA
ATOM     26  C   UNL     1      -4.185   2.358  -7.245  0.00  0.00    +0.142 C 
BRANCH  26  27
ATOM     27  C   UNL     1      -4.069   0.893  -7.130  0.00  0.00    +0.037 A 
ATOM     28  C   UNL     1      -3.615   0.316  -5.941  0.00  0.00    +0.033 A 
ATOM     29  C   UNL     1      -3.513  -1.056  -5.839  0.00  0.00    +0.042 A 
ATOM     30  C   UNL     1      -3.848  -1.863  -6.914  0.00  0.00    +0.023 A 
ATOM     31  C   UNL     1      -4.294  -1.303  -8.096  0.00  0.00    +0.047 A 
ATOM     32  C   UNL     1      -4.407   0.073  -8.214  0.00  0.00    +0.126 A 
ATOM     33 CL   UNL     1      -2.956  -1.774  -4.359  0.00  0.00    -0.084 Cl
BRANCH  32  34
ATOM     34  O   UNL     1      -4.845   0.624  -9.376  0.00  0.00    -0.506 OA
ATOM     35  H   UNL     1      -4.135   0.897  -9.973  0.00  0.00    +0.292 HD
ENDBRANCH  32  34
ENDBRANCH  26  27
ENDBRANCH  14  25
TORSDOF 4
