REMARK  Name = ZINC39631880
REMARK  14 active torsions:
REMARK  status: ('A' for Active; 'I' for Inactive)
REMARK    1  A    between atoms: C_1  and  C_2
REMARK    2  A    between atoms: C_4  and  C_7
REMARK    3  A    between atoms: C_8  and  C_13
REMARK    4  A    between atoms: C_9  and  C_12
REMARK    5  A    between atoms: C_17  and  C_26
REMARK    6  A    between atoms: N_28  and  C_29
REMARK    7  A    between atoms: C_29  and  C_31
REMARK    8  A    between atoms: C_29  and  C_32
REMARK    9  A    between atoms: C_32  and  C_33
REMARK   10  A    between atoms: C_33  and  C_34
REMARK   11  A    between atoms: C_34  and  C_35
REMARK   12  A    between atoms: C_35  and  C_36
REMARK   13  A    between atoms: C_35  and  C_37
REMARK   14  A    between atoms: C_35  and  O_38
REMARK                            x       y       z     vdW  Elec       q    Type
REMARK                         _______ _______ _______ _____ _____    ______ ____
ROOT
ATOM      1  C   UNL     1       0.412  -5.123   0.003  0.00  0.00    +0.252 C 
ATOM      2  O   UNL     1       1.009  -5.312   1.046  0.00  0.00    -0.270 OA
ATOM      3  N   UNL     1       1.032  -5.330  -1.176  0.00  0.00    -0.296 N 
ATOM      4  C   UNL     1       0.477  -5.149  -2.538  0.00  0.00    +0.121 C 
ATOM      5  C   UNL     1       1.637  -4.536  -3.353  0.00  0.00    +0.100 C 
ATOM      6  C   UNL     1       2.911  -4.962  -2.604  0.00  0.00    -0.004 C 
ATOM      7  C   UNL     1       2.425  -5.784  -1.402  0.00  0.00    +0.115 C 
ATOM      8  C   UNL     1       3.795  -5.816  -3.508  0.00  0.00    -0.010 C 
ATOM      9  C   UNL     1       5.082  -6.178  -2.761  0.00  0.00    -0.082 C 
ATOM     10  N   UNL     1       5.787  -4.951  -2.373  0.00  0.00    +0.379 N 
ATOM     11  C   UNL     1       4.967  -4.179  -1.431  0.00  0.00    -0.082 C 
ATOM     12  C   UNL     1       3.676  -3.732  -2.122  0.00  0.00    -0.010 C 
ATOM     13  H   UNL     1       6.663  -5.192  -1.935  0.00  0.00    -0.086 HD
ATOM     14  H   UNL     1       5.966  -4.394  -3.195  0.00  0.00    -0.086 HD
ENDROOT
BRANCH   1  16
ATOM     15  C   UNL     1      -1.426  -3.351   0.038  0.00  0.00    +0.201 A 
ATOM     16  C   UNL     1      -0.989  -4.668   0.028  0.00  0.00    +0.108 A 
ATOM     17  C   UNL     1      -2.140  -5.494   0.047  0.00  0.00    +0.093 A 
ATOM     18  N   UNL     1      -3.189  -4.726   0.066  0.00  0.00    -0.082 NA
ATOM     19  O   UNL     1      -2.768  -3.376   0.066  0.00  0.00    -0.352 OA
ATOM     20  C   UNL     1      -2.148  -7.001   0.045  0.00  0.00    +0.070 C 
BRANCH  15  24
ATOM     21  C   UNL     1       0.036   1.507   0.029  0.00  0.00    +0.089 C 
ATOM     22  C   UNL     1       0.056   0.001   0.022  0.00  0.00    +0.135 A 
ATOM     23  C   UNL     1      -1.023  -0.801   0.040  0.00  0.00    +0.079 A 
ATOM     24  C   UNL     1      -0.572  -2.145   0.025  0.00  0.00    +0.152 A 
ATOM     25  N   UNL     1       0.741  -2.125  -0.002  0.00  0.00    -0.075 NA
ATOM     26  O   UNL     1       1.154  -0.771  -0.010  0.00  0.00    -0.359 OA
ENDBRANCH  15  24
ENDBRANCH   1  16
BRANCH   5  27
ATOM     27  C   UNL     1       1.521  -3.034  -3.384  0.00  0.00    +0.218 C 
ATOM     28  O   UNL     1       0.915  -2.455  -2.507  0.00  0.00    -0.275 OA
ATOM     29  N   UNL     1       2.089  -2.334  -4.386  0.00  0.00    -0.312 N 
ATOM     30  H   UNL     1       2.574  -2.797  -5.087  0.00  0.00    +0.149 HD
BRANCH  29  31
ATOM     31  C   UNL     1       1.976  -0.874  -4.416  0.00  0.00    +0.070 C 
ATOM     32  C   UNL     1       0.658  -0.478  -5.084  0.00  0.00    +0.028 C 
BRANCH  31  33
ATOM     33  C   UNL     1       3.146  -0.288  -5.209  0.00  0.00    +0.022 C 
BRANCH  33  34
ATOM     34  C   UNL     1       4.456  -0.577  -4.473  0.00  0.00    +0.005 C 
BRANCH  34  35
ATOM     35  C   UNL     1       5.626   0.009  -5.266  0.00  0.00    +0.034 C 
BRANCH  35  36
ATOM     36  C   UNL     1       6.936  -0.280  -4.531  0.00  0.00    +0.061 C 
ATOM     37  C   UNL     1       8.092   0.412  -5.257  0.00  0.00    +0.041 C 
ATOM     38  C   UNL     1       6.845   0.248  -3.098  0.00  0.00    +0.041 C 
BRANCH  36  39
ATOM     39  O   UNL     1       7.166  -1.690  -4.505  0.00  0.00    -0.389 OA
ATOM     40  H   UNL     1       7.982  -1.947  -4.053  0.00  0.00    +0.210 HD
ENDBRANCH  36  39
ENDBRANCH  35  36
ENDBRANCH  34  35
ENDBRANCH  33  34
ENDBRANCH  31  33
ENDBRANCH  29  31
ENDBRANCH   5  27
TORSDOF 9
