REMARK  Name = ZINC19795509
REMARK  7 active torsions:
REMARK  status: ('A' for Active; 'I' for Inactive)
REMARK    1  A    between atoms: C_1  and  C_2
REMARK    2  A    between atoms: C_10  and  C_23
REMARK    3  A    between atoms: N_12  and  C_13
REMARK    4  A    between atoms: C_16  and  O_21
REMARK    5  A    between atoms: C_17  and  O_19
REMARK    6  A    between atoms: O_19  and  C_20
REMARK    7  A    between atoms: O_21  and  C_22
REMARK                            x       y       z     vdW  Elec       q    Type
REMARK                         _______ _______ _______ _____ _____    ______ ____
ROOT
ATOM      1  C   UNL     1       0.113  -2.321   3.064  0.00  0.00    +0.046 C 
ATOM      2  C   UNL     1       1.394  -1.554   2.857  0.00  0.00    -0.025 A 
ATOM      3  C   UNL     1       2.008  -0.952   3.915  0.00  0.00    +0.025 A 
ATOM      4  C   UNL     1       3.192  -0.239   3.746  0.00  0.00    +0.042 A 
ATOM      5  C   UNL     1       3.767  -0.125   2.513  0.00  0.00    +0.032 A 
ATOM      6  C   UNL     1       3.160  -0.732   1.406  0.00  0.00    +0.024 A 
ATOM      7  C   UNL     1       1.957  -1.457   1.575  0.00  0.00    +0.051 A 
ATOM      8  N   UNL     1       1.367  -2.042   0.522  0.00  0.00    -0.360 N 
ATOM      9  C   UNL     1       1.870  -1.969  -0.683  0.00  0.00    +0.100 A 
ATOM     10  C   UNL     1       3.060  -1.270  -0.945  0.00  0.00    +0.103 A 
ATOM     11  C   UNL     1       3.728  -0.634   0.113  0.00  0.00    +0.065 A 
ATOM     12  N   UNL     1       4.897   0.062  -0.100  0.00  0.00    -0.354 N 
ATOM     13 CL   UNL     1       3.944   0.513   5.117  0.00  0.00    -0.084 Cl
ATOM     14  H   UNL     1       0.432  -2.605   0.658  0.00  0.00    +0.165 HD
ATOM     15  H   UNL     1       5.857  -0.473  -0.137  0.00  0.00    +0.166 HD
ENDROOT
BRANCH  12  16
ATOM     16  C   UNL     1       4.864   1.451  -0.269  0.00  0.00    +0.043 A 
ATOM     17  C   UNL     1       3.646   2.119  -0.289  0.00  0.00    +0.029 A 
ATOM     18  C   UNL     1       3.612   3.491  -0.451  0.00  0.00    +0.051 A 
ATOM     19  C   UNL     1       4.791   4.202  -0.604  0.00  0.00    +0.162 A 
ATOM     20  C   UNL     1       6.013   3.535  -0.590  0.00  0.00    +0.163 A 
ATOM     21  C   UNL     1       6.048   2.161  -0.422  0.00  0.00    +0.075 A 
BRANCH  20  22
ATOM     22  O   UNL     1       7.171   4.232  -0.739  0.00  0.00    -0.491 OA
ATOM     23  C   UNL     1       8.387   3.482  -0.714  0.00  0.00    +0.277 C 
ENDBRANCH  20  22
BRANCH  19  24
ATOM     24  O   UNL     1       4.755   5.552  -0.768  0.00  0.00    -0.491 OA
ATOM     25  C   UNL     1       3.467   6.171  -0.773  0.00  0.00    +0.277 C 
ENDBRANCH  19  24
ENDBRANCH  12  16
BRANCH  10  26
ATOM     26  C   UNL     1       3.600  -1.206  -2.311  0.00  0.00    +0.390 C 
ATOM     27  O   UNL     1       4.577  -0.522  -2.547  0.00  0.00    -0.240 OA
ATOM     28  O   UNL     1       3.011  -1.905  -3.302  0.00  0.00    -0.240 OA
ENDBRANCH  10  26
TORSDOF 4
