REMARK  Name = ZINC14511664
REMARK  10 active torsions:
REMARK  status: ('A' for Active; 'I' for Inactive)
REMARK    1  A    between atoms: C_1  and  O_2
REMARK    2  A    between atoms: O_2  and  C_3
REMARK    3  A    between atoms: C_3  and  C_4
REMARK    4  A    between atoms: C_4  and  N_5
REMARK    5  A    between atoms: N_5  and  C_6
REMARK    6  A    between atoms: C_7  and  N_22
REMARK    7  A    between atoms: N_8  and  C_15
REMARK    8  A    between atoms: C_15  and  C_16
REMARK    9  A    between atoms: C_23  and  C_25
REMARK   10  A    between atoms: C_26  and  C_27
REMARK                            x       y       z     vdW  Elec       q    Type
REMARK                         _______ _______ _______ _____ _____    ______ ____
ROOT
ATOM      1  C   UNL     1       1.096   2.058   0.019  0.00  0.00    +0.140 A 
ATOM      2  C   UNL     1       0.433   1.399  -0.996  0.00  0.00    +0.128 A 
ATOM      3  N   UNL     1       0.343   0.026  -0.958  0.00  0.00    -0.276 N 
ATOM      4  C   UNL     1       0.895  -0.664   0.056  0.00  0.00    +0.331 A 
ATOM      5  O   UNL     1       0.804  -1.877   0.072  0.00  0.00    -0.246 OA
ATOM      6  N   UNL     1       1.545  -0.038   1.053  0.00  0.00    -0.273 N 
ATOM      7  H   UNL     1       1.947  -0.575   1.795  0.00  0.00    +0.173 HD
ATOM      8  C   UNL     1       1.662   1.304   1.064  0.00  0.00    +0.277 A 
ATOM      9  O   UNL     1       2.249   1.862   1.976  0.00  0.00    -0.266 OA
ENDROOT
BRANCH   1  10
ATOM     10  N   UNL     1       1.205   3.464   0.009  0.00  0.00    -0.259 N 
ATOM     11  C   UNL     1       2.413   4.046  -0.131  0.00  0.00    +0.244 C 
ATOM     12  O   UNL     1       3.420   3.361  -0.147  0.00  0.00    -0.270 OA
BRANCH  11  13
ATOM     13  C   UNL     1       2.514   5.500  -0.262  0.00  0.00    +0.068 C 
ATOM     14  C   UNL     1       3.723   6.082  -0.402  0.00  0.00    +0.014 C 
BRANCH  14  15
ATOM     15  C   UNL     1       3.825   7.544  -0.534  0.00  0.00    -0.011 A 
ATOM     16  C   UNL     1       2.670   8.334  -0.515  0.00  0.00    +0.009 A 
ATOM     17  C   UNL     1       2.774   9.703  -0.639  0.00  0.00    +0.001 A 
ATOM     18  C   UNL     1       4.016  10.297  -0.782  0.00  0.00    +0.001 A 
ATOM     19  C   UNL     1       5.163   9.524  -0.801  0.00  0.00    +0.016 A 
ATOM     20  C   UNL     1       5.077   8.152  -0.673  0.00  0.00    +0.025 A 
ATOM     21 BR   UNL     1       6.646   7.097  -0.692  0.00  0.00    -0.050 Br
ENDBRANCH  14  15
ENDBRANCH  11  13
BRANCH  10  22
ATOM     22  C   UNL     1       0.005   4.293   0.150  0.00  0.00    +0.142 C 
BRANCH  22  23
ATOM     23  C   UNL     1      -0.191   4.660   1.622  0.00  0.00    +0.179 C 
BRANCH  23  25
ATOM     24  C   UNL     1       0.805   5.887   3.424  0.00  0.00    +0.194 C 
ATOM     25  O   UNL     1       0.892   5.486   2.055  0.00  0.00    -0.381 OA
ENDBRANCH  23  25
ENDBRANCH  22  23
ENDBRANCH  10  22
ENDBRANCH   1  10
BRANCH   2  26
ATOM     26  N   UNL     1      -0.132   2.104  -2.031  0.00  0.00    -0.343 N 
ATOM     27  H   UNL     1      -0.534   1.632  -2.777  0.00  0.00    +0.144 HD
ATOM     28  H   UNL     1      -0.129   3.074  -2.016  0.00  0.00    +0.144 HD
ENDBRANCH   2  26
BRANCH   3  29
ATOM     29  C   UNL     1      -0.359  -0.687  -2.028  0.00  0.00    +0.163 C 
BRANCH  29  30
ATOM     30  C   UNL     1      -1.814  -0.832  -1.665  0.00  0.00    -0.028 A 
ATOM     31  C   UNL     1      -2.245  -1.943  -0.965  0.00  0.00    +0.005 A 
ATOM     32  C   UNL     1      -3.579  -2.073  -0.627  0.00  0.00    +0.000 A 
ATOM     33  C   UNL     1      -4.484  -1.097  -1.000  0.00  0.00    +0.000 A 
ATOM     34  C   UNL     1      -4.055   0.011  -1.705  0.00  0.00    +0.000 A 
ATOM     35  C   UNL     1      -2.720   0.144  -2.037  0.00  0.00    +0.005 A 
ENDBRANCH  29  30
ENDBRANCH   3  29
TORSDOF 9
