REMARK  Name = ZINC32537261
REMARK  9 active torsions:
REMARK  status: ('A' for Active; 'I' for Inactive)
REMARK    1  A    between atoms: C_1  and  C_2
REMARK    2  A    between atoms: C_4  and  N_24
REMARK    3  A    between atoms: C_5  and  C_23
REMARK    4  A    between atoms: C_7  and  S_8
REMARK    5  A    between atoms: S_8  and  N_11
REMARK    6  A    between atoms: N_11  and  C_12
REMARK    7  A    between atoms: C_12  and  C_13
REMARK    8  A    between atoms: C_16  and  S_19
REMARK    9  A    between atoms: S_19  and  N_22
REMARK                            x       y       z     vdW  Elec       q    Type
REMARK                         _______ _______ _______ _____ _____    ______ ____
ROOT
ATOM      1  S   UNL     1       1.557   5.593   1.820  0.00  0.00    +0.059 S 
ATOM      2  O   UNL     1       1.440   4.246   1.383  0.00  0.00    -0.153 OA
ATOM      3  O   UNL     1       1.602   5.947   3.195  0.00  0.00    -0.153 OA
ENDROOT
BRANCH   1  10
ATOM      4  C   UNL     1       0.766   5.447  -1.094  0.00  0.00    +0.046 C 
ATOM      5  C   UNL     1      -0.086   6.338  -0.227  0.00  0.00    -0.022 A 
ATOM      6  C   UNL     1      -1.151   7.024  -0.780  0.00  0.00    +0.030 A 
ATOM      7  C   UNL     1      -1.935   7.846   0.019  0.00  0.00    +0.054 A 
ATOM      8  C   UNL     1      -1.646   7.975   1.372  0.00  0.00    -0.026 A 
ATOM      9  C   UNL     1      -0.584   7.282   1.919  0.00  0.00    +0.034 A 
ATOM     10  C   UNL     1       0.198   6.469   1.119  0.00  0.00    +0.109 A 
ATOM     11  C   UNL     1      -2.495   8.865   2.243  0.00  0.00    +0.046 C 
BRANCH   7  12
ATOM     12  N   UNL     1      -3.013   8.540  -0.536  0.00  0.00    -0.207 N 
ATOM     13  C   UNL     1      -4.329   7.902  -0.687  0.00  0.00    +0.131 C 
ATOM     14  C   UNL     1      -4.756   7.944  -2.148  0.00  0.00    +0.022 C 
ATOM     15  C   UNL     1      -4.955   9.384  -2.613  0.00  0.00    +0.026 C 
ATOM     16  C   UNL     1      -3.598  10.090  -2.711  0.00  0.00    +0.189 C 
ATOM     17  S   UNL     1      -2.845  10.113  -1.054  0.00  0.00    +0.045 S 
ATOM     18  O   UNL     1      -3.638  10.883  -0.161  0.00  0.00    -0.155 OA
ATOM     19  O   UNL     1      -1.442  10.322  -1.150  0.00  0.00    -0.155 OA
ENDBRANCH   7  12
ENDBRANCH   1  10
BRANCH   1  20
ATOM     20  N   UNL     1       2.936   6.196   1.130  0.00  0.00    -0.186 NA
ATOM     21  H   UNL     1       3.469   5.595   0.379  0.00  0.00    +0.148 HD
BRANCH  20  22
ATOM     22  C   UNL     1       3.317   7.593   1.354  0.00  0.00    +0.141 C 
BRANCH  22  23
ATOM     23  C   UNL     1       4.758   7.790   0.961  0.00  0.00    -0.032 A 
ATOM     24  C   UNL     1       5.079   8.152  -0.334  0.00  0.00    +0.007 A 
ATOM     25  C   UNL     1       6.401   8.333  -0.694  0.00  0.00    +0.029 A 
ATOM     26  C   UNL     1       7.403   8.152   0.241  0.00  0.00    +0.105 A 
ATOM     27  C   UNL     1       7.083   7.791   1.536  0.00  0.00    +0.029 A 
ATOM     28  C   UNL     1       5.760   7.611   1.897  0.00  0.00    +0.007 A 
BRANCH  26  29
ATOM     29  S   UNL     1       9.088   8.382  -0.218  0.00  0.00    +0.056 S 
ATOM     30  O   UNL     1       9.866   7.622   0.696  0.00  0.00    -0.153 OA
ATOM     31  O   UNL     1       9.157   8.185  -1.624  0.00  0.00    -0.153 OA
BRANCH  29  32
ATOM     32  N   UNL     1       9.458   9.973   0.055  0.00  0.00    -0.204 NA
ATOM     33  H   UNL     1      10.507  10.158  -0.220  0.00  0.00    +0.144 HD
ATOM     34  H   UNL     1       9.312  10.205   1.120  0.00  0.00    +0.144 HD
ENDBRANCH  29  32
ENDBRANCH  26  29
ENDBRANCH  22  23
ENDBRANCH  20  22
ENDBRANCH   1  20
TORSDOF 7
