REMARK  Name = ZINC20884428
REMARK  6 active torsions:
REMARK  status: ('A' for Active; 'I' for Inactive)
REMARK    1  A    between atoms: C_1  and  C_2
REMARK    2  A    between atoms: C_2  and  C_3
REMARK    3  A    between atoms: C_6  and  C_9
REMARK    4  A    between atoms: C_14  and  C_24
REMARK    5  A    between atoms: C_27  and  C_33
REMARK    6  A    between atoms: C_28  and  N_30
REMARK                            x       y       z     vdW  Elec       q    Type
REMARK                         _______ _______ _______ _____ _____    ______ ____
ROOT
ATOM      1  C   UNL     1      -0.604   2.437  -1.350  0.00  0.00    +0.032 C 
ATOM      2  C   UNL     1      -0.408   3.233  -0.061  0.00  0.00    +0.059 C 
ATOM      3  C   UNL     1      -1.741   3.802   0.400  0.00  0.00    +0.017 C 
ATOM      4  C   UNL     1      -2.663   4.180  -0.499  0.00  0.00    +0.036 C 
ATOM      5  C   UNL     1      -4.004   4.802  -0.186  0.00  0.00    +0.136 C 
ATOM      6  N   UNL     1      -4.376   4.740   1.211  0.00  0.00    -0.331 N 
ATOM      7  C   UNL     1      -3.640   5.414   2.182  0.00  0.00    +0.049 A 
ATOM      8  C   UNL     1      -4.176   6.487   2.877  0.00  0.00    +0.025 A 
ATOM      9  C   UNL     1      -3.386   7.178   3.779  0.00  0.00    +0.002 A 
ATOM     10  C   UNL     1      -2.072   6.804   3.990  0.00  0.00    +0.002 A 
ATOM     11  C   UNL     1      -1.539   5.719   3.314  0.00  0.00    +0.025 A 
ATOM     12  C   UNL     1      -2.334   5.017   2.425  0.00  0.00    +0.052 A 
ATOM     13  N   UNL     1      -1.878   3.890   1.748  0.00  0.00    -0.316 N 
ATOM     14  C   UNL     1      -2.423   4.010  -1.883  0.00  0.00    +0.163 C 
ATOM     15  O   UNL     1      -3.269   4.379  -2.673  0.00  0.00    -0.292 OA
ATOM     16  C   UNL     1      -1.163   3.393  -2.410  0.00  0.00    +0.088 C 
ATOM     17  H   UNL     1      -5.253   4.153   1.521  0.00  0.00    +0.147 HD
ATOM     18  H   UNL     1      -1.620   3.031   2.385  0.00  0.00    +0.152 HD
ENDROOT
BRANCH   5  19
ATOM     19  C   UNL     1      -3.972   6.248  -0.609  0.00  0.00    -0.021 A 
ATOM     20  C   UNL     1      -4.809   6.692  -1.616  0.00  0.00    +0.006 A 
ATOM     21  C   UNL     1      -4.783   8.020  -2.001  0.00  0.00    +0.006 A 
ATOM     22  C   UNL     1      -3.912   8.901  -1.387  0.00  0.00    -0.020 A 
ATOM     23  C   UNL     1      -3.071   8.455  -0.384  0.00  0.00    +0.129 A 
ATOM     24  C   UNL     1      -3.101   7.129   0.005  0.00  0.00    +0.038 A 
ATOM     25  C   UNL     1      -3.879  10.346  -1.811  0.00  0.00    +0.046 C 
BRANCH  23  26
ATOM     26  N   UNL     1      -2.139   9.398   0.273  0.00  0.00    +0.057 N 
ATOM     27  O   UNL     1      -1.592  10.269  -0.381  0.00  0.00    -0.126 OA
ATOM     28  O   UNL     1      -1.917   9.303   1.467  0.00  0.00    -0.126 OA
ENDBRANCH  23  26
ENDBRANCH   5  19
BRANCH   1  32
ATOM     29  C   UNL     1       3.140   0.858  -2.669  0.00  0.00    -0.048 A 
ATOM     30  C   UNL     1       2.086   0.004  -2.400  0.00  0.00    +0.004 A 
ATOM     31  C   UNL     1       0.875   0.515  -1.971  0.00  0.00    +0.004 A 
ATOM     32  C   UNL     1       0.718   1.879  -1.811  0.00  0.00    -0.043 A 
ATOM     33  C   UNL     1       1.772   2.732  -2.080  0.00  0.00    +0.004 A 
ATOM     34  C   UNL     1       2.983   2.222  -2.510  0.00  0.00    +0.004 A 
BRANCH  29  36
ATOM     35  C   UNL     1       4.468   0.222  -4.665  0.00  0.00    +0.009 C 
ATOM     36  C   UNL     1       4.460   0.301  -3.137  0.00  0.00    +0.032 C 
ENDBRANCH  29  36
ENDBRANCH   1  32
TORSDOF 4
