REMARK  Name = ZINC20738931
REMARK  6 active torsions:
REMARK  status: ('A' for Active; 'I' for Inactive)
REMARK    1  A    between atoms: C_1  and  C_2
REMARK    2  A    between atoms: C_2  and  C_3
REMARK    3  A    between atoms: C_2  and  C_4
REMARK    4  A    between atoms: C_4  and  N_5
REMARK    5  A    between atoms: C_16  and  O_30
REMARK    6  A    between atoms: N_22  and  C_23
REMARK                            x       y       z     vdW  Elec       q    Type
REMARK                         _______ _______ _______ _____ _____    ______ ____
ROOT
ATOM      1  N   UNL     1      -0.008  -0.140   2.444  0.00  0.00    -0.270 N 
ATOM      2  C   UNL     1       0.172   1.046   3.133  0.00  0.00    +0.041 A 
ATOM      3  C   UNL     1       1.050   2.099   2.871  0.00  0.00    +0.024 A 
ATOM      4  C   UNL     1       1.021   3.180   3.738  0.00  0.00    +0.002 A 
ATOM      5  C   UNL     1       0.163   3.228   4.818  0.00  0.00    +0.000 A 
ATOM      6  C   UNL     1      -0.717   2.186   5.090  0.00  0.00    +0.007 A 
ATOM      7  C   UNL     1      -0.693   1.107   4.233  0.00  0.00    -0.006 A 
ATOM      8  C   UNL     1      -1.478  -0.165   4.216  0.00  0.00    +0.112 C 
ATOM      9  C   UNL     1      -0.962  -0.913   3.007  0.00  0.00    +0.235 C 
ATOM     10  O   UNL     1      -1.332  -2.000   2.619  0.00  0.00    -0.274 OA
ATOM     11  C   UNL     1      -2.974   0.106   4.068  0.00  0.00    +0.121 C 
ATOM     12  C   UNL     1      -3.603   0.451   5.387  0.00  0.00    +0.191 C 
ATOM     13  N   UNL     1      -3.200  -0.033   6.524  0.00  0.00    -0.197 NA
ATOM     14  C   UNL     1      -2.118  -0.863   6.554  0.00  0.00    +0.164 A 
ATOM     15  C   UNL     1      -1.254  -0.965   5.469  0.00  0.00    +0.036 A 
ATOM     16  C   UNL     1      -0.266  -1.873   5.798  0.00  0.00    +0.142 A 
ATOM     17  N   UNL     1      -0.487  -2.305   7.019  0.00  0.00    -0.173 NA
ATOM     18  N   UNL     1      -1.640  -1.679   7.520  0.00  0.00    -0.214 N 
ENDROOT
BRANCH  18  19
ATOM     19  C   UNL     1      -2.195  -1.866   8.794  0.00  0.00    +0.068 A 
ATOM     20  C   UNL     1      -2.804  -0.804   9.449  0.00  0.00    +0.030 A 
ATOM     21  C   UNL     1      -3.350  -0.990  10.704  0.00  0.00    +0.040 A 
ATOM     22  C   UNL     1      -3.290  -2.234  11.308  0.00  0.00    +0.124 A 
ATOM     23  C   UNL     1      -2.683  -3.295  10.656  0.00  0.00    +0.040 A 
ATOM     24  C   UNL     1      -2.141  -3.114   9.399  0.00  0.00    +0.030 A 
ATOM     25  F   UNL     1      -3.824  -2.414  12.536  0.00  0.00    -0.205 F 
ENDBRANCH  18  19
BRANCH  12  26
ATOM     26  O   UNL     1      -4.644   1.309   5.393  0.00  0.00    -0.495 OA
ATOM     27  H   UNL     1      -5.002   1.487   6.274  0.00  0.00    +0.293 HD
ENDBRANCH  12  26
BRANCH   1  28
ATOM     28  C   UNL     1       0.742  -0.511   1.242  0.00  0.00    +0.116 C 
BRANCH  28  30
ATOM     29  C   UNL     1      -0.019   1.526   0.010  0.00  0.00    +0.009 C 
ATOM     30  C   UNL     1       0.002  -0.004   0.002  0.00  0.00    +0.001 C 
ATOM     31  C   UNL     1       0.718  -0.497  -1.257  0.00  0.00    +0.009 C 
ENDBRANCH  28  30
ENDBRANCH   1  28
TORSDOF 4
