REMARK  Name = ZINC67460229
REMARK  11 active torsions:
REMARK  status: ('A' for Active; 'I' for Inactive)
REMARK    1  A    between atoms: C_1  and  C_2
REMARK    2  A    between atoms: C_2  and  N_3
REMARK    3  A    between atoms: N_3  and  C_4
REMARK    4  A    between atoms: C_4  and  C_5
REMARK    5  A    between atoms: C_6  and  C_8
REMARK    6  A    between atoms: C_11  and  N_28
REMARK    7  A    between atoms: N_14  and  C_15
REMARK    8  A    between atoms: C_15  and  C_16
REMARK    9  A    between atoms: N_24  and  C_25
REMARK   10  A    between atoms: C_25  and  C_26
REMARK   11  A    between atoms: C_25  and  C_27
REMARK                            x       y       z     vdW  Elec       q    Type
REMARK                         _______ _______ _______ _____ _____    ______ ____
ROOT
ATOM      1  C   UNL     1      -3.261  -0.939   0.928  0.00  0.00    +0.142 C 
ATOM      2  C   UNL     1      -4.246  -0.032   0.148  0.00  0.00    +0.013 C 
ATOM      3  C   UNL     1      -5.616  -0.521   0.688  0.00  0.00    -0.059 C 
ATOM      4  C   UNL     1      -5.312  -0.844   2.166  0.00  0.00    +0.069 C 
ATOM      5  N   UNL     1      -3.859  -1.081   2.273  0.00  0.00    -0.286 NA
ENDROOT
BRANCH   3   6
ATOM      6  N   UNL     1      -6.625   0.542   0.581  0.00  0.00    +0.381 N 
ATOM      7  H   UNL     1      -6.732   0.808  -0.386  0.00  0.00    -0.090 HD
ATOM      8  H   UNL     1      -7.507   0.205   0.937  0.00  0.00    -0.090 HD
ATOM      9  H   UNL     1      -6.329   1.342   1.120  0.00  0.00    -0.090 HD
ENDBRANCH   3   6
BRANCH   1  11
ATOM     10  N   UNL     1      -1.083  -0.284  -0.044  0.00  0.00    -0.301 N 
ATOM     11  C   UNL     1      -1.907  -0.284   1.022  0.00  0.00    +0.233 C 
ATOM     12  O   UNL     1      -1.560   0.244   2.058  0.00  0.00    -0.274 OA
BRANCH  10  14
ATOM     13  C   UNL     1       0.266   1.746  -0.249  0.00  0.00    +0.024 C 
ATOM     14  C   UNL     1       0.275   0.252   0.080  0.00  0.00    +0.104 C 
ENDBRANCH  10  14
BRANCH  10  15
ATOM     15  C   UNL     1      -1.545  -0.819  -1.327  0.00  0.00    +0.104 C 
ATOM     16  C   UNL     1      -1.107  -2.280  -1.457  0.00  0.00    +0.024 C 
ENDBRANCH  10  15
ENDBRANCH   1  11
BRANCH   5  17
ATOM     17  C   UNL     1      -3.580  -2.409   2.836  0.00  0.00    +0.159 C 
BRANCH  17  18
ATOM     18  C   UNL     1      -3.861  -2.396   4.316  0.00  0.00    +0.125 A 
ATOM     19  N   UNL     1      -4.983  -2.761   4.864  0.00  0.00    -0.231 NA
ATOM     20  C   UNL     1      -4.898  -2.626   6.213  0.00  0.00    +0.089 A 
ATOM     21  C   UNL     1      -5.787  -2.867   7.264  0.00  0.00    +0.030 A 
ATOM     22  C   UNL     1      -5.399  -2.626   8.551  0.00  0.00    +0.002 A 
ATOM     23  C   UNL     1      -4.129  -2.142   8.830  0.00  0.00    +0.002 A 
ATOM     24  C   UNL     1      -3.235  -1.896   7.809  0.00  0.00    +0.028 A 
ATOM     25  C   UNL     1      -3.611  -2.136   6.494  0.00  0.00    +0.069 A 
ATOM     26  N   UNL     1      -2.978  -2.007   5.274  0.00  0.00    -0.324 N 
BRANCH  26  27
ATOM     27  C   UNL     1      -1.609  -1.534   5.052  0.00  0.00    +0.083 C 
ATOM     28  C   UNL     1      -1.461  -0.119   5.613  0.00  0.00    +0.030 C 
ATOM     29  C   UNL     1      -0.626  -2.469   5.761  0.00  0.00    +0.030 C 
ENDBRANCH  26  27
ENDBRANCH  17  18
ENDBRANCH   5  17
TORSDOF 7
