REMARK  Name = ZINC17354308
REMARK  5 active torsions:
REMARK  status: ('A' for Active; 'I' for Inactive)
REMARK    1  A    between atoms: C_3  and  S_17
REMARK    2  A    between atoms: C_6  and  N_7
REMARK    3  A    between atoms: C_12  and  C_15
REMARK    4  A    between atoms: C_15  and  O_16
REMARK    5  A    between atoms: S_17  and  N_20
REMARK                            x       y       z     vdW  Elec       q    Type
REMARK                         _______ _______ _______ _____ _____    ______ ____
ROOT
ATOM      1  C   UNL     1       0.815  -0.002  -1.184  0.00  0.00    +0.030 A 
ATOM      2  C   UNL     1       0.772   1.378  -1.186  0.00  0.00    +0.030 A 
ATOM      3  C   UNL     1       1.111   2.085  -0.046  0.00  0.00    +0.105 A 
ATOM      4  C   UNL     1       1.495   1.415   1.102  0.00  0.00    +0.030 A 
ATOM      5  C   UNL     1       1.542   0.036   1.117  0.00  0.00    +0.030 A 
ATOM      6  C   UNL     1       1.202  -0.683  -0.029  0.00  0.00    +0.067 A 
ENDROOT
BRANCH   6   7
ATOM      7  N   UNL     1       1.247  -2.054  -0.021  0.00  0.00    -0.217 NA
ATOM      8  C   UNL     1       1.973  -2.686  -0.893  0.00  0.00    +0.190 C 
ATOM      9  C   UNL     1       2.886  -1.935  -1.837  0.00  0.00    +0.096 C 
ATOM     10  C   UNL     1       4.272  -2.588  -1.792  0.00  0.00    +0.013 C 
ATOM     11  C   UNL     1       4.124  -4.090  -2.050  0.00  0.00    +0.047 C 
ATOM     12  C   UNL     1       3.230  -4.706  -0.970  0.00  0.00    +0.200 C 
ATOM     13  O   UNL     1       1.940  -4.039  -0.980  0.00  0.00    -0.474 OA
BRANCH  12  14
ATOM     14  C   UNL     1       3.039  -6.197  -1.253  0.00  0.00    +0.200 C 
BRANCH  14  15
ATOM     15  O   UNL     1       2.302  -6.794  -0.184  0.00  0.00    -0.391 OA
ATOM     16  H   UNL     1       2.143  -7.741  -0.297  0.00  0.00    +0.210 HD
ENDBRANCH  14  15
ENDBRANCH  12  14
ENDBRANCH   6   7
BRANCH   3  17
ATOM     17  S   UNL     1       1.054   3.846  -0.057  0.00  0.00    +0.056 S 
ATOM     18  O   UNL     1       1.940   4.287   0.962  0.00  0.00    -0.153 OA
ATOM     19  O   UNL     1       1.190   4.248  -1.413  0.00  0.00    -0.153 OA
BRANCH  17  20
ATOM     20  N   UNL     1      -0.470   4.289   0.417  0.00  0.00    -0.204 NA
ATOM     21  H   UNL     1      -0.607   5.126   0.887  0.00  0.00    +0.144 HD
ATOM     22  H   UNL     1      -1.225   3.711   0.224  0.00  0.00    +0.144 HD
ENDBRANCH  17  20
ENDBRANCH   3  17
TORSDOF 5
