REMARK  Name = ZINC05998365
REMARK  3 active torsions:
REMARK  status: ('A' for Active; 'I' for Inactive)
REMARK    1  A    between atoms: C_1  and  C_2
REMARK    2  A    between atoms: N_20  and  C_21
REMARK    3  A    between atoms: C_21  and  C_22
REMARK                            x       y       z     vdW  Elec       q    Type
REMARK                         _______ _______ _______ _____ _____    ______ ____
ROOT
ATOM      1  C   UNL     1      11.698  -4.828  -4.591  0.00  0.00    +0.008 C 
ATOM      2  C   UNL     1      11.068  -4.290  -3.305  0.00  0.00    -0.009 C 
ATOM      3  C   UNL     1      11.215  -5.333  -2.192  0.00  0.00    +0.009 C 
ATOM      4  C   UNL     1      10.820  -4.686  -0.857  0.00  0.00    +0.043 C 
ATOM      5  C   UNL     1       9.525  -3.961  -1.049  0.00  0.00    -0.004 A 
ATOM      6  C   UNL     1       8.933  -3.629  -2.219  0.00  0.00    -0.024 A 
ATOM      7  C   UNL     1       7.696  -2.937  -2.158  0.00  0.00    +0.056 A 
ATOM      8  C   UNL     1       6.853  -2.465  -3.285  0.00  0.00    +0.172 A 
ATOM      9  N   UNL     1       6.991  -2.542  -4.580  0.00  0.00    -0.153 NA
ATOM     10  N   UNL     1       5.879  -1.920  -5.166  0.00  0.00    -0.254 N 
ATOM     11  H   UNL     1       5.710  -1.826  -6.117  0.00  0.00    +0.191 HD
ATOM     12  C   UNL     1       5.087  -1.477  -4.168  0.00  0.00    +0.182 A 
ATOM     13  S   UNL     1       3.602  -0.645  -4.353  0.00  0.00    -0.011 S 
ATOM     14  N   UNL     1       5.673  -1.805  -2.998  0.00  0.00    -0.242 N 
ATOM     15  C   UNL     1       5.300  -1.596  -1.692  0.00  0.00    +0.205 A 
ATOM     16  N   UNL     1       6.045  -2.007  -0.695  0.00  0.00    -0.208 NA
ATOM     17  C   UNL     1       7.192  -2.656  -0.882  0.00  0.00    +0.116 A 
ATOM     18  S   UNL     1       8.424  -3.345   0.197  0.00  0.00    -0.073 S 
ATOM     19  N   UNL     1       4.124  -0.938  -1.425  0.00  0.00    -0.310 N 
ATOM     20  C   UNL     1       9.588  -3.995  -3.549  0.00  0.00    +0.040 C 
ATOM     21  H   UNL     1       3.566  -0.626  -2.155  0.00  0.00    +0.149 HD
ENDROOT
BRANCH  19  22
ATOM     22  C   UNL     1       3.711  -0.707  -0.039  0.00  0.00    +0.139 C 
BRANCH  22  23
ATOM     23  C   UNL     1       2.396   0.029  -0.022  0.00  0.00    -0.030 A 
ATOM     24  C   UNL     1       1.208  -0.679  -0.014  0.00  0.00    +0.005 A 
ATOM     25  C   UNL     1       0.002  -0.004   0.002  0.00  0.00    +0.000 A 
ATOM     26  C   UNL     1      -0.017   1.378   0.010  0.00  0.00    +0.000 A 
ATOM     27  C   UNL     1       1.171   2.086   0.002  0.00  0.00    +0.000 A 
ATOM     28  C   UNL     1       2.377   1.411  -0.014  0.00  0.00    +0.005 A 
ENDBRANCH  22  23
ENDBRANCH  19  22
TORSDOF 2
