REMARK  Name = ZINC19320354
REMARK  6 active torsions:
REMARK  status: ('A' for Active; 'I' for Inactive)
REMARK    1  A    between atoms: C_1  and  C_2
REMARK    2  A    between atoms: C_4  and  C_28
REMARK    3  A    between atoms: C_8  and  C_27
REMARK    4  A    between atoms: N_16  and  C_19
REMARK    5  A    between atoms: C_19  and  C_20
REMARK    6  A    between atoms: C_20  and  C_21
REMARK                            x       y       z     vdW  Elec       q    Type
REMARK                         _______ _______ _______ _____ _____    ______ ____
ROOT
ATOM      1  C   UNL     1      -0.018   1.503   0.010  0.00  0.00    +0.044 C 
ATOM      2  C   UNL     1       0.002  -0.004   0.002  0.00  0.00    -0.049 A 
ATOM      3  C   UNL     1       0.006  -0.684  -1.214  0.00  0.00    +0.008 A 
ATOM      4  C   UNL     1       0.024  -2.045  -1.259  0.00  0.00    -0.024 A 
ATOM      5  C   UNL     1       0.040  -2.777  -0.062  0.00  0.00    +0.079 A 
ATOM      6  C   UNL     1       0.037  -2.084   1.176  0.00  0.00    +0.022 A 
ATOM      7  C   UNL     1       0.022  -0.682   1.184  0.00  0.00    +0.015 A 
ATOM      8  C   UNL     1       0.054  -2.838   2.364  0.00  0.00    +0.051 A 
ATOM      9  N   UNL     1       0.072  -4.151   2.274  0.00  0.00    -0.219 NA
ATOM     10  C   UNL     1       0.075  -4.769   1.095  0.00  0.00    +0.222 A 
ATOM     11  N   UNL     1       0.059  -4.116  -0.051  0.00  0.00    -0.214 NA
ATOM     12  N   UNL     1       0.095  -6.155   1.070  0.00  0.00    -0.256 N 
ATOM     13  C   UNL     1       0.111  -6.866   2.251  0.00  0.00    +0.184 C 
ATOM     14  N   UNL     1       0.103  -6.227   3.378  0.00  0.00    -0.240 NA
ATOM     15  C   UNL     1       0.136  -6.901   4.672  0.00  0.00    +0.232 C 
ATOM     16  N   UNL     1      -0.306  -8.295   4.545  0.00  0.00    -0.268 NA
ATOM     17  C   UNL     1       0.431  -8.967   3.459  0.00  0.00    +0.193 C 
ATOM     18  N   UNL     1       0.131  -8.242   2.213  0.00  0.00    -0.304 N 
ATOM     19  C   UNL     1       0.051  -2.157   3.708  0.00  0.00    +0.066 C 
ATOM     20  C   UNL     1       0.027  -2.760  -2.585  0.00  0.00    +0.046 C 
ATOM     21  H   UNL     1       0.097  -6.625   0.221  0.00  0.00    +0.158 HD
ATOM     22  H   UNL     1      -0.044  -8.720   1.387  0.00  0.00    +0.150 HD
ENDROOT
BRANCH  16  23
ATOM     23  C   UNL     1      -0.145  -9.016   5.815  0.00  0.00    +0.092 C 
BRANCH  23  24
ATOM     24  C   UNL     1      -1.095  -8.426   6.860  0.00  0.00    +0.050 C 
BRANCH  24  25
ATOM     25  C   UNL     1      -0.930  -9.166   8.163  0.00  0.00    -0.046 A 
ATOM     26  C   UNL     1      -1.699 -10.285   8.425  0.00  0.00    +0.003 A 
ATOM     27  C   UNL     1      -1.547 -10.963   9.620  0.00  0.00    +0.000 A 
ATOM     28  C   UNL     1      -0.627 -10.523  10.552  0.00  0.00    +0.000 A 
ATOM     29  C   UNL     1       0.142  -9.405  10.290  0.00  0.00    +0.000 A 
ATOM     30  C   UNL     1      -0.006  -8.729   9.093  0.00  0.00    +0.003 A 
ENDBRANCH  24  25
ENDBRANCH  23  24
ENDBRANCH  16  23
TORSDOF 3
