REMARK  Name = ZINC13064471
REMARK  10 active torsions:
REMARK  status: ('A' for Active; 'I' for Inactive)
REMARK    1  A    between atoms: C_1  and  C_2
REMARK    2  A    between atoms: C_2  and  C_3
REMARK    3  A    between atoms: C_3  and  C_5
REMARK    4  A    between atoms: C_3  and  N_75
REMARK    5  A    between atoms: N_9  and  C_10
REMARK    6  A    between atoms: C_10  and  C_11
REMARK    7  A    between atoms: C_11  and  C_12
REMARK    8  A    between atoms: C_18  and  C_19
REMARK    9  A    between atoms: C_18  and  N_75
REMARK   10  A    between atoms: C_35  and  N_75
REMARK                            x       y       z     vdW  Elec       q    Type
REMARK                         _______ _______ _______ _____ _____    ______ ____
ROOT
ATOM      1  N   UNL     1       0.975  -2.735  -1.385  0.00  0.00    +0.391 N 
ATOM      2  H   UNL     1       1.571  -2.150  -1.981  0.00  0.00    -0.080 HD
ENDROOT
BRANCH   1   3
ATOM      3  C   UNL     1      -0.424  -2.626  -1.851  0.00  0.00    -0.067 C 
ATOM      4  C   UNL     1      -1.316  -3.621  -1.106  0.00  0.00    -0.015 C 
ATOM      5  C   UNL     1      -2.756  -3.491  -1.608  0.00  0.00    -0.002 C 
ATOM      6  C   UNL     1      -2.801  -3.789  -3.108  0.00  0.00    -0.000 C 
ATOM      7  C   UNL     1      -1.909  -2.794  -3.853  0.00  0.00    -0.002 C 
ATOM      8  C   UNL     1      -0.469  -2.924  -3.350  0.00  0.00    -0.015 C 
ENDBRANCH   1   3
BRANCH   1   9
ATOM      9  C   UNL     1       1.431  -4.138  -1.479  0.00  0.00    +0.003 C 
BRANCH   9  10
ATOM     10  C   UNL     1       0.890  -4.947  -0.328  0.00  0.00    +0.138 A 
ATOM     11  N   UNL     1       0.944  -4.632   0.943  0.00  0.00    -0.115 NA
ATOM     12  N   UNL     1       0.372  -5.575   1.611  0.00  0.00    -0.023 NA
ATOM     13  N   UNL     1      -0.038  -6.486   0.799  0.00  0.00    -0.044 NA
ATOM     14  N   UNL     1       0.262  -6.135  -0.406  0.00  0.00    -0.231 N 
BRANCH  14  15
ATOM     15  C   UNL     1      -0.026  -6.889  -1.629  0.00  0.00    +0.152 C 
BRANCH  15  16
ATOM     16  C   UNL     1       1.142  -7.828  -1.936  0.00  0.00    +0.058 C 
BRANCH  16  17
ATOM     17  C   UNL     1       0.846  -8.603  -3.194  0.00  0.00    -0.046 A 
ATOM     18  C   UNL     1       0.196  -9.821  -3.119  0.00  0.00    +0.004 A 
ATOM     19  C   UNL     1      -0.081 -10.529  -4.273  0.00  0.00    +0.000 A 
ATOM     20  C   UNL     1       0.303 -10.026  -5.502  0.00  0.00    +0.000 A 
ATOM     21  C   UNL     1       0.959  -8.811  -5.577  0.00  0.00    +0.000 A 
ATOM     22  C   UNL     1       1.230  -8.100  -4.423  0.00  0.00    +0.004 A 
ENDBRANCH  16  17
ENDBRANCH  15  16
ENDBRANCH  14  15
ENDBRANCH   9  10
BRANCH   9  24
ATOM     23  C   UNL     1       3.509  -3.454  -2.685  0.00  0.00    +0.002 C 
ATOM     24  C   UNL     1       2.960  -4.160  -1.443  0.00  0.00    -0.011 C 
ENDBRANCH   9  24
ENDBRANCH   1   9
BRANCH   1  25
ATOM     25  C   UNL     1       1.080  -2.263   0.012  0.00  0.00    -0.036 C 
BRANCH  25  26
ATOM     26  C   UNL     1       0.977  -0.759   0.023  0.00  0.00    +0.001 A 
ATOM     27  C   UNL     1      -0.157  -0.163   0.473  0.00  0.00    +0.017 A 
ATOM     28  C   UNL     1      -0.226   1.298   0.472  0.00  0.00    +0.002 A 
ATOM     29  C   UNL     1      -1.367   1.968   0.930  0.00  0.00    +0.059 A 
ATOM     30  C   UNL     1      -1.406   3.346   0.911  0.00  0.00    +0.163 A 
ATOM     31  C   UNL     1      -0.307   4.075   0.449  0.00  0.00    +0.164 A 
ATOM     32  C   UNL     1       0.828   3.421  -0.001  0.00  0.00    +0.075 A 
ATOM     33  C   UNL     1       0.881   2.034   0.005  0.00  0.00    +0.053 A 
ATOM     34  N   UNL     1       2.004   1.366  -0.439  0.00  0.00    -0.322 N 
ATOM     35  H   UNL     1       2.765   1.873  -0.761  0.00  0.00    +0.169 HD
ATOM     36  C   UNL     1       2.057   0.022  -0.433  0.00  0.00    +0.251 A 
ATOM     37  O   UNL     1       3.066  -0.534  -0.832  0.00  0.00    -0.268 OA
ATOM     38  O   UNL     1      -0.333   5.435   0.437  0.00  0.00    -0.485 OA
ATOM     39  C   UNL     1      -1.619   6.056   0.541  0.00  0.00    +0.270 C 
ATOM     40  C   UNL     1      -2.393   5.371   1.675  0.00  0.00    +0.270 C 
ATOM     41  O   UNL     1      -2.527   3.983   1.352  0.00  0.00    -0.485 OA
ENDBRANCH  25  26
ENDBRANCH   1  25
TORSDOF 9
