REMARK  Name = ZINC09073647
REMARK  8 active torsions:
REMARK  status: ('A' for Active; 'I' for Inactive)
REMARK    1  A    between atoms: C_1  and  C_2
REMARK    2  A    between atoms: C_2  and  C_3
REMARK    3  A    between atoms: C_8  and  C_23
REMARK    4  A    between atoms: C_12  and  C_15
REMARK    5  A    between atoms: C_13  and  O_14
REMARK    6  A    between atoms: C_15  and  N_61
REMARK    7  A    between atoms: C_19  and  C_21
REMARK    8  A    between atoms: C_19  and  C_22
REMARK                            x       y       z     vdW  Elec       q    Type
REMARK                         _______ _______ _______ _____ _____    ______ ____
ROOT
ATOM      1  C   UNL     1       0.002  -0.004   0.002  0.00  0.00    -0.005 A 
ATOM      2  C   UNL     1      -0.016   1.362   0.009  0.00  0.00    +0.022 A 
ATOM      3  C   UNL     1       1.185   2.071   0.002  0.00  0.00    +0.065 A 
ATOM      4  C   UNL     1       1.203   3.545   0.009  0.00  0.00    +0.203 A 
ATOM      5  O   UNL     1       0.173   4.196   0.022  0.00  0.00    -0.286 OA
ATOM      6  C   UNL     1       2.528   4.192  -0.001  0.00  0.00    +0.099 A 
ATOM      7  C   UNL     1       3.639   3.405  -0.015  0.00  0.00    +0.211 A 
ATOM      8  O   UNL     1       3.574   2.073  -0.022  0.00  0.00    -0.462 OA
ATOM      9  C   UNL     1       2.414   1.388  -0.014  0.00  0.00    +0.143 A 
ATOM     10  C   UNL     1       2.415  -0.001  -0.021  0.00  0.00    +0.021 A 
ATOM     11  C   UNL     1       1.214  -0.690  -0.013  0.00  0.00    +0.125 A 
ENDROOT
BRANCH   6  12
ATOM     12  C   UNL     1       2.647   5.664   0.006  0.00  0.00    +0.146 A 
ATOM     13  N   UNL     1       3.827   6.359  -0.002  0.00  0.00    -0.338 N 
ATOM     14  H   UNL     1       4.746   5.967  -0.012  0.00  0.00    +0.167 HD
ATOM     15  C   UNL     1       3.509   7.704   0.008  0.00  0.00    +0.066 A 
ATOM     16  C   UNL     1       4.259   8.871   0.006  0.00  0.00    +0.028 A 
ATOM     17  C   UNL     1       3.622  10.094   0.018  0.00  0.00    +0.002 A 
ATOM     18  C   UNL     1       2.236  10.165   0.032  0.00  0.00    +0.002 A 
ATOM     19  C   UNL     1       1.480   9.027   0.034  0.00  0.00    +0.030 A 
ATOM     20  C   UNL     1       2.105   7.776   0.022  0.00  0.00    +0.089 A 
ATOM     21  N   UNL     1       1.638   6.503   0.015  0.00  0.00    -0.228 NA
ENDBRANCH   6  12
BRANCH   1  23
ATOM     22  C   UNL     1      -1.656  -1.148   1.449  0.00  0.00    +0.009 C 
ATOM     23  C   UNL     1      -1.295  -0.772   0.010  0.00  0.00    +0.035 C 
ENDBRANCH   1  23
BRANCH  11  24
ATOM     24  O   UNL     1       1.218  -2.048  -0.020  0.00  0.00    -0.506 OA
ATOM     25  H   UNL     1       1.211  -2.437  -0.905  0.00  0.00    +0.292 HD
ENDBRANCH  11  24
BRANCH  10  26
ATOM     26  C   UNL     1       3.720  -0.755  -0.038  0.00  0.00    -0.036 C 
BRANCH  26  34
ATOM     27  C   UNL     1       3.985   0.226  -2.235  0.00  0.00    -0.078 C 
ATOM     28  C   UNL     1       4.281  -0.095  -3.702  0.00  0.00    -0.018 C 
ATOM     29  C   UNL     1       5.705  -0.643  -3.823  0.00  0.00    +0.003 C 
ATOM     30  C   UNL     1       5.843  -1.883  -2.936  0.00  0.00    -0.050 C 
ATOM     31  C   UNL     1       5.502  -1.512  -1.491  0.00  0.00    -0.072 C 
ATOM     32  C   UNL     1       7.280  -2.403  -3.004  0.00  0.00    +0.009 C 
ATOM     33  C   UNL     1       4.882  -2.970  -3.424  0.00  0.00    +0.009 C 
ATOM     34  N   UNL     1       4.111  -1.014  -1.439  0.00  0.00    +0.383 N 
ATOM     35  H   UNL     1       3.487  -1.728  -1.833  0.00  0.00    -0.081 HD
ENDBRANCH  26  34
ENDBRANCH  10  26
TORSDOF 5
