REMARK  Name = ZINC16954534
REMARK  4 active torsions:
REMARK  status: ('A' for Active; 'I' for Inactive)
REMARK    1  A    between atoms: N_10  and  N_11
REMARK    2  A    between atoms: N_11  and  C_12
REMARK    3  A    between atoms: C_12  and  N_14
REMARK    4  A    between atoms: N_14  and  N_15
REMARK                            x       y       z     vdW  Elec       q    Type
REMARK                         _______ _______ _______ _____ _____    ______ ____
ROOT
ATOM      1  C   UNL     1       7.393   3.968  -0.050  0.00  0.00    +0.170 C 
ATOM      2  S   UNL     1       7.484   5.678  -0.041  0.00  0.00    -0.016 S 
ENDROOT
BRANCH   1   3
ATOM      3  N   UNL     1       6.192   3.357  -0.041  0.00  0.00    -0.217 N 
ATOM      4  H   UNL     1       5.379   3.886  -0.030  0.00  0.00    +0.176 HD
BRANCH   3  14
ATOM      5  C   UNL     1      -0.017   1.380   0.010  0.00  0.00    +0.000 A 
ATOM      6  C   UNL     1       1.171   2.094   0.002  0.00  0.00    +0.004 A 
ATOM      7  C   UNL     1       2.372   1.426  -0.013  0.00  0.00    -0.034 A 
ATOM      8  C   UNL     1       2.405   0.027  -0.021  0.00  0.00    -0.021 A 
ATOM      9  C   UNL     1       1.201  -0.685  -0.013  0.00  0.00    +0.008 A 
ATOM     10  C   UNL     1       0.002  -0.004   0.002  0.00  0.00    +0.001 A 
ATOM     11  C   UNL     1       3.688  -0.685  -0.038  0.00  0.00    +0.010 C 
ATOM     12  C   UNL     1       4.868  -0.046  -0.046  0.00  0.00    +0.026 C 
ATOM     13  C   UNL     1       4.957   1.368  -0.039  0.00  0.00    +0.064 C 
ATOM     14  N   UNL     1       6.117   1.958  -0.048  0.00  0.00    -0.185 NA
ATOM     15  C   UNL     1       3.680   2.182  -0.022  0.00  0.00    +0.092 C 
ENDBRANCH   3  14
ENDBRANCH   1   3
BRANCH   1  16
ATOM     16  N   UNL     1       8.523   3.233  -0.065  0.00  0.00    -0.217 N 
ATOM     17  H   UNL     1       9.387   3.673  -0.071  0.00  0.00    +0.176 HD
BRANCH  16  18
ATOM     18  N   UNL     1       8.448   1.835  -0.071  0.00  0.00    -0.185 NA
ATOM     19  C   UNL     1       9.540   1.124  -0.086  0.00  0.00    +0.064 C 
ATOM     20  C   UNL     1       9.478  -0.291  -0.099  0.00  0.00    +0.026 C 
ATOM     21  C   UNL     1      10.584  -1.052  -0.114  0.00  0.00    +0.010 C 
ATOM     22  C   UNL     1      11.935  -0.480  -0.118  0.00  0.00    -0.021 A 
ATOM     23  C   UNL     1      12.116   0.908  -0.107  0.00  0.00    -0.034 A 
ATOM     24  C   UNL     1      13.382   1.445  -0.110  0.00  0.00    +0.004 A 
ATOM     25  C   UNL     1      14.487   0.609  -0.124  0.00  0.00    +0.000 A 
ATOM     26  C   UNL     1      14.321  -0.765  -0.136  0.00  0.00    +0.001 A 
ATOM     27  C   UNL     1      13.057  -1.316  -0.133  0.00  0.00    +0.008 A 
ATOM     28  C   UNL     1      10.896   1.798  -0.096  0.00  0.00    +0.092 C 
ENDBRANCH  16  18
ENDBRANCH   1  16
TORSDOF 4
