REMARK  Name = ZINC35312451
REMARK  7 active torsions:
REMARK  status: ('A' for Active; 'I' for Inactive)
REMARK    1  A    between atoms: C_1  and  C_2
REMARK    2  A    between atoms: C_7  and  N_12
REMARK    3  A    between atoms: C_9  and  C_11
REMARK    4  A    between atoms: C_13  and  C_15
REMARK    5  A    between atoms: C_15  and  C_36
REMARK    6  A    between atoms: N_27  and  C_28
REMARK    7  A    between atoms: C_28  and  C_29
REMARK                            x       y       z     vdW  Elec       q    Type
REMARK                         _______ _______ _______ _____ _____    ______ ____
ROOT
ATOM      1  C   UNL     1      -2.525  -3.826   2.140  0.00  0.00    +0.129 C 
ATOM      2  C   UNL     1      -2.710  -5.283   2.564  0.00  0.00    +0.157 C 
ATOM      3  N   UNL     1      -2.624  -6.141   1.380  0.00  0.00    -0.333 N 
ATOM      4  C   UNL     1      -2.199  -7.454   1.288  0.00  0.00    +0.057 A 
ATOM      5  C   UNL     1      -1.704  -8.466   2.123  0.00  0.00    +0.034 A 
ATOM      6  C   UNL     1      -1.394  -9.677   1.614  0.00  0.00    +0.048 A 
ATOM      7  S   UNL     1      -1.784  -9.483  -0.117  0.00  0.00    -0.095 S 
ATOM      8  C   UNL     1      -2.336  -7.798  -0.066  0.00  0.00    +0.038 A 
ATOM      9  C   UNL     1      -2.829  -6.709  -0.774  0.00  0.00    +0.048 A 
ATOM     10  C   UNL     1      -2.997  -5.692   0.118  0.00  0.00    +0.106 A 
ATOM     11  C   UNL     1      -3.466  -4.315  -0.081  0.00  0.00    +0.264 C 
ATOM     12  O   UNL     1      -3.954  -3.948  -1.133  0.00  0.00    -0.268 OA
ATOM     13  N   UNL     1      -3.325  -3.475   0.972  0.00  0.00    -0.276 N 
ATOM     14  C   UNL     1      -2.929  -2.920   3.305  0.00  0.00    +0.043 C 
ENDROOT
BRANCH   1  16
ATOM     15  N   UNL     1      -0.606  -3.827   0.580  0.00  0.00    -0.310 N 
ATOM     16  C   UNL     1      -1.071  -3.592   1.823  0.00  0.00    +0.238 C 
ATOM     17  O   UNL     1      -0.319  -3.192   2.687  0.00  0.00    -0.273 OA
ATOM     18  H   UNL     1      -1.189  -4.216  -0.090  0.00  0.00    +0.149 HD
BRANCH  15  24
ATOM     19  C   UNL     1       0.690  -4.620  -3.440  0.00  0.00    +0.008 C 
ATOM     20  C   UNL     1       0.548  -4.725  -1.920  0.00  0.00    -0.009 C 
ATOM     21  C   UNL     1       1.479  -5.820  -1.396  0.00  0.00    +0.003 C 
ATOM     22  C   UNL     1       1.337  -5.926   0.124  0.00  0.00    +0.002 C 
ATOM     23  C   UNL     1       1.711  -4.588   0.766  0.00  0.00    +0.022 C 
ATOM     24  C   UNL     1       0.780  -3.493   0.241  0.00  0.00    +0.076 C 
ATOM     25  C   UNL     1       0.922  -3.388  -1.278  0.00  0.00    +0.009 C 
ATOM     26  C   UNL     1      -0.009  -2.292  -1.803  0.00  0.00    +0.009 C 
ENDBRANCH  15  24
ENDBRANCH   1  16
BRANCH  13  27
ATOM     27  C   UNL     1      -3.996  -2.174   0.937  0.00  0.00    +0.144 C 
BRANCH  27  28
ATOM     28  C   UNL     1      -3.132  -1.183   0.198  0.00  0.00    -0.029 A 
ATOM     29  C   UNL     1      -2.125  -0.512   0.865  0.00  0.00    +0.005 A 
ATOM     30  C   UNL     1      -1.333   0.397   0.188  0.00  0.00    +0.002 A 
ATOM     31  C   UNL     1      -1.548   0.634  -1.156  0.00  0.00    +0.020 A 
ATOM     32  C   UNL     1      -2.556  -0.038  -1.825  0.00  0.00    +0.041 A 
ATOM     33  C   UNL     1      -3.345  -0.951  -1.148  0.00  0.00    +0.025 A 
ATOM     34 CL   UNL     1      -2.827   0.260  -3.513  0.00  0.00    -0.084 Cl
ENDBRANCH  27  28
ENDBRANCH  13  27
TORSDOF 4
