REMARK  Name = ZINC22309147
REMARK  13 active torsions:
REMARK  status: ('A' for Active; 'I' for Inactive)
REMARK    1  A    between atoms: C_1  and  C_2
REMARK    2  A    between atoms: C_2  and  C_3
REMARK    3  A    between atoms: N_9  and  C_10
REMARK    4  A    between atoms: C_10  and  C_11
REMARK    5  A    between atoms: C_11  and  C_12
REMARK    6  A    between atoms: C_12  and  N_13
REMARK    7  A    between atoms: C_14  and  C_16
REMARK    8  A    between atoms: C_16  and  N_17
REMARK    9  A    between atoms: N_17  and  C_18
REMARK   10  A    between atoms: N_17  and  S_27
REMARK   11  A    between atoms: C_23  and  O_24
REMARK   12  A    between atoms: O_24  and  C_25
REMARK   13  A    between atoms: S_27  and  C_30
REMARK                            x       y       z     vdW  Elec       q    Type
REMARK                         _______ _______ _______ _____ _____    ______ ____
ROOT
ATOM      1  N   UNL     1      -1.089   4.416   4.165  0.00  0.00    -0.191 N 
ENDROOT
BRANCH   1   2
ATOM      2  C   UNL     1      -1.914   3.913   3.153  0.00  0.00    +0.095 A 
ATOM      3  C   UNL     1      -3.286   3.838   3.346  0.00  0.00    +0.048 A 
ATOM      4  C   UNL     1      -4.099   3.341   2.343  0.00  0.00    +0.043 A 
ATOM      5  C   UNL     1      -3.547   2.919   1.147  0.00  0.00    +0.024 A 
ATOM      6  C   UNL     1      -2.181   2.995   0.947  0.00  0.00    +0.049 A 
ATOM      7  C   UNL     1      -1.360   3.486   1.948  0.00  0.00    +0.143 A 
ATOM      8 CL   UNL     1      -5.815   3.248   2.586  0.00  0.00    -0.083 Cl
BRANCH   7   9
ATOM      9  O   UNL     1      -0.015   3.558   1.753  0.00  0.00    -0.493 OA
ATOM     10  C   UNL     1       0.483   3.103   0.493  0.00  0.00    +0.277 C 
ENDBRANCH   7   9
ENDBRANCH   1   2
BRANCH   1  11
ATOM     11  S   UNL     1      -0.648   6.012   4.158  0.00  0.00    +0.075 S 
ATOM     12  O   UNL     1       0.560   6.103   4.900  0.00  0.00    -0.150 OA
ATOM     13  O   UNL     1      -0.752   6.455   2.812  0.00  0.00    -0.150 OA
BRANCH  11  14
ATOM     14  C   UNL     1      -1.868   6.894   5.074  0.00  0.00    +0.109 A 
ATOM     15  C   UNL     1      -2.975   7.414   4.429  0.00  0.00    +0.029 A 
ATOM     16  C   UNL     1      -3.934   8.101   5.149  0.00  0.00    +0.002 A 
ATOM     17  C   UNL     1      -3.782   8.277   6.511  0.00  0.00    +0.000 A 
ATOM     18  C   UNL     1      -2.673   7.762   7.155  0.00  0.00    +0.002 A 
ATOM     19  C   UNL     1      -1.716   7.070   6.437  0.00  0.00    +0.029 A 
ENDBRANCH  11  14
ENDBRANCH   1  11
BRANCH   1  20
ATOM     20  C   UNL     1      -0.616   3.530   5.232  0.00  0.00    +0.227 C 
BRANCH  20  22
ATOM     21  N   UNL     1       1.243   1.939   5.596  0.00  0.00    -0.314 N 
ATOM     22  C   UNL     1       0.628   2.812   4.774  0.00  0.00    +0.232 C 
ATOM     23  O   UNL     1       1.075   3.020   3.666  0.00  0.00    -0.274 OA
ATOM     24  H   UNL     1       0.838   1.751   6.601  0.00  0.00    +0.149 HD
BRANCH  21  25
ATOM     25  C   UNL     1       2.452   1.242   5.151  0.00  0.00    +0.102 C 
BRANCH  25  26
ATOM     26  C   UNL     1       2.947   0.317   6.265  0.00  0.00    +0.000 C 
BRANCH  26  27
ATOM     27  C   UNL     1       4.209  -0.411   5.800  0.00  0.00    -0.077 C 
BRANCH  27  33
ATOM     28  C   UNL     1       5.837  -2.092   6.423  0.00  0.00    -0.069 C 
ATOM     29  C   UNL     1       6.394  -2.894   7.601  0.00  0.00    -0.015 C 
ATOM     30  C   UNL     1       5.299  -3.815   8.147  0.00  0.00    -0.003 C 
ATOM     31  C   UNL     1       4.091  -2.970   8.560  0.00  0.00    -0.019 C 
ATOM     32  C   UNL     1       3.601  -2.165   7.354  0.00  0.00    -0.078 C 
ATOM     33  N   UNL     1       4.684  -1.300   6.870  0.00  0.00    +0.382 N 
ATOM     34  H   UNL     1       5.014  -0.672   7.711  0.00  0.00    -0.081 HD
BRANCH  28  36
ATOM     35  C   UNL     1       8.067  -1.984   5.301  0.00  0.00    +0.002 C 
ATOM     36  C   UNL     1       6.922  -1.155   5.887  0.00  0.00    -0.019 C 
ENDBRANCH  28  36
ENDBRANCH  27  33
ENDBRANCH  26  27
ENDBRANCH  25  26
ENDBRANCH  21  25
ENDBRANCH  20  22
ENDBRANCH   1  20
TORSDOF 11
