REMARK  Name = ZINC20617110
REMARK  9 active torsions:
REMARK  status: ('A' for Active; 'I' for Inactive)
REMARK    1  A    between atoms: C_1  and  C_2
REMARK    2  A    between atoms: C_6  and  C_20
REMARK    3  A    between atoms: N_8  and  C_9
REMARK    4  A    between atoms: C_12  and  C_15
REMARK    5  A    between atoms: C_15  and  O_17
REMARK    6  A    between atoms: O_17  and  C_18
REMARK    7  A    between atoms: N_22  and  C_23
REMARK    8  A    between atoms: C_31  and  C_34
REMARK    9  A    between atoms: C_34  and  O_35
REMARK                            x       y       z     vdW  Elec       q    Type
REMARK                         _______ _______ _______ _____ _____    ______ ____
ROOT
ATOM      1  C   UNL     1       5.503   1.634   1.076  0.00  0.00    +0.069 C 
ATOM      2  C   UNL     1       5.461   3.082   1.492  0.00  0.00    +0.081 A 
ATOM      3  C   UNL     1       4.466   3.914   0.996  0.00  0.00    +0.159 A 
ATOM      4  C   UNL     1       4.447   5.262   1.402  0.00  0.00    +0.027 A 
ATOM      5  C   UNL     1       3.403   6.155   0.896  0.00  0.00    +0.030 A 
ATOM      6  C   UNL     1       2.324   5.567   0.244  0.00  0.00    +0.098 A 
ATOM      7  C   UNL     1       2.329   4.095   0.136  0.00  0.00    +0.212 A 
ATOM      8  N   UNL     1       1.202   3.420   0.035  0.00  0.00    -0.325 N 
ATOM      9  O   UNL     1       3.526   3.456   0.137  0.00  0.00    -0.437 OA
ATOM     10  C   UNL     1       5.434   5.710   2.288  0.00  0.00    +0.007 A 
ATOM     11  C   UNL     1       6.383   4.809   2.726  0.00  0.00    +0.117 A 
ATOM     12  N   UNL     1       6.368   3.551   2.324  0.00  0.00    -0.256 NA
ATOM     13  H   UNL     1       0.245   3.956  -0.047  0.00  0.00    +0.169 HD
ENDROOT
BRANCH   8  14
ATOM     14  C   UNL     1       1.222   2.058   0.034  0.00  0.00    +0.042 A 
ATOM     15  C   UNL     1       1.231   1.356   1.246  0.00  0.00    +0.026 A 
ATOM     16  C   UNL     1       1.251  -0.008   1.244  0.00  0.00    +0.017 A 
ATOM     17  C   UNL     1       1.261  -0.706   0.030  0.00  0.00    +0.059 A 
ATOM     18  C   UNL     1       1.252  -0.005  -1.181  0.00  0.00    +0.017 A 
ATOM     19  C   UNL     1       1.233   1.359  -1.180  0.00  0.00    +0.026 A 
BRANCH  17  20
ATOM     20  C   UNL     1       1.283  -2.178   0.028  0.00  0.00    +0.339 C 
ATOM     21  O   UNL     1       1.291  -2.787   1.080  0.00  0.00    -0.245 OA
BRANCH  20  22
ATOM     22  O   UNL     1       1.293  -2.851  -1.140  0.00  0.00    -0.464 OA
ATOM     23  C   UNL     1       1.314  -4.301  -1.065  0.00  0.00    +0.280 C 
ENDBRANCH  20  22
ENDBRANCH  17  20
ENDBRANCH   8  14
BRANCH   6  24
ATOM     24  C   UNL     1       1.223   6.375  -0.310  0.00  0.00    +0.253 C 
ATOM     25  O   UNL     1       1.245   7.587  -0.206  0.00  0.00    -0.270 OA
ATOM     26  N   UNL     1       0.191   5.771  -0.932  0.00  0.00    -0.279 N 
ATOM     27  H   UNL     1       0.134   4.673  -0.963  0.00  0.00    +0.155 HD
BRANCH  26  28
ATOM     28  C   UNL     1      -0.808   6.542  -1.540  0.00  0.00    +0.069 A 
ATOM     29  C   UNL     1      -1.192   7.752  -0.977  0.00  0.00    +0.029 A 
ATOM     30  C   UNL     1      -2.175   8.513  -1.580  0.00  0.00    +0.040 A 
ATOM     31  C   UNL     1      -2.785   8.066  -2.740  0.00  0.00    +0.126 A 
ATOM     32  C   UNL     1      -2.409   6.857  -3.301  0.00  0.00    +0.078 A 
ATOM     33  C   UNL     1      -1.422   6.094  -2.704  0.00  0.00    +0.147 A 
ATOM     34  F   UNL     1      -1.054   4.915  -3.252  0.00  0.00    -0.203 F 
ATOM     35  F   UNL     1      -3.749   8.810  -3.325  0.00  0.00    -0.205 F 
ENDBRANCH  26  28
ENDBRANCH   6  24
BRANCH  10  36
ATOM     36  C   UNL     1       5.461   7.143   2.753  0.00  0.00    +0.193 C 
BRANCH  36  37
ATOM     37  O   UNL     1       6.561   7.335   3.644  0.00  0.00    -0.390 OA
ATOM     38  H   UNL     1       6.743   8.325   4.088  0.00  0.00    +0.210 HD
ENDBRANCH  36  37
ENDBRANCH  10  36
TORSDOF 7
