REMARK  Name = ZINC65216963
REMARK  5 active torsions:
REMARK  status: ('A' for Active; 'I' for Inactive)
REMARK    1  A    between atoms: C_1  and  C_2
REMARK    2  A    between atoms: C_4  and  C_14
REMARK    3  A    between atoms: C_11  and  C_13
REMARK    4  A    between atoms: C_14  and  N_15
REMARK    5  A    between atoms: C_16  and  C_18
REMARK                            x       y       z     vdW  Elec       q    Type
REMARK                         _______ _______ _______ _____ _____    ______ ____
ROOT
ATOM      1  N   UNL     1       2.142   0.128  -3.150  0.00  0.00    -0.309 N 
ATOM      2  C   UNL     1       2.760   0.982  -3.990  0.00  0.00    +0.244 C 
ATOM      3  O   UNL     1       2.651   2.182  -3.826  0.00  0.00    -0.270 OA
ATOM      4  H   UNL     1       2.229  -0.829  -3.280  0.00  0.00    +0.149 HD
ENDROOT
BRANCH   2   5
ATOM      5  C   UNL     1       3.568   0.461  -5.106  0.00  0.00    +0.042 C 
ATOM      6  C   UNL     1       4.244   1.283  -6.015  0.00  0.00    +0.013 C 
ATOM      7  C   UNL     1       4.996   0.710  -7.060  0.00  0.00    -0.001 C 
ATOM      8  C   UNL     1       4.893  -0.561  -7.464  0.00  0.00    +0.004 C 
ATOM      9  C   UNL     1       3.894  -1.472  -6.806  0.00  0.00    +0.159 C 
ATOM     10  C   UNL     1       3.749  -0.969  -5.370  0.00  0.00    -0.006 C 
ATOM     11  C   UNL     1       3.852  -2.048  -4.594  0.00  0.00    +0.026 C 
ATOM     12  C   UNL     1       4.285  -3.146  -5.374  0.00  0.00    +0.106 C 
ATOM     13  N   UNL     1       4.337  -2.854  -6.668  0.00  0.00    -0.279 NA
ENDBRANCH   2   5
BRANCH   1  14
ATOM     14  C   UNL     1       1.338   0.646  -2.040  0.00  0.00    +0.130 C 
BRANCH  14  17
ATOM     15  C   UNL     1      -0.019   1.526   0.010  0.00  0.00    +0.026 C 
ATOM     16  C   UNL     1       0.002  -0.004   0.002  0.00  0.00    +0.077 C 
ATOM     17  C   UNL     1       0.751  -0.523  -1.247  0.00  0.00    +0.129 C 
ATOM     18  N   UNL     1       1.833  -1.379  -0.707  0.00  0.00    -0.222 N 
ATOM     19  C   UNL     1       2.127  -0.713   0.602  0.00  0.00    +0.225 C 
ATOM     20  N   UNL     1       0.775  -0.516   1.168  0.00  0.00    -0.284 NA
ATOM     21  S   UNL     1       3.013  -2.078   1.442  0.00  0.00    -0.069 S 
ATOM     22  C   UNL     1       3.222  -3.134   0.015  0.00  0.00    +0.092 C 
ATOM     23  N   UNL     1       2.557  -2.534  -0.916  0.00  0.00    -0.180 NA
ATOM     24  C   UNL     1       3.996  -4.423  -0.081  0.00  0.00    +0.075 C 
ATOM     25  H   UNL     1       0.790   0.160   1.917  0.00  0.00    +0.125 HD
ENDBRANCH  14  17
ENDBRANCH   1  14
TORSDOF 3
