REMARK  Name = ZINC48945285
REMARK  1 active torsions:
REMARK  status: ('A' for Active; 'I' for Inactive)
REMARK    1  A    between atoms: C_11  and  C_13
REMARK                            x       y       z     vdW  Elec       q    Type
REMARK                         _______ _______ _______ _____ _____    ______ ____
ROOT
ATOM      1  C   UNL     1      -0.019   1.525   0.010  0.00  0.00    +0.000 C 
ATOM      2  C   UNL     1       1.420   2.011  -0.001  0.00  0.00    +0.000 C 
ATOM      3  C   UNL     1       2.110   1.707  -1.324  0.00  0.00    +0.005 C 
ATOM      4  C   UNL     1       1.325   2.369  -2.459  0.00  0.00    +0.044 C 
ATOM      5  C   UNL     1       0.160   1.524  -2.879  0.00  0.00    +0.014 A 
ATOM      6  C   UNL     1      -0.309   0.337  -2.464  0.00  0.00    +0.054 A 
ATOM      7  N   UNL     1      -1.420  -0.080  -3.097  0.00  0.00    -0.229 NA
ATOM      8  C   UNL     1      -1.983   0.612  -4.053  0.00  0.00    +0.165 A 
ATOM      9  S   UNL     1      -0.991   1.964  -4.170  0.00  0.00    -0.057 S 
ATOM     10  N   UNL     1      -3.121   0.305  -4.791  0.00  0.00    -0.262 N 
ATOM     11  C   UNL     1      -3.553   1.152  -5.746  0.00  0.00    +0.250 C 
ATOM     12  O   UNL     1      -2.950   2.182  -5.962  0.00  0.00    -0.272 OA
ATOM     13  C   UNL     1       0.317  -0.527  -1.391  0.00  0.00    +0.056 C 
ATOM     14  C   UNL     1       0.002  -0.004   0.002  0.00  0.00    +0.006 C 
ATOM     15  H   UNL     1      -3.603  -0.519  -4.618  0.00  0.00    +0.157 HD
ENDROOT
BRANCH  11  16
ATOM     16  C   UNL     1      -4.787   0.819  -6.546  0.00  0.00    +0.229 C 
ATOM     17  C   UNL     1      -4.526  -0.431  -7.391  0.00  0.00    +0.201 C 
ATOM     18  O   UNL     1      -5.660  -0.675  -8.229  0.00  0.00    -0.374 OA
ATOM     19  C   UNL     1      -5.978   0.419  -9.095  0.00  0.00    +0.188 C 
ATOM     20  C   UNL     1      -6.239   1.669  -8.249  0.00  0.00    +0.189 C 
ATOM     21  O   UNL     1      -5.106   1.913  -7.410  0.00  0.00    -0.363 OA
ENDBRANCH  11  16
TORSDOF 1
