REMARK  Name = ZINC57344511
REMARK  3 active torsions:
REMARK  status: ('A' for Active; 'I' for Inactive)
REMARK    1  A    between atoms: C_5  and  C_7
REMARK    2  A    between atoms: C_7  and  N_8
REMARK    3  A    between atoms: C_22  and  N_25
REMARK                            x       y       z     vdW  Elec       q    Type
REMARK                         _______ _______ _______ _____ _____    ______ ____
ROOT
ATOM      1  N   UNL     1       1.594  -3.008   1.232  0.00  0.00    -0.275 N 
ATOM      2  C   UNL     1       2.900  -3.124   1.573  0.00  0.00    +0.270 A 
ATOM      3  O   UNL     1       3.772  -3.111   0.720  0.00  0.00    -0.266 OA
ATOM      4  C   UNL     1       3.221  -3.259   2.921  0.00  0.00    +0.102 A 
ATOM      5  C   UNL     1       2.227  -3.277   3.916  0.00  0.00    +0.087 A 
ATOM      6  C   UNL     1       2.693  -3.419   5.231  0.00  0.00    +0.036 A 
ATOM      7  C   UNL     1       4.016  -3.528   5.475  0.00  0.00    +0.048 A 
ATOM      8  S   UNL     1       4.727  -3.438   3.840  0.00  0.00    -0.090 S 
ATOM      9  N   UNL     1       0.933  -3.153   3.478  0.00  0.00    -0.215 NA
ATOM     10  C   UNL     1       0.645  -3.022   2.212  0.00  0.00    +0.202 A 
ATOM     11  N   UNL     1      -0.675  -2.898   1.849  0.00  0.00    -0.302 N 
ATOM     12  C   UNL     1      -1.373  -1.613   1.991  0.00  0.00    +0.108 C 
ATOM     13  C   UNL     1      -2.651  -1.833   2.806  0.00  0.00    +0.017 C 
ATOM     14  C   UNL     1      -3.487  -2.933   2.148  0.00  0.00    -0.013 C 
ATOM     15  C   UNL     1      -2.692  -4.241   2.134  0.00  0.00    -0.057 C 
ATOM     16  C   UNL     1      -1.413  -4.046   1.306  0.00  0.00    +0.092 C 
ENDROOT
BRANCH  15  17
ATOM     17  N   UNL     1      -3.508  -5.304   1.531  0.00  0.00    +0.381 N 
ATOM     18  H   UNL     1      -3.750  -5.047   0.586  0.00  0.00    -0.090 HD
ATOM     19  H   UNL     1      -2.984  -6.166   1.522  0.00  0.00    -0.090 HD
ATOM     20  H   UNL     1      -4.350  -5.428   2.073  0.00  0.00    -0.090 HD
ENDBRANCH  15  17
BRANCH   1  21
ATOM     21  C   UNL     1       1.206  -2.864  -0.173  0.00  0.00    +0.166 C 
BRANCH  21  26
ATOM     22  C   UNL     1      -0.239   0.506  -1.075  0.00  0.00    +0.000 A 
ATOM     23  C   UNL     1       0.900   1.286  -1.147  0.00  0.00    +0.003 A 
ATOM     24  C   UNL     1       2.139   0.725  -0.903  0.00  0.00    +0.039 A 
ATOM     25  C   UNL     1       2.239  -0.620  -0.588  0.00  0.00    +0.128 A 
ATOM     26  C   UNL     1       1.098  -1.400  -0.516  0.00  0.00    +0.008 A 
ATOM     27  C   UNL     1      -0.140  -0.837  -0.760  0.00  0.00    +0.008 A 
ATOM     28  F   UNL     1       3.450  -1.169  -0.350  0.00  0.00    -0.205 F 
ENDBRANCH  21  26
ENDBRANCH   1  21
TORSDOF 3
