REMARK  Name = ZINC26671872
REMARK  12 active torsions:
REMARK  status: ('A' for Active; 'I' for Inactive)
REMARK    1  A    between atoms: C_1  and  C_2
REMARK    2  A    between atoms: C_10  and  C_38
REMARK    3  A    between atoms: C_11  and  C_37
REMARK    4  A    between atoms: C_21  and  C_22
REMARK    5  A    between atoms: C_22  and  C_23
REMARK    6  A    between atoms: C_23  and  C_24
REMARK    7  A    between atoms: C_29  and  C_32
REMARK    8  A    between atoms: C_30  and  C_31
REMARK    9  A    between atoms: C_32  and  C_33
REMARK   10  A    between atoms: C_33  and  C_34
REMARK   11  A    between atoms: C_40  and  C_44
REMARK   12  A    between atoms: C_41  and  C_42
REMARK                            x       y       z     vdW  Elec       q    Type
REMARK                         _______ _______ _______ _____ _____    ______ ____
ROOT
ATOM      1  C   UNL     1      -0.879   1.363  -0.031  0.00  0.00    +0.046 C 
ATOM      2  C   UNL     1      -0.762  -0.139  -0.062  0.00  0.00    -0.022 A 
ATOM      3  C   UNL     1      -0.532  -0.928  -1.206  0.00  0.00    +0.045 A 
ATOM      4  C   UNL     1      -0.387  -0.411  -2.486  0.00  0.00    +0.052 C 
ATOM      5  C   UNL     1      -0.148  -1.204  -3.610  0.00  0.00    +0.049 C 
ATOM      6  N   UNL     1      -0.012  -2.529  -3.675  0.00  0.00    -0.354 N 
ATOM      7  C   UNL     1       0.222  -2.909  -4.931  0.00  0.00    +0.045 C 
ATOM      8  C   UNL     1       0.428  -4.215  -5.397  0.00  0.00    +0.052 C 
ATOM      9  C   UNL     1       0.389  -5.328  -4.576  0.00  0.00    +0.049 A 
ATOM     10  C   UNL     1       0.590  -6.658  -5.036  0.00  0.00    +0.003 A 
ATOM     11  C   UNL     1       0.469  -7.498  -3.943  0.00  0.00    -0.018 A 
ATOM     12  C   UNL     1       0.200  -6.701  -2.818  0.00  0.00    +0.045 A 
ATOM     13  N   UNL     1       0.159  -5.385  -3.221  0.00  0.00    -0.354 N 
ATOM     14  H   UNL     1      -0.006  -4.623  -2.643  0.00  0.00    +0.166 HD
ATOM     15  C   UNL     1       0.012  -7.218  -1.542  0.00  0.00    +0.051 C 
ATOM     16  C   UNL     1      -0.244  -6.428  -0.419  0.00  0.00    +0.045 C 
ATOM     17  N   UNL     1      -0.346  -5.099  -0.356  0.00  0.00    -0.355 N 
ATOM     18  C   UNL     1      -0.584  -4.714   0.898  0.00  0.00    +0.045 C 
ATOM     19  C   UNL     1      -0.744  -3.408   1.376  0.00  0.00    +0.051 C 
ATOM     20  C   UNL     1      -0.695  -2.291   0.553  0.00  0.00    +0.045 A 
ATOM     21  C   UNL     1      -0.854  -0.968   1.011  0.00  0.00    -0.019 A 
ATOM     22  N   UNL     1      -0.489  -2.245  -0.808  0.00  0.00    -0.355 N 
ATOM     23  H   UNL     1      -0.339  -3.009  -1.386  0.00  0.00    +0.166 HD
ATOM     24  C   UNL     1      -0.657  -5.912   1.745  0.00  0.00    -0.019 C 
ATOM     25  C   UNL     1      -0.450  -6.970   0.932  0.00  0.00    -0.022 C 
ATOM     26  C   UNL     1      -0.432  -8.423   1.332  0.00  0.00    +0.046 C 
ATOM     27  C   UNL     1       0.601  -8.999  -3.957  0.00  0.00    +0.046 C 
ATOM     28  C   UNL     1       0.234  -1.770  -5.778  0.00  0.00    -0.018 C 
ATOM     29  C   UNL     1       0.005  -0.680  -4.987  0.00  0.00    +0.003 C 
ATOM     30  C   UNL     1       0.457  -1.764  -7.268  0.00  0.00    +0.046 C 
ATOM     31  H   UNL     1      -0.259  -4.500  -1.114  0.00  0.00    +0.166 HD
ATOM     32  H   UNL     1      -0.074  -3.130  -2.916  0.00  0.00    +0.166 HD
ENDROOT
BRANCH  10  33
ATOM     33  C   UNL     1       0.874  -7.068  -6.423  0.00  0.00    +0.002 C 
ATOM     34  C   UNL     1       0.113  -6.622  -7.417  0.00  0.00    +0.009 C 
ENDBRANCH  10  33
BRANCH  29  35
ATOM     35  C   UNL     1      -0.072   0.728  -5.415  0.00  0.00    +0.002 C 
ATOM     36  C   UNL     1      -0.904   1.081  -6.389  0.00  0.00    +0.009 C 
ENDBRANCH  29  35
BRANCH  21  37
ATOM     37  C   UNL     1      -1.086  -0.547   2.439  0.00  0.00    +0.049 C 
BRANCH  37  38
ATOM     38  C   UNL     1      -2.589  -0.507   2.721  0.00  0.00    +0.130 C 
BRANCH  38  39
ATOM     39  C   UNL     1      -2.821  -0.086   4.149  0.00  0.00    +0.356 C 
ATOM     40  O   UNL     1      -1.872   0.160   4.874  0.00  0.00    -0.246 OA
ATOM     41  O   UNL     1      -3.958   0.009   4.580  0.00  0.00    -0.246 OA
ENDBRANCH  38  39
ENDBRANCH  37  38
ENDBRANCH  21  37
BRANCH  24  42
ATOM     42  C   UNL     1      -0.914  -5.952   3.229  0.00  0.00    +0.049 C 
BRANCH  42  43
ATOM     43  C   UNL     1       0.404  -5.752   3.980  0.00  0.00    +0.130 C 
BRANCH  43  44
ATOM     44  C   UNL     1       0.148  -5.792   5.465  0.00  0.00    +0.356 C 
ATOM     45  O   UNL     1      -0.984  -5.964   5.883  0.00  0.00    -0.246 OA
ATOM     46  O   UNL     1       1.072  -5.652   6.247  0.00  0.00    -0.246 OA
ENDBRANCH  43  44
ENDBRANCH  42  43
ENDBRANCH  24  42
TORSDOF 8
