REMARK  Name = ZINC14754613
REMARK  7 active torsions:
REMARK  status: ('A' for Active; 'I' for Inactive)
REMARK    1  A    between atoms: C_1  and  C_2
REMARK    2  A    between atoms: C_2  and  C_3
REMARK    3  A    between atoms: C_2  and  C_4
REMARK    4  A    between atoms: C_4  and  N_5
REMARK    5  A    between atoms: C_8  and  C_10
REMARK    6  A    between atoms: C_19  and  N_63
REMARK    7  A    between atoms: C_23  and  N_63
REMARK                            x       y       z     vdW  Elec       q    Type
REMARK                         _______ _______ _______ _____ _____    ______ ____
ROOT
ATOM      1  N   UNL     1       1.839   3.236   0.095  0.00  0.00    -0.267 N 
ATOM      2  C   UNL     1       1.412   1.983  -0.137  0.00  0.00    +0.043 A 
ATOM      3  C   UNL     1       2.488   1.261  -0.536  0.00  0.00    +0.004 A 
ATOM      4  C   UNL     1       3.575   2.150  -0.528  0.00  0.00    +0.151 A 
ATOM      5  N   UNL     1       3.103   3.321  -0.136  0.00  0.00    -0.166 NA
ATOM      6  C   UNL     1       2.450  -0.198  -0.901  0.00  0.00    +0.023 C 
ATOM      7  C   UNL     1       0.987  -0.596  -1.139  0.00  0.00    -0.067 C 
ATOM      8  C   UNL     1       0.128  -0.114   0.033  0.00  0.00    -0.009 C 
ATOM      9  C   UNL     1       0.023   1.416   0.001  0.00  0.00    +0.054 C 
ENDROOT
BRANCH   4  10
ATOM     10  C   UNL     1       4.974   1.837  -0.885  0.00  0.00    +0.267 C 
ATOM     11  O   UNL     1       5.256   0.743  -1.333  0.00  0.00    -0.268 OA
ATOM     12  N   UNL     1       5.937   2.765  -0.715  0.00  0.00    -0.292 N 
ATOM     13  C   UNL     1       5.605   4.128  -0.271  0.00  0.00    +0.136 C 
ATOM     14  C   UNL     1       6.514   4.480   0.918  0.00  0.00    +0.179 C 
ATOM     15  O   UNL     1       7.876   4.245   0.551  0.00  0.00    -0.377 OA
ATOM     16  C   UNL     1       8.174   2.881   0.245  0.00  0.00    +0.179 C 
ATOM     17  C   UNL     1       7.350   2.446  -0.972  0.00  0.00    +0.136 C 
ENDBRANCH   4  10
BRANCH   7  18
ATOM     18  N   UNL     1       0.887  -2.064  -1.241  0.00  0.00    +0.383 N 
ATOM     19  H   UNL     1      -0.035  -2.365  -0.906  0.00  0.00    -0.085 HD
ATOM     20  H   UNL     1       1.619  -2.494  -0.663  0.00  0.00    -0.085 HD
BRANCH  18  21
ATOM     21  C   UNL     1       1.060  -2.493  -2.642  0.00  0.00    -0.071 C 
ATOM     22  C   UNL     1      -0.256  -2.306  -3.400  0.00  0.00    -0.016 C 
ATOM     23  C   UNL     1      -0.078  -2.759  -4.850  0.00  0.00    -0.002 C 
ATOM     24  C   UNL     1       0.320  -4.237  -4.878  0.00  0.00    -0.000 C 
ATOM     25  C   UNL     1       1.636  -4.424  -4.120  0.00  0.00    -0.002 C 
ATOM     26  C   UNL     1       1.458  -3.970  -2.669  0.00  0.00    -0.016 C 
ENDBRANCH  18  21
ENDBRANCH   7  18
BRANCH   1  27
ATOM     27  C   UNL     1       0.990   4.342   0.543  0.00  0.00    +0.146 C 
BRANCH  27  29
ATOM     28  C   UNL     1       0.185   5.609   2.541  0.00  0.00    +0.009 C 
ATOM     29  C   UNL     1       0.969   4.381   2.073  0.00  0.00    +0.004 C 
ATOM     30  C   UNL     1       0.297   3.114   2.606  0.00  0.00    +0.009 C 
ENDBRANCH  27  29
ENDBRANCH   1  27
TORSDOF 5
