REMARK  Name = ZINC03600915
REMARK  5 active torsions:
REMARK  status: ('A' for Active; 'I' for Inactive)
REMARK    1  A    between atoms: C_4  and  C_7
REMARK    2  A    between atoms: C_7  and  C_8
REMARK    3  A    between atoms: C_13  and  N_14
REMARK    4  A    between atoms: C_15  and  C_17
REMARK    5  A    between atoms: C_17  and  N_18
REMARK                            x       y       z     vdW  Elec       q    Type
REMARK                         _______ _______ _______ _____ _____    ______ ____
ROOT
ATOM      1  C   UNL     1      -5.220   5.032   1.472  0.00  0.00    +0.214 C 
ENDROOT
BRANCH   1   2
ATOM      2  N   UNL     1      -6.054   5.826   2.378  0.00  0.00    -0.215 N 
ATOM      3  C   UNL     1      -7.394   5.709   2.473  0.00  0.00    +0.251 C 
ATOM      4  O   UNL     1      -8.111   4.956   1.848  0.00  0.00    -0.272 OA
ATOM      5  C   UNL     1      -7.816   6.712   3.524  0.00  0.00    +0.138 C 
ATOM      6  C   UNL     1      -8.755   7.744   2.914  0.00  0.00    +0.040 C 
ATOM      7  C   UNL     1      -9.307   8.626   4.041  0.00  0.00    +0.008 C 
ATOM      8  C   UNL     1     -10.245   7.781   4.901  0.00  0.00    +0.035 C 
ATOM      9  C   UNL     1      -9.567   6.506   5.331  0.00  0.00    -0.042 A 
ATOM     10  C   UNL     1      -8.451   6.010   4.691  0.00  0.00    -0.012 A 
ATOM     11  C   UNL     1      -7.880   4.823   5.128  0.00  0.00    +0.006 A 
ATOM     12  C   UNL     1      -8.418   4.138   6.199  0.00  0.00    +0.000 A 
ATOM     13  C   UNL     1      -9.535   4.637   6.842  0.00  0.00    +0.000 A 
ATOM     14  C   UNL     1     -10.106   5.816   6.408  0.00  0.00    +0.004 A 
ATOM     15  N   UNL     1      -6.555   7.345   3.934  0.00  0.00    -0.281 N 
ATOM     16  C   UNL     1      -5.581   6.761   3.211  0.00  0.00    +0.310 C 
ATOM     17  O   UNL     1      -4.404   7.051   3.304  0.00  0.00    -0.252 OA
ATOM     18  H   UNL     1      -6.446   8.046   4.596  0.00  0.00    +0.152 HD
ENDBRANCH   1   2
BRANCH   1  20
ATOM     19  N   UNL     1      -3.988   2.888   1.529  0.00  0.00    -0.284 N 
ATOM     20  C   UNL     1      -4.771   3.776   2.174  0.00  0.00    +0.235 C 
ATOM     21  O   UNL     1      -5.114   3.565   3.317  0.00  0.00    -0.274 OA
ATOM     22  H   UNL     1      -3.648   3.094   0.644  0.00  0.00    +0.155 HD
BRANCH  19  28
ATOM     23  C   UNL     1      -2.513   0.991   1.767  0.00  0.00    -0.022 A 
ATOM     24  C   UNL     1      -2.195  -0.209   2.373  0.00  0.00    +0.006 A 
ATOM     25  C   UNL     1      -3.026  -0.737   3.344  0.00  0.00    +0.000 A 
ATOM     26  C   UNL     1      -4.178  -0.066   3.711  0.00  0.00    +0.002 A 
ATOM     27  C   UNL     1      -4.502   1.134   3.108  0.00  0.00    +0.023 A 
ATOM     28  C   UNL     1      -3.666   1.669   2.137  0.00  0.00    +0.037 A 
BRANCH  23  29
ATOM     29  C   UNL     1      -1.605   1.566   0.710  0.00  0.00    +0.072 C 
BRANCH  29  33
ATOM     30  C   UNL     1       1.087   4.357   2.501  0.00  0.00    +0.000 A 
ATOM     31  C   UNL     1       1.437   3.024   2.405  0.00  0.00    +0.000 A 
ATOM     32  C   UNL     1       0.564   2.120   1.829  0.00  0.00    +0.004 A 
ATOM     33  C   UNL     1      -0.657   2.550   1.344  0.00  0.00    -0.043 A 
ATOM     34  C   UNL     1      -1.009   3.884   1.444  0.00  0.00    +0.004 A 
ATOM     35  C   UNL     1      -0.136   4.787   2.021  0.00  0.00    +0.000 A 
ENDBRANCH  29  33
ENDBRANCH  23  29
ENDBRANCH  19  28
ENDBRANCH   1  20
TORSDOF 5
