REMARK  Name = ZINC40337918
REMARK  7 active torsions:
REMARK  status: ('A' for Active; 'I' for Inactive)
REMARK    1  A    between atoms: C_1  and  C_2
REMARK    2  A    between atoms: C_5  and  N_22
REMARK    3  A    between atoms: C_6  and  S_9
REMARK    4  A    between atoms: C_7  and  C_8
REMARK    5  A    between atoms: S_9  and  N_12
REMARK    6  A    between atoms: C_16  and  C_18
REMARK    7  A    between atoms: N_20  and  C_21
REMARK                            x       y       z     vdW  Elec       q    Type
REMARK                         _______ _______ _______ _____ _____    ______ ____
ROOT
ATOM      1  S   UNL     1      -0.090  -3.839   1.575  0.00  0.00    +0.064 S 
ATOM      2  O   UNL     1      -1.345  -3.177   1.665  0.00  0.00    -0.153 OA
ATOM      3  O   UNL     1       0.021  -5.253   1.490  0.00  0.00    -0.153 OA
ENDROOT
BRANCH   1   9
ATOM      4  C   UNL     1       0.692  -0.026  -1.911  0.00  0.00    +0.044 C 
ATOM      5  C   UNL     1       1.043  -1.404  -1.414  0.00  0.00    -0.046 A 
ATOM      6  C   UNL     1       2.004  -2.151  -2.071  0.00  0.00    +0.005 A 
ATOM      7  C   UNL     1       2.329  -3.414  -1.618  0.00  0.00    +0.025 A 
ATOM      8  C   UNL     1       1.689  -3.935  -0.500  0.00  0.00    +0.052 A 
ATOM      9  C   UNL     1       0.725  -3.183   0.158  0.00  0.00    +0.129 A 
ATOM     10  C   UNL     1       0.409  -1.917  -0.298  0.00  0.00    -0.019 A 
ATOM     11  C   UNL     1      -0.633  -1.098   0.419  0.00  0.00    +0.046 C 
BRANCH   8  12
ATOM     12  N   UNL     1       2.014  -5.213  -0.040  0.00  0.00    -0.356 N 
ATOM     13  H   UNL     1       2.433  -5.852  -0.637  0.00  0.00    +0.142 HD
ATOM     14  H   UNL     1       1.822  -5.461   0.878  0.00  0.00    +0.142 HD
ENDBRANCH   8  12
ENDBRANCH   1   9
BRANCH   1  15
ATOM     15  N   UNL     1       0.785  -3.374   2.902  0.00  0.00    -0.165 NA
ATOM     16  C   UNL     1       0.642  -2.095   3.622  0.00  0.00    +0.110 C 
ATOM     17  C   UNL     1       1.167  -2.384   5.051  0.00  0.00    +0.019 C 
ATOM     18  C   UNL     1       2.346  -3.349   4.760  0.00  0.00    +0.031 C 
ATOM     19  C   UNL     1       1.830  -4.171   3.561  0.00  0.00    +0.165 C 
BRANCH  19  20
ATOM     20  C   UNL     1       1.252  -5.477   4.043  0.00  0.00    +0.232 C 
ATOM     21  O   UNL     1       0.070  -5.557   4.303  0.00  0.00    -0.274 OA
ATOM     22  N   UNL     1       2.047  -6.555   4.186  0.00  0.00    -0.317 N 
ATOM     23  C   UNL     1       1.485  -7.824   4.654  0.00  0.00    +0.128 C 
ATOM     24  H   UNL     1       2.993  -6.491   3.978  0.00  0.00    +0.148 HD
ENDBRANCH  19  20
ENDBRANCH   1  15
TORSDOF 4
