REMARK  Name = ZINC14457107
REMARK  5 active torsions:
REMARK  status: ('A' for Active; 'I' for Inactive)
REMARK    1  A    between atoms: C_1  and  O_2
REMARK    2  A    between atoms: O_2  and  C_3
REMARK    3  A    between atoms: C_6  and  C_10
REMARK    4  A    between atoms: C_8  and  O_9
REMARK    5  A    between atoms: C_21  and  N_26
REMARK                            x       y       z     vdW  Elec       q    Type
REMARK                         _______ _______ _______ _____ _____    ______ ____
ROOT
ATOM      1  C   UNL     1      -3.749   3.156   0.082  0.00  0.00    +0.105 C 
ATOM      2  C   UNL     1      -3.746   1.883   0.910  0.00  0.00    +0.029 C 
ATOM      3  C   UNL     1      -5.041   1.060   0.933  0.00  0.00    +0.033 C 
ATOM      4  C   UNL     1      -4.502  -0.355   1.151  0.00  0.00    -0.030 C 
ATOM      5  C   UNL     1      -3.258  -0.442   0.694  0.00  0.00    -0.023 C 
ATOM      6  C   UNL     1      -2.849   0.879   0.126  0.00  0.00    +0.049 C 
ATOM      7  C   UNL     1      -1.459   1.380   0.167  0.00  0.00    -0.017 A 
ATOM      8  C   UNL     1      -0.370   0.538   0.228  0.00  0.00    +0.038 A 
ATOM      9  C   UNL     1       0.913   1.055   0.233  0.00  0.00    +0.127 A 
ATOM     10  C   UNL     1       1.106   2.424   0.184  0.00  0.00    +0.034 A 
ATOM     11  C   UNL     1       0.022   3.276   0.138  0.00  0.00    +0.025 A 
ATOM     12  C   UNL     1      -1.271   2.767   0.135  0.00  0.00    +0.032 A 
ATOM     13  N   UNL     1      -2.356   3.652   0.108  0.00  0.00    -0.336 N 
ATOM     14  H   UNL     1      -2.191   4.608   0.107  0.00  0.00    +0.147 HD
ENDROOT
BRANCH   1  18
ATOM     15  C   UNL     1      -4.931   2.299  -3.938  0.00  0.00    +0.161 A 
ATOM     16  C   UNL     1      -3.593   2.256  -3.582  0.00  0.00    +0.050 A 
ATOM     17  C   UNL     1      -3.213   2.539  -2.283  0.00  0.00    +0.009 A 
ATOM     18  C   UNL     1      -4.168   2.854  -1.334  0.00  0.00    -0.023 A 
ATOM     19  C   UNL     1      -5.505   2.899  -1.682  0.00  0.00    +0.054 A 
ATOM     20  C   UNL     1      -5.891   2.622  -2.983  0.00  0.00    +0.159 A 
BRANCH  15  22
ATOM     21  C   UNL     1      -4.266   1.704  -6.142  0.00  0.00    +0.277 C 
ATOM     22  O   UNL     1      -5.306   2.027  -5.216  0.00  0.00    -0.491 OA
ENDBRANCH  15  22
BRANCH  20  23
ATOM     23  O   UNL     1      -7.206   2.665  -3.328  0.00  0.00    -0.503 OA
ATOM     24  H   UNL     1      -7.505   3.532  -3.633  0.00  0.00    +0.292 HD
ENDBRANCH  20  23
ENDBRANCH   1  18
BRANCH   9  25
ATOM     25  N   UNL     1       2.078   0.144   0.291  0.00  0.00    +0.056 N 
ATOM     26  O   UNL     1       1.907  -1.061   0.335  0.00  0.00    -0.126 OA
ATOM     27  O   UNL     1       3.207   0.600   0.296  0.00  0.00    -0.126 OA
ENDBRANCH   9  25
TORSDOF 4
