REMARK  Name = ZINC09942474
REMARK  7 active torsions:
REMARK  status: ('A' for Active; 'I' for Inactive)
REMARK    1  A    between atoms: C_1  and  C_2
REMARK    2  A    between atoms: C_6  and  C_8
REMARK    3  A    between atoms: C_8  and  S_9
REMARK    4  A    between atoms: S_9  and  C_10
REMARK    5  A    between atoms: C_21  and  C_23
REMARK    6  A    between atoms: C_33  and  C_35
REMARK    7  A    between atoms: C_33  and  C_36
REMARK                            x       y       z     vdW  Elec       q    Type
REMARK                         _______ _______ _______ _____ _____    ______ ____
ROOT
ATOM      1  C   UNL     1       4.363   4.844   2.307  0.00  0.00    +0.171 A 
ATOM      2  N   UNL     1       5.456   4.243   1.760  0.00  0.00    -0.302 N 
ATOM      3  H   UNL     1       6.345   4.498   2.052  0.00  0.00    +0.171 HD
ATOM      4  C   UNL     1       5.304   3.294   0.812  0.00  0.00    +0.258 A 
ATOM      5  O   UNL     1       6.277   2.751   0.314  0.00  0.00    -0.267 OA
ATOM      6  C   UNL     1       4.010   2.944   0.412  0.00  0.00    +0.069 A 
ATOM      7  C   UNL     1       2.932   3.582   1.001  0.00  0.00    +0.135 A 
ATOM      8  N   UNL     1       3.142   4.518   1.933  0.00  0.00    -0.208 NA
ATOM      9  N   UNL     1       1.647   3.242   0.625  0.00  0.00    -0.302 N 
ATOM     10  C   UNL     1       1.396   2.052  -0.000  0.00  0.00    +0.017 C 
ATOM     11  C   UNL     1       2.387   1.366  -0.609  0.00  0.00    +0.024 C 
ATOM     12  C   UNL     1       3.798   1.895  -0.639  0.00  0.00    +0.094 C 
ATOM     13  C   UNL     1       2.133   0.136  -1.242  0.00  0.00    +0.162 C 
ATOM     14  O   UNL     1       3.044  -0.448  -1.795  0.00  0.00    -0.292 OA
ATOM     15  C   UNL     1       0.757  -0.471  -1.247  0.00  0.00    +0.086 C 
ATOM     16  C   UNL     1       0.002  -0.004   0.002  0.00  0.00    -0.023 C 
ATOM     17  C   UNL     1      -0.019   1.526   0.010  0.00  0.00    +0.058 C 
ATOM     18  C   UNL     1       0.714  -0.516   1.256  0.00  0.00    +0.011 C 
ATOM     19  C   UNL     1      -1.431  -0.538  -0.032  0.00  0.00    +0.011 C 
ATOM     20  H   UNL     1       0.916   3.853   0.807  0.00  0.00    +0.153 HD
ENDROOT
BRANCH  12  21
ATOM     21  C   UNL     1       4.073   2.492  -1.995  0.00  0.00    -0.017 A 
ATOM     22  C   UNL     1       3.306   3.547  -2.454  0.00  0.00    +0.006 A 
ATOM     23  C   UNL     1       3.558   4.095  -3.697  0.00  0.00    +0.000 A 
ATOM     24  C   UNL     1       4.577   3.589  -4.483  0.00  0.00    +0.001 A 
ATOM     25  C   UNL     1       5.345   2.535  -4.025  0.00  0.00    +0.020 A 
ATOM     26  C   UNL     1       5.096   1.989  -2.778  0.00  0.00    +0.045 A 
ATOM     27 CL   UNL     1       6.065   0.670  -2.199  0.00  0.00    -0.083 Cl
ENDBRANCH  12  21
BRANCH   1  28
ATOM     28  S   UNL     1       4.585   6.082   3.541  0.00  0.00    -0.083 S 
BRANCH  28  29
ATOM     29  C   UNL     1       2.858   6.501   3.881  0.00  0.00    +0.112 C 
BRANCH  29  35
ATOM     30  C   UNL     1       2.613   7.826   8.701  0.00  0.00    +0.044 C 
ATOM     31  C   UNL     1       2.683   8.207   7.244  0.00  0.00    -0.050 A 
ATOM     32  C   UNL     1       2.692   9.540   6.878  0.00  0.00    +0.003 A 
ATOM     33  C   UNL     1       2.756   9.890   5.542  0.00  0.00    +0.001 A 
ATOM     34  C   UNL     1       2.809   8.906   4.572  0.00  0.00    +0.004 A 
ATOM     35  C   UNL     1       2.800   7.573   4.938  0.00  0.00    -0.037 A 
ATOM     36  C   UNL     1       2.731   7.224   6.274  0.00  0.00    +0.007 A 
ENDBRANCH  29  35
ENDBRANCH  28  29
ENDBRANCH   1  28
TORSDOF 4
