REMARK  Name = ZINC13361621
REMARK  6 active torsions:
REMARK  status: ('A' for Active; 'I' for Inactive)
REMARK    1  A    between atoms: C_1  and  C_2
REMARK    2  A    between atoms: C_9  and  N_14
REMARK    3  A    between atoms: C_10  and  C_11
REMARK    4  A    between atoms: C_15  and  C_17
REMARK    5  A    between atoms: C_20  and  S_23
REMARK    6  A    between atoms: S_23  and  N_26
REMARK                            x       y       z     vdW  Elec       q    Type
REMARK                         _______ _______ _______ _____ _____    ______ ____
ROOT
ATOM      1  N   UNL     1      -1.072  -0.880   0.007  0.00  0.00    -0.275 N 
ATOM      2  C   UNL     1      -2.331  -0.401   0.022  0.00  0.00    +0.249 C 
ATOM      3  O   UNL     1      -2.526   0.799   0.031  0.00  0.00    -0.270 OA
ATOM      4  H   UNL     1      -0.917  -1.837   0.000  0.00  0.00    +0.156 HD
ENDROOT
BRANCH   1  12
ATOM      5  C   UNL     1       4.705   4.392  -0.116  0.00  0.00    +0.008 C 
ATOM      6  C   UNL     1       3.891   3.127  -0.398  0.00  0.00    -0.009 C 
ATOM      7  C   UNL     1       4.445   1.962   0.428  0.00  0.00    +0.008 C 
ATOM      8  C   UNL     1       3.805   0.650  -0.030  0.00  0.00    +0.037 C 
ATOM      9  C   UNL     1       2.290   0.813  -0.015  0.00  0.00    -0.023 A 
ATOM     10  C   UNL     1       1.722   2.038  -0.003  0.00  0.00    -0.004 A 
ATOM     11  S   UNL     1      -0.021   1.728   0.011  0.00  0.00    -0.077 S 
ATOM     12  C   UNL     1       0.002  -0.004   0.002  0.00  0.00    +0.085 A 
ATOM     13  C   UNL     1       1.358  -0.302  -0.012  0.00  0.00    +0.068 A 
ATOM     14  C   UNL     1       2.425   3.360  -0.004  0.00  0.00    +0.046 C 
BRANCH  13  15
ATOM     15  C   UNL     1       1.831  -1.689  -0.025  0.00  0.00    +0.244 C 
ATOM     16  O   UNL     1       2.018  -2.259  -1.084  0.00  0.00    -0.270 OA
ATOM     17  N   UNL     1       2.060  -2.333   1.137  0.00  0.00    -0.325 N 
ATOM     18  H   UNL     1       1.912  -1.879   1.981  0.00  0.00    +0.145 HD
ATOM     19  H   UNL     1       2.374  -3.252   1.128  0.00  0.00    +0.145 HD
ENDBRANCH  13  15
ENDBRANCH   1  12
BRANCH   2  20
ATOM     20  C   UNL     1      -3.477  -1.335   0.028  0.00  0.00    +0.037 A 
ATOM     21  C   UNL     1      -3.257  -2.714   0.012  0.00  0.00    +0.015 A 
ATOM     22  C   UNL     1      -4.331  -3.580   0.023  0.00  0.00    +0.029 A 
ATOM     23  C   UNL     1      -5.623  -3.085   0.038  0.00  0.00    +0.109 A 
ATOM     24  C   UNL     1      -5.848  -1.720   0.048  0.00  0.00    +0.029 A 
ATOM     25  C   UNL     1      -4.783  -0.843   0.043  0.00  0.00    +0.015 A 
BRANCH  23  26
ATOM     26  S   UNL     1      -6.989  -4.199   0.044  0.00  0.00    +0.075 S 
ATOM     27  O   UNL     1      -6.511  -5.424   0.583  0.00  0.00    -0.150 OA
ATOM     28  O   UNL     1      -8.085  -3.494   0.610  0.00  0.00    -0.150 OA
BRANCH  26  29
ATOM     29  N   UNL     1      -7.383  -4.498  -1.536  0.00  0.00    -0.202 N 
ATOM     30  C   UNL     1      -6.824  -5.581  -2.350  0.00  0.00    +0.136 C 
ATOM     31  C   UNL     1      -7.497  -5.440  -3.725  0.00  0.00    +0.058 C 
ATOM     32  C   UNL     1      -8.416  -4.248  -3.578  0.00  0.00    -0.023 A 
ATOM     33  C   UNL     1      -8.301  -3.760  -2.285  0.00  0.00    +0.054 A 
ATOM     34  C   UNL     1      -9.056  -2.647  -1.911  0.00  0.00    +0.025 A 
ATOM     35  C   UNL     1      -9.911  -2.051  -2.815  0.00  0.00    +0.002 A 
ATOM     36  C   UNL     1     -10.023  -2.550  -4.099  0.00  0.00    +0.000 A 
ATOM     37  C   UNL     1      -9.274  -3.649  -4.479  0.00  0.00    +0.005 A 
ENDBRANCH  26  29
ENDBRANCH  23  26
ENDBRANCH   2  20
TORSDOF 5
