REMARK  Name = ZINC24901496
REMARK  13 active torsions:
REMARK  status: ('A' for Active; 'I' for Inactive)
REMARK    1  A    between atoms: C_1  and  C_2
REMARK    2  A    between atoms: C_2  and  O_3
REMARK    3  A    between atoms: O_3  and  C_4
REMARK    4  A    between atoms: C_4  and  C_6
REMARK    5  A    between atoms: C_10  and  N_11
REMARK    6  A    between atoms: C_12  and  C_14
REMARK    7  A    between atoms: C_14  and  C_16
REMARK    8  A    between atoms: C_14  and  S_17
REMARK    9  A    between atoms: S_17  and  C_18
REMARK   10  A    between atoms: C_20  and  C_27
REMARK   11  A    between atoms: C_21  and  C_23
REMARK   12  A    between atoms: C_23  and  C_24
REMARK   13  A    between atoms: C_29  and  C_33
REMARK                            x       y       z     vdW  Elec       q    Type
REMARK                         _______ _______ _______ _____ _____    ______ ____
ROOT
ATOM      1  N   UNL     1       4.611   0.896   4.419  0.00  0.00    -0.278 N 
ATOM      2  C   UNL     1       5.895   1.106   4.066  0.00  0.00    +0.231 C 
ATOM      3  O   UNL     1       6.169   1.401   2.922  0.00  0.00    -0.274 OA
ATOM      4  H   UNL     1       4.362   0.628   5.456  0.00  0.00    +0.155 HD
ENDROOT
BRANCH   1   9
ATOM      5  C   UNL     1       2.236   0.845   3.643  0.00  0.00    +0.091 A 
ATOM      6  C   UNL     1       1.387   1.034   2.479  0.00  0.00    -0.021 A 
ATOM      7  C   UNL     1       2.035   1.365   1.342  0.00  0.00    -0.004 A 
ATOM      8  S   UNL     1       3.745   1.427   1.796  0.00  0.00    -0.077 S 
ATOM      9  C   UNL     1       3.604   1.019   3.474  0.00  0.00    +0.086 A 
ATOM     10  C   UNL     1       1.427   1.620  -0.003  0.00  0.00    +0.046 C 
ATOM     11  C   UNL     1      -0.013   1.086   0.008  0.00  0.00    -0.009 C 
ATOM     12  C   UNL     1      -0.714   1.583   1.276  0.00  0.00    +0.008 C 
ATOM     13  C   UNL     1      -0.129   0.880   2.502  0.00  0.00    +0.037 C 
ATOM     14  C   UNL     1      -0.758   1.595  -1.227  0.00  0.00    +0.008 C 
BRANCH   5  15
ATOM     15  C   UNL     1       1.672   0.484   4.945  0.00  0.00    +0.342 C 
ATOM     16  O   UNL     1       1.337   1.355   5.726  0.00  0.00    -0.245 OA
BRANCH  15  17
ATOM     17  O   UNL     1       1.523  -0.814   5.279  0.00  0.00    -0.461 OA
BRANCH  17  19
ATOM     18  C   UNL     1       0.865  -2.612   6.785  0.00  0.00    +0.048 C 
ATOM     19  C   UNL     1       0.956  -1.098   6.586  0.00  0.00    +0.229 C 
ENDBRANCH  17  19
ENDBRANCH  15  17
ENDBRANCH   5  15
ENDBRANCH   1   9
BRANCH   2  20
ATOM     20  C   UNL     1       6.990   0.972   5.093  0.00  0.00    +0.136 C 
ATOM     21  C   UNL     1       7.412  -0.494   5.200  0.00  0.00    +0.029 C 
BRANCH  20  22
ATOM     22  S   UNL     1       8.411   1.974   4.592  0.00  0.00    -0.086 S 
BRANCH  22  23
ATOM     23  C   UNL     1       9.447   1.761   6.001  0.00  0.00    +0.136 A 
ATOM     24  N   UNL     1       9.220   1.066   7.100  0.00  0.00    -0.238 NA
ATOM     25  C   UNL     1      10.115   1.008   8.069  0.00  0.00    +0.050 A 
ATOM     26  C   UNL     1      11.276   1.690   7.917  0.00  0.00    +0.022 A 
ATOM     27  S   UNL     1      11.026   2.417   6.304  0.00  0.00    -0.065 S 
ATOM     28  C   UNL     1       9.848   0.208   9.317  0.00  0.00    +0.066 C 
BRANCH  26  29
ATOM     29  C   UNL     1      12.453   1.803   8.851  0.00  0.00    +0.139 C 
BRANCH  29  30
ATOM     30  C   UNL     1      13.436   0.699   8.557  0.00  0.00    +0.215 C 
ATOM     31  O   UNL     1      13.203  -0.101   7.675  0.00  0.00    -0.276 OA
ATOM     32  N   UNL     1      14.573   0.601   9.273  0.00  0.00    -0.329 N 
ATOM     33  H   UNL     1      15.291  -0.205   9.058  0.00  0.00    +0.145 HD
ATOM     34  H   UNL     1      14.784   1.326  10.073  0.00  0.00    +0.145 HD
ENDBRANCH  29  30
ENDBRANCH  26  29
ENDBRANCH  22  23
ENDBRANCH  20  22
ENDBRANCH   2  20
TORSDOF 9
