REMARK  Name = ZINC00638093
REMARK  5 active torsions:
REMARK  status: ('A' for Active; 'I' for Inactive)
REMARK    1  A    between atoms: C_1  and  S_2
REMARK    2  A    between atoms: S_2  and  C_3
REMARK    3  A    between atoms: C_8  and  C_22
REMARK    4  A    between atoms: C_11  and  C_14
REMARK    5  A    between atoms: C_19  and  O_20
REMARK                            x       y       z     vdW  Elec       q    Type
REMARK                         _______ _______ _______ _____ _____    ______ ____
ROOT
ATOM      1  C   UNL     1       0.877  -0.427   1.472  0.00  0.00    +0.210 A 
ATOM      2  N   UNL     1       1.378   0.447   2.358  0.00  0.00    -0.188 NA
ATOM      3  C   UNL     1       1.962  -0.205   3.329  0.00  0.00    +0.216 A 
ATOM      4  N   UNL     1       1.846  -1.530   3.077  0.00  0.00    -0.225 N 
ATOM      5  N   UNL     1       1.138  -1.649   1.880  0.00  0.00    -0.141 NA
ATOM      6  C   UNL     1       2.381  -2.583   3.941  0.00  0.00    +0.143 C 
ATOM      7  C   UNL     1       3.453  -1.976   4.854  0.00  0.00    +0.059 C 
ATOM      8  C   UNL     1       2.911  -0.702   5.513  0.00  0.00    +0.109 C 
ATOM      9  N   UNL     1       2.610   0.283   4.456  0.00  0.00    -0.307 N 
ATOM     10  H   UNL     1       2.852   1.218   4.543  0.00  0.00    +0.150 HD
ENDROOT
BRANCH   8  11
ATOM     11  C   UNL     1       1.655  -1.025   6.280  0.00  0.00    +0.017 A 
ATOM     12  C   UNL     1       0.419  -0.853   5.687  0.00  0.00    +0.047 A 
ATOM     13  C   UNL     1      -0.735  -1.150   6.392  0.00  0.00    +0.124 A 
ATOM     14  C   UNL     1      -0.652  -1.619   7.692  0.00  0.00    +0.042 A 
ATOM     15  C   UNL     1       0.582  -1.791   8.288  0.00  0.00    +0.048 A 
ATOM     16  C   UNL     1       1.739  -1.499   7.581  0.00  0.00    +0.122 A 
ATOM     17  F   UNL     1      -1.943  -0.982   5.811  0.00  0.00    -0.205 F 
BRANCH  16  18
ATOM     18  O   UNL     1       2.955  -1.674   8.164  0.00  0.00    -0.506 OA
ATOM     19  H   UNL     1       3.280  -0.895   8.637  0.00  0.00    +0.292 HD
ENDBRANCH  16  18
ENDBRANCH   8  11
BRANCH   6  20
ATOM     20  C   UNL     1       2.992  -3.669   3.093  0.00  0.00    -0.023 A 
ATOM     21  C   UNL     1       4.043  -3.375   2.245  0.00  0.00    +0.006 A 
ATOM     22  C   UNL     1       4.604  -4.371   1.468  0.00  0.00    +0.000 A 
ATOM     23  C   UNL     1       4.114  -5.662   1.539  0.00  0.00    +0.000 A 
ATOM     24  C   UNL     1       3.063  -5.956   2.388  0.00  0.00    +0.000 A 
ATOM     25  C   UNL     1       2.506  -4.961   3.168  0.00  0.00    +0.006 A 
ENDBRANCH   6  20
BRANCH   1  27
ATOM     26  C   UNL     1      -0.022   1.810   0.012  0.00  0.00    +0.093 C 
ATOM     27  S   UNL     1       0.002  -0.004   0.002  0.00  0.00    -0.088 S 
ENDBRANCH   1  27
TORSDOF 4
