REMARK  Name = ZINC45547207
REMARK  8 active torsions:
REMARK  status: ('A' for Active; 'I' for Inactive)
REMARK    1  A    between atoms: C_4  and  C_7
REMARK    2  A    between atoms: C_7  and  N_8
REMARK    3  A    between atoms: N_8  and  S_9
REMARK    4  A    between atoms: S_9  and  C_12
REMARK    5  A    between atoms: C_16  and  C_18
REMARK    6  A    between atoms: N_20  and  N_21
REMARK    7  A    between atoms: C_22  and  C_24
REMARK    8  A    between atoms: C_24  and  C_28
REMARK                            x       y       z     vdW  Elec       q    Type
REMARK                         _______ _______ _______ _____ _____    ______ ____
ROOT
ATOM      1  C   UNL     1      10.091   0.594   3.526  0.00  0.00    +0.260 C 
ATOM      2  O   UNL     1      10.181   1.051   4.649  0.00  0.00    -0.269 OA
ATOM      3  N   UNL     1      10.934   1.009   2.560  0.00  0.00    -0.230 N 
ATOM      4  H   UNL     1      10.863   0.644   1.664  0.00  0.00    +0.173 HD
ENDROOT
BRANCH   1   9
ATOM      5  C   UNL     1       7.222  -1.796   3.928  0.00  0.00    +0.106 A 
ATOM      6  C   UNL     1       7.123  -2.315   2.649  0.00  0.00    +0.028 A 
ATOM      7  C   UNL     1       7.986  -1.890   1.655  0.00  0.00    +0.003 A 
ATOM      8  C   UNL     1       8.952  -0.946   1.933  0.00  0.00    +0.013 A 
ATOM      9  C   UNL     1       9.058  -0.418   3.221  0.00  0.00    +0.040 A 
ATOM     10  C   UNL     1       8.180  -0.847   4.218  0.00  0.00    +0.041 A 
BRANCH   5  11
ATOM     11  S   UNL     1       6.118  -2.344   5.187  0.00  0.00    +0.059 S 
ATOM     12  O   UNL     1       6.766  -2.103   6.428  0.00  0.00    -0.153 OA
ATOM     13  O   UNL     1       5.669  -3.636   4.800  0.00  0.00    -0.153 OA
BRANCH  11  14
ATOM     14  N   UNL     1       4.794  -1.350   5.144  0.00  0.00    -0.186 NA
ATOM     15  H   UNL     1       4.597  -0.772   5.897  0.00  0.00    +0.148 HD
BRANCH  14  16
ATOM     16  C   UNL     1       3.921  -1.344   3.967  0.00  0.00    +0.141 C 
BRANCH  16  20
ATOM     17  C   UNL     1       0.239   0.594   4.934  0.00  0.00    +0.000 A 
ATOM     18  C   UNL     1       1.299   1.331   4.440  0.00  0.00    +0.000 A 
ATOM     19  C   UNL     1       2.491   0.704   4.127  0.00  0.00    +0.005 A 
ATOM     20  C   UNL     1       2.623  -0.660   4.309  0.00  0.00    -0.032 A 
ATOM     21  C   UNL     1       1.563  -1.397   4.804  0.00  0.00    +0.005 A 
ATOM     22  C   UNL     1       0.371  -0.770   5.115  0.00  0.00    +0.000 A 
ENDBRANCH  16  20
ENDBRANCH  14  16
ENDBRANCH  11  14
ENDBRANCH   5  11
ENDBRANCH   1   9
BRANCH   3  23
ATOM     23  N   UNL     1      11.914   1.968   2.850  0.00  0.00    -0.233 N 
ATOM     24  C   UNL     1      12.757   2.384   1.883  0.00  0.00    +0.240 C 
ATOM     25  O   UNL     1      12.728   1.863   0.788  0.00  0.00    -0.273 OA
ATOM     26  H   UNL     1      11.985   2.333   3.745  0.00  0.00    +0.173 HD
BRANCH  24  27
ATOM     27  C   UNL     1      13.735   3.495   2.163  0.00  0.00    +0.073 C 
ATOM     28  C   UNL     1      14.898   3.559   1.160  0.00  0.00    +0.021 C 
ATOM     29  C   UNL     1      15.650   2.591   2.089  0.00  0.00    +0.003 C 
ATOM     30  C   UNL     1      14.781   3.140   3.233  0.00  0.00    +0.021 C 
BRANCH  27  31
ATOM     31  C   UNL     1      13.061   4.823   2.396  0.00  0.00    -0.031 A 
ATOM     32  C   UNL     1      13.130   5.425   3.638  0.00  0.00    +0.005 A 
ATOM     33  C   UNL     1      12.512   6.643   3.852  0.00  0.00    +0.002 A 
ATOM     34  C   UNL     1      11.825   7.260   2.823  0.00  0.00    +0.020 A 
ATOM     35  C   UNL     1      11.756   6.658   1.579  0.00  0.00    +0.041 A 
ATOM     36  C   UNL     1      12.380   5.441   1.365  0.00  0.00    +0.024 A 
ATOM     37 CL   UNL     1      10.893   7.431   0.287  0.00  0.00    -0.084 Cl
ENDBRANCH  27  31
ENDBRANCH  24  27
ENDBRANCH   3  23
TORSDOF 8
