REMARK  Name = ZINC00958605
REMARK  8 active torsions:
REMARK  status: ('A' for Active; 'I' for Inactive)
REMARK    1  A    between atoms: C_1  and  C_2
REMARK    2  A    between atoms: C_2  and  C_37
REMARK    3  A    between atoms: C_6  and  C_26
REMARK    4  A    between atoms: C_13  and  S_17
REMARK    5  A    between atoms: S_17  and  C_18
REMARK    6  A    between atoms: C_18  and  C_19
REMARK    7  A    between atoms: C_31  and  O_32
REMARK    8  A    between atoms: O_32  and  C_33
REMARK                            x       y       z     vdW  Elec       q    Type
REMARK                         _______ _______ _______ _____ _____    ______ ____
ROOT
ATOM      1  C   UNL     1       7.257  -0.157   0.930  0.00  0.00    +0.011 C 
ATOM      2  C   UNL     1       7.132  -0.376  -0.579  0.00  0.00    -0.023 C 
ATOM      3  C   UNL     1       5.795  -1.052  -0.892  0.00  0.00    +0.058 C 
ATOM      4  C   UNL     1       4.660  -0.161  -0.450  0.00  0.00    +0.017 C 
ATOM      5  C   UNL     1       4.788   1.183  -0.457  0.00  0.00    +0.024 C 
ATOM      6  C   UNL     1       3.658   2.078  -0.017  0.00  0.00    +0.096 C 
ATOM      7  C   UNL     1       2.350   1.344  -0.014  0.00  0.00    +0.069 A 
ATOM      8  C   UNL     1       1.142   2.051   0.002  0.00  0.00    +0.258 A 
ATOM      9  O   UNL     1       1.136   3.272   0.009  0.00  0.00    -0.267 OA
ATOM     10  N   UNL     1      -0.016   1.358   0.009  0.00  0.00    -0.302 N 
ATOM     11  H   UNL     1      -0.864   1.831   0.016  0.00  0.00    +0.171 HD
ATOM     12  C   UNL     1       0.002  -0.004   0.002  0.00  0.00    +0.171 A 
ATOM     13  N   UNL     1       1.136  -0.674  -0.014  0.00  0.00    -0.208 NA
ATOM     14  C   UNL     1       2.313  -0.039  -0.023  0.00  0.00    +0.135 A 
ATOM     15  N   UNL     1       3.495  -0.754  -0.046  0.00  0.00    -0.302 N 
ATOM     16  C   UNL     1       5.985   1.793  -0.872  0.00  0.00    +0.162 C 
ATOM     17  O   UNL     1       6.062   3.006  -0.885  0.00  0.00    -0.292 OA
ATOM     18  C   UNL     1       7.172   0.975  -1.301  0.00  0.00    +0.086 C 
ATOM     19  C   UNL     1       8.282  -1.258  -1.069  0.00  0.00    +0.011 C 
ATOM     20  H   UNL     1       3.498  -1.685   0.227  0.00  0.00    +0.153 HD
ENDROOT
BRANCH   6  21
ATOM     21  C   UNL     1       3.942   2.586   1.373  0.00  0.00    +0.006 A 
ATOM     22  C   UNL     1       4.050   1.697   2.425  0.00  0.00    +0.008 A 
ATOM     23  C   UNL     1       4.315   2.161   3.700  0.00  0.00    +0.001 A 
ATOM     24  C   UNL     1       4.464   3.517   3.927  0.00  0.00    +0.004 A 
ATOM     25  C   UNL     1       4.352   4.410   2.879  0.00  0.00    +0.046 A 
ATOM     26  C   UNL     1       4.091   3.946   1.598  0.00  0.00    +0.124 A 
BRANCH  26  27
ATOM     27  O   UNL     1       3.981   4.823   0.566  0.00  0.00    -0.495 OA
ATOM     28  C   UNL     1       4.145   6.209   0.871  0.00  0.00    +0.277 C 
ENDBRANCH  26  27
ENDBRANCH   6  21
BRANCH  12  29
ATOM     29  S   UNL     1      -1.522  -0.888   0.014  0.00  0.00    -0.083 S 
BRANCH  29  30
ATOM     30  C   UNL     1      -0.900  -2.587  -0.002  0.00  0.00    +0.114 C 
BRANCH  30  31
ATOM     31  C   UNL     1      -2.062  -3.547   0.006  0.00  0.00    -0.019 A 
ATOM     32  C   UNL     1      -2.578  -3.999   1.206  0.00  0.00    +0.006 A 
ATOM     33  C   UNL     1      -3.646  -4.876   1.214  0.00  0.00    +0.000 A 
ATOM     34  C   UNL     1      -4.193  -5.310   0.021  0.00  0.00    +0.001 A 
ATOM     35  C   UNL     1      -3.675  -4.864  -1.180  0.00  0.00    +0.020 A 
ATOM     36  C   UNL     1      -2.608  -3.982  -1.188  0.00  0.00    +0.045 A 
ATOM     37 CL   UNL     1      -1.957  -3.421  -2.696  0.00  0.00    -0.083 Cl
ENDBRANCH  30  31
ENDBRANCH  29  30
ENDBRANCH  12  29
TORSDOF 5
