REMARK  Name = ZINC05347848
REMARK  7 active torsions:
REMARK  status: ('A' for Active; 'I' for Inactive)
REMARK    1  A    between atoms: C_1  and  C_2
REMARK    2  A    between atoms: C_2  and  C_3
REMARK    3  A    between atoms: C_3  and  C_4
REMARK    4  A    between atoms: C_4  and  N_5
REMARK    5  A    between atoms: C_24  and  C_26
REMARK    6  A    between atoms: C_26  and  C_28
REMARK    7  A    between atoms: C_26  and  O_29
REMARK                            x       y       z     vdW  Elec       q    Type
REMARK                         _______ _______ _______ _____ _____    ______ ____
ROOT
ATOM      1  N   UNL     1      -0.141   0.116   0.336  0.00  0.00    -0.242 N 
ATOM      2  C   UNL     1       1.051  -0.474   0.194  0.00  0.00    +0.224 C 
ATOM      3  O   UNL     1       1.243  -1.671   0.175  0.00  0.00    -0.275 OA
ATOM      4  C   UNL     1       2.122   0.584   0.061  0.00  0.00    +0.075 C 
ATOM      5  C   UNL     1       1.327   1.915   0.165  0.00  0.00    +0.088 C 
ATOM      6  C   UNL     1      -0.104   1.453   0.332  0.00  0.00    +0.225 C 
ATOM      7  O   UNL     1      -1.067   2.181   0.440  0.00  0.00    -0.275 OA
ATOM      8  C   UNL     1       1.816   2.555   1.471  0.00  0.00    +0.050 C 
ATOM      9  C   UNL     1       2.869   3.595   1.213  0.00  0.00    -0.028 A 
ATOM     10  C   UNL     1       4.109   3.561   0.616  0.00  0.00    +0.004 A 
ATOM     11  C   UNL     1       4.865   4.716   0.525  0.00  0.00    +0.000 A 
ATOM     12  C   UNL     1       4.373   5.904   1.036  0.00  0.00    +0.002 A 
ATOM     13  C   UNL     1       3.132   5.942   1.636  0.00  0.00    +0.023 A 
ATOM     14  C   UNL     1       2.363   4.784   1.732  0.00  0.00    +0.036 A 
ATOM     15  N   UNL     1       1.099   4.570   2.285  0.00  0.00    -0.286 N 
ATOM     16  C   UNL     1       0.706   3.287   2.174  0.00  0.00    +0.211 C 
ATOM     17  O   UNL     1      -0.340   2.813   2.565  0.00  0.00    -0.277 OA
ATOM     18  C   UNL     1       3.022   0.560   1.314  0.00  0.00    -0.028 C 
ATOM     19  H   UNL     1       0.566   5.266   2.702  0.00  0.00    +0.155 HD
ATOM     20  N   UNL     1       2.341   1.452   2.256  0.00  0.00    +0.396 N 
ATOM     21  H   UNL     1       1.576   0.955   2.726  0.00  0.00    -0.083 HD
ATOM     22  H   UNL     1       3.005   1.800   2.958  0.00  0.00    -0.083 HD
ENDROOT
BRANCH  18  23
ATOM     23  C   UNL     1       3.126  -0.862   1.868  0.00  0.00    +0.098 C 
ATOM     24  C   UNL     1       3.876  -1.745   0.869  0.00  0.00    +0.036 C 
BRANCH  23  25
ATOM     25  O   UNL     1       3.833  -0.840   3.109  0.00  0.00    -0.394 OA
ATOM     26  H   UNL     1       3.937  -1.710   3.519  0.00  0.00    +0.210 HD
ENDBRANCH  23  25
ENDBRANCH  18  23
BRANCH   1  27
ATOM     27  C   UNL     1      -1.387  -0.641   0.484  0.00  0.00    +0.116 C 
BRANCH  27  28
ATOM     28  C   UNL     1      -1.991  -0.904  -0.897  0.00  0.00    +0.019 C 
BRANCH  28  30
ATOM     29  C   UNL     1      -3.895  -1.958  -2.123  0.00  0.00    +0.004 C 
ATOM     30  C   UNL     1      -3.291  -1.695  -0.743  0.00  0.00    -0.002 C 
ENDBRANCH  28  30
ENDBRANCH  27  28
ENDBRANCH   1  27
TORSDOF 5
