REMARK  Name = ZINC00871024
REMARK  9 active torsions:
REMARK  status: ('A' for Active; 'I' for Inactive)
REMARK    1  A    between atoms: C_1  and  C_2
REMARK    2  A    between atoms: C_8  and  C_27
REMARK    3  A    between atoms: C_10  and  S_12
REMARK    4  A    between atoms: S_12  and  C_13
REMARK    5  A    between atoms: C_13  and  C_14
REMARK    6  A    between atoms: N_16  and  N_17
REMARK    7  A    between atoms: C_18  and  C_19
REMARK    8  A    between atoms: C_22  and  O_26
REMARK    9  A    between atoms: C_23  and  O_25
REMARK                            x       y       z     vdW  Elec       q    Type
REMARK                         _______ _______ _______ _____ _____    ______ ____
ROOT
ATOM      1  C   UNL     1       5.336   6.951  -0.007  0.00  0.00    +0.242 C 
ATOM      2  O   UNL     1       6.494   6.591  -0.018  0.00  0.00    -0.273 OA
ATOM      3  N   UNL     1       5.039   8.265   0.003  0.00  0.00    -0.206 N 
ATOM      4  H   UNL     1       4.112   8.553   0.012  0.00  0.00    +0.177 HD
ENDROOT
BRANCH   3   5
ATOM      5  N   UNL     1       6.068   9.216  -0.001  0.00  0.00    -0.188 NA
ATOM      6  C   UNL     1       5.782  10.482   0.009  0.00  0.00    +0.138 C 
BRANCH   6   7
ATOM      7  C   UNL     1       6.864  11.482   0.005  0.00  0.00    -0.002 A 
ATOM      8  C   UNL     1       8.199  11.070  -0.002  0.00  0.00    +0.013 A 
ATOM      9  C   UNL     1       9.211  12.007  -0.011  0.00  0.00    +0.050 A 
ATOM     10  C   UNL     1       8.906  13.361  -0.002  0.00  0.00    +0.158 A 
ATOM     11  C   UNL     1       7.578  13.780   0.012  0.00  0.00    +0.159 A 
ATOM     12  C   UNL     1       6.559  12.846   0.015  0.00  0.00    +0.058 A 
BRANCH  11  13
ATOM     13  O   UNL     1       7.284  15.107   0.022  0.00  0.00    -0.503 OA
ATOM     14  H   UNL     1       7.206  15.486   0.908  0.00  0.00    +0.292 HD
ENDBRANCH  11  13
BRANCH  10  15
ATOM     15  O   UNL     1       9.907  14.280  -0.006  0.00  0.00    -0.503 OA
ATOM     16  H   UNL     1      10.205  14.542   0.877  0.00  0.00    +0.292 HD
ENDBRANCH  10  15
ENDBRANCH   6   7
ENDBRANCH   3   5
BRANCH   1  17
ATOM     17  C   UNL     1       4.229   5.928  -0.003  0.00  0.00    +0.173 C 
BRANCH  17  18
ATOM     18  S   UNL     1       4.943   4.266  -0.018  0.00  0.00    -0.096 S 
BRANCH  18  28
ATOM     19  C   UNL     1      -2.491   0.968   0.018  0.00  0.00    +0.044 C 
ATOM     20  C   UNL     1      -1.199   1.744   0.017  0.00  0.00    -0.050 A 
ATOM     21  C   UNL     1      -1.234   3.137   0.029  0.00  0.00    +0.005 A 
ATOM     22  C   UNL     1      -0.086   3.868   0.023  0.00  0.00    +0.028 A 
ATOM     23  C   UNL     1       1.158   3.213   0.008  0.00  0.00    +0.073 A 
ATOM     24  C   UNL     1       1.191   1.798   0.000  0.00  0.00    +0.004 A 
ATOM     25  C   UNL     1      -0.013   1.076   0.008  0.00  0.00    +0.013 A 
ATOM     26  C   UNL     1       2.438   1.140  -0.014  0.00  0.00    -0.039 A 
ATOM     27  C   UNL     1       3.569   1.900  -0.020  0.00  0.00    +0.038 A 
ATOM     28  C   UNL     1       3.470   3.299  -0.011  0.00  0.00    +0.098 A 
ATOM     29  N   UNL     1       2.301   3.908   0.002  0.00  0.00    -0.240 NA
ATOM     30  C   UNL     1       2.518  -0.365  -0.023  0.00  0.00    +0.044 C 
ENDBRANCH  18  28
ENDBRANCH  17  18
ENDBRANCH   1  17
TORSDOF 7
