REMARK  Name = ZINC14022950
REMARK  4 active torsions:
REMARK  status: ('A' for Active; 'I' for Inactive)
REMARK    1  A    between atoms: N_11  and  C_12
REMARK    2  A    between atoms: N_15  and  C_18
REMARK    3  A    between atoms: C_18  and  C_19
REMARK    4  A    between atoms: C_22  and  C_24
REMARK                            x       y       z     vdW  Elec       q    Type
REMARK                         _______ _______ _______ _____ _____    ______ ____
ROOT
ATOM      1  C   UNL     1       4.875  -0.586  -0.046  0.00  0.00    +0.089 C 
ATOM      2  C   UNL     1       5.517  -1.188  -1.300  0.00  0.00    +0.006 C 
ATOM      3  C   UNL     1       7.026  -0.933  -1.266  0.00  0.00    -0.076 C 
ATOM      4  N   UNL     1       7.604  -1.558  -0.071  0.00  0.00    +0.384 N 
ATOM      5  C   UNL     1       7.046  -0.937   1.136  0.00  0.00    -0.076 C 
ATOM      6  C   UNL     1       5.538  -1.191   1.194  0.00  0.00    +0.006 C 
ATOM      7  H   UNL     1       7.389  -2.544  -0.071  0.00  0.00    -0.081 HD
ENDROOT
BRANCH   1  18
ATOM      8  C   UNL     1      -0.017   1.377   0.010  0.00  0.00    +0.002 A 
ATOM      9  C   UNL     1       1.169   2.091   0.002  0.00  0.00    +0.002 A 
ATOM     10  C   UNL     1       2.381   1.429  -0.013  0.00  0.00    +0.028 A 
ATOM     11  C   UNL     1       2.410   0.043  -0.021  0.00  0.00    +0.070 A 
ATOM     12  C   UNL     1       1.214  -0.678  -0.013  0.00  0.00    +0.067 A 
ATOM     13  C   UNL     1       0.002  -0.004   0.002  0.00  0.00    +0.028 A 
ATOM     14  N   UNL     1       1.557  -2.028  -0.023  0.00  0.00    -0.306 N 
ATOM     15  H   UNL     1       0.934  -2.772  -0.021  0.00  0.00    +0.170 HD
ATOM     16  C   UNL     1       2.900  -2.124  -0.036  0.00  0.00    +0.328 A 
ATOM     17  O   UNL     1       3.528  -3.166  -0.047  0.00  0.00    -0.247 OA
ATOM     18  N   UNL     1       3.443  -0.892  -0.035  0.00  0.00    -0.289 N 
ENDBRANCH   1  18
BRANCH   4  19
ATOM     19  C   UNL     1       9.062  -1.379  -0.083  0.00  0.00    -0.019 C 
BRANCH  19  20
ATOM     20  C   UNL     1       9.670  -2.124   1.077  0.00  0.00    +0.063 A 
ATOM     21  C   UNL     1      10.184  -3.366   1.038  0.00  0.00    +0.219 A 
ATOM     22  O   UNL     1      10.621  -3.659   2.280  0.00  0.00    -0.443 OA
ATOM     23  C   UNL     1      10.371  -2.595   3.063  0.00  0.00    +0.234 A 
ATOM     24  N   UNL     1       9.799  -1.663   2.331  0.00  0.00    -0.216 NA
BRANCH  23  25
ATOM     25  C   UNL     1      10.688  -2.488   4.495  0.00  0.00    +0.074 A 
ATOM     26  C   UNL     1      11.294  -3.412   5.325  0.00  0.00    +0.021 A 
ATOM     27  C   UNL     1      11.487  -3.079   6.645  0.00  0.00    +0.008 A 
ATOM     28  C   UNL     1      11.079  -1.862   7.090  0.00  0.00    +0.046 A 
ATOM     29  S   UNL     1      10.397  -1.127   5.614  0.00  0.00    -0.092 S 
ENDBRANCH  23  25
ENDBRANCH  19  20
ENDBRANCH   4  19
TORSDOF 4
