REMARK  Name = ZINC25146127
REMARK  7 active torsions:
REMARK  status: ('A' for Active; 'I' for Inactive)
REMARK    1  A    between atoms: C_4  and  C_7
REMARK    2  A    between atoms: C_7  and  C_8
REMARK    3  A    between atoms: C_7  and  N_17
REMARK    4  A    between atoms: C_18  and  C_20
REMARK    5  A    between atoms: C_23  and  N_26
REMARK    6  A    between atoms: N_26  and  S_27
REMARK    7  A    between atoms: S_27  and  C_30
REMARK                            x       y       z     vdW  Elec       q    Type
REMARK                         _______ _______ _______ _____ _____    ______ ____
ROOT
ATOM      1  N   UNL     1       3.797  -1.826  -0.979  0.00  0.00    -0.301 N 
ATOM      2  C   UNL     1       3.937  -1.685  -2.312  0.00  0.00    +0.245 C 
ATOM      3  O   UNL     1       4.170  -0.591  -2.787  0.00  0.00    -0.270 OA
ATOM      4  H   UNL     1       3.610  -2.699  -0.601  0.00  0.00    +0.150 HD
ENDROOT
BRANCH   2   5
ATOM      5  C   UNL     1       3.807  -2.860  -3.196  0.00  0.00    +0.037 A 
ATOM      6  C   UNL     1       3.533  -4.118  -2.652  0.00  0.00    +0.015 A 
ATOM      7  C   UNL     1       3.412  -5.212  -3.478  0.00  0.00    +0.025 A 
ATOM      8  C   UNL     1       3.562  -5.066  -4.855  0.00  0.00    +0.048 A 
ATOM      9  C   UNL     1       3.836  -3.814  -5.399  0.00  0.00    +0.025 A 
ATOM     10  C   UNL     1       3.952  -2.716  -4.579  0.00  0.00    +0.015 A 
BRANCH   8  11
ATOM     11  N   UNL     1       3.440  -6.173  -5.687  0.00  0.00    -0.216 N 
ATOM     12  H   UNL     1       3.890  -7.002  -5.461  0.00  0.00    +0.174 HD
BRANCH  11  13
ATOM     13  S   UNL     1       2.526  -6.076  -7.064  0.00  0.00    +0.072 S 
ATOM     14  O   UNL     1       2.987  -4.938  -7.779  0.00  0.00    -0.150 OA
ATOM     15  O   UNL     1       2.510  -7.378  -7.634  0.00  0.00    -0.150 OA
BRANCH  13  16
ATOM     16  C   UNL     1       0.872  -5.723  -6.568  0.00  0.00    +0.108 A 
ATOM     17  C   UNL     1       0.028  -6.753  -6.196  0.00  0.00    +0.029 A 
ATOM     18  C   UNL     1      -1.270  -6.476  -5.807  0.00  0.00    +0.002 A 
ATOM     19  C   UNL     1      -1.722  -5.170  -5.790  0.00  0.00    +0.000 A 
ATOM     20  C   UNL     1      -0.878  -4.140  -6.161  0.00  0.00    +0.002 A 
ATOM     21  C   UNL     1       0.421  -4.417  -6.546  0.00  0.00    +0.029 A 
ENDBRANCH  13  16
ENDBRANCH  11  13
ENDBRANCH   8  11
ENDBRANCH   2   5
BRANCH   1  22
ATOM     22  C   UNL     1       3.926  -0.659  -0.102  0.00  0.00    +0.134 C 
BRANCH  22  23
ATOM     23  C   UNL     1       4.339  -1.110   1.275  0.00  0.00    -0.021 A 
ATOM     24  C   UNL     1       3.791  -2.265   1.816  0.00  0.00    +0.008 A 
ATOM     25  C   UNL     1       4.153  -2.690   3.063  0.00  0.00    +0.030 A 
ATOM     26  C   UNL     1       5.084  -1.958   3.805  0.00  0.00    +0.089 A 
ATOM     27  C   UNL     1       5.639  -0.789   3.258  0.00  0.00    +0.066 A 
ATOM     28  C   UNL     1       5.263  -0.375   1.987  0.00  0.00    +0.033 A 
ATOM     29  N   UNL     1       6.509  -0.298   4.211  0.00  0.00    -0.344 N 
ATOM     30  C   UNL     1       6.465  -1.146   5.274  0.00  0.00    +0.197 A 
ATOM     31  N   UNL     1       5.631  -2.117   5.037  0.00  0.00    -0.236 NA
ATOM     32  H   UNL     1       7.051   0.502   4.136  0.00  0.00    +0.167 HD
ENDBRANCH  22  23
BRANCH  22  36
ATOM     33  C   UNL     1       0.174   1.370   0.127  0.00  0.00    +0.000 A 
ATOM     34  C   UNL     1       1.348   2.095   0.051  0.00  0.00    +0.000 A 
ATOM     35  C   UNL     1       2.562   1.438  -0.023  0.00  0.00    +0.006 A 
ATOM     36  C   UNL     1       2.602   0.056  -0.021  0.00  0.00    -0.023 A 
ATOM     37  C   UNL     1       1.428  -0.669   0.057  0.00  0.00    +0.006 A 
ATOM     38  C   UNL     1       0.213  -0.012   0.129  0.00  0.00    +0.000 A 
ENDBRANCH  22  36
ENDBRANCH   1  22
TORSDOF 7
