REMARK  Name = ZINC67581967
REMARK  6 active torsions:
REMARK  status: ('A' for Active; 'I' for Inactive)
REMARK    1  A    between atoms: C_4  and  N_7
REMARK    2  A    between atoms: N_7  and  C_8
REMARK    3  A    between atoms: N_16  and  C_17
REMARK    4  A    between atoms: C_17  and  C_18
REMARK    5  A    between atoms: C_18  and  C_20
REMARK    6  A    between atoms: C_18  and  N_25
REMARK                            x       y       z     vdW  Elec       q    Type
REMARK                         _______ _______ _______ _____ _____    ______ ____
ROOT
ATOM      1  C   UNL     1       4.537  -1.844  -0.340  0.00  0.00    +0.089 C 
ATOM      2  C   UNL     1       5.880  -2.494  -0.767  0.00  0.00    +0.043 C 
ATOM      3  C   UNL     1       5.783  -3.883  -0.086  0.00  0.00    +0.111 C 
ATOM      4  N   UNL     1       5.117  -3.625   1.203  0.00  0.00    -0.284 N 
ATOM      5  C   UNL     1       4.323  -2.390   1.087  0.00  0.00    +0.131 C 
ATOM      6  C   UNL     1       5.216  -4.394   2.305  0.00  0.00    +0.302 C 
ATOM      7  O   UNL     1       4.619  -4.084   3.319  0.00  0.00    -0.253 OA
ATOM      8  N   UNL     1       5.975  -5.508   2.285  0.00  0.00    -0.300 N 
ATOM      9  H   UNL     1       6.451  -5.755   1.476  0.00  0.00    +0.150 HD
ENDROOT
BRANCH   1  10
ATOM     10  N   UNL     1       4.651  -0.384  -0.325  0.00  0.00    -0.339 N 
ATOM     11  H   UNL     1       5.522   0.034  -0.236  0.00  0.00    +0.146 HD
BRANCH  10  15
ATOM     12  C   UNL     1       1.235   1.973  -0.661  0.00  0.00    +0.000 A 
ATOM     13  C   UNL     1       2.475   2.571  -0.535  0.00  0.00    +0.002 A 
ATOM     14  C   UNL     1       3.610   1.792  -0.423  0.00  0.00    +0.023 A 
ATOM     15  C   UNL     1       3.505   0.407  -0.437  0.00  0.00    +0.027 A 
ATOM     16  C   UNL     1       2.257  -0.190  -0.564  0.00  0.00    +0.023 A 
ATOM     17  C   UNL     1       1.126   0.595  -0.676  0.00  0.00    +0.002 A 
ENDBRANCH  10  15
ENDBRANCH   1  10
BRANCH   8  18
ATOM     18  C   UNL     1       6.082  -6.344   3.483  0.00  0.00    +0.098 C 
BRANCH  18  19
ATOM     19  C   UNL     1       6.889  -7.602   3.156  0.00  0.00    +0.016 C 
BRANCH  19  20
ATOM     20  N   UNL     1       6.287  -8.284   2.002  0.00  0.00    +0.387 N 
ATOM     21  C   UNL     1       4.908  -8.666   2.327  0.00  0.00    -0.078 C 
ATOM     22  C   UNL     1       4.250  -9.304   1.101  0.00  0.00    -0.019 C 
ATOM     23  C   UNL     1       5.043 -10.548   0.693  0.00  0.00    -0.004 C 
ATOM     24  C   UNL     1       6.498 -10.151   0.429  0.00  0.00    -0.019 C 
ATOM     25  C   UNL     1       7.073  -9.481   1.679  0.00  0.00    -0.078 C 
ATOM     26  H   UNL     1       6.284  -7.661   1.209  0.00  0.00    -0.081 HD
ENDBRANCH  19  20
BRANCH  19  27
ATOM     27  C   UNL     1       8.309  -7.217   2.828  0.00  0.00    +0.093 A 
ATOM     28  C   UNL     1       9.360  -7.302   3.663  0.00  0.00    +0.043 A 
ATOM     29  C   UNL     1      10.489  -6.841   2.948  0.00  0.00    +0.041 A 
ATOM     30  C   UNL     1      10.060  -6.501   1.719  0.00  0.00    +0.195 A 
ATOM     31  O   UNL     1       8.740  -6.737   1.650  0.00  0.00    -0.469 OA
ENDBRANCH  19  27
ENDBRANCH  18  19
ENDBRANCH   8  18
TORSDOF 6
