REMARK  Name = ZINC20275242
REMARK  4 active torsions:
REMARK  status: ('A' for Active; 'I' for Inactive)
REMARK    1  A    between atoms: C_1  and  C_2
REMARK    2  A    between atoms: C_3  and  C_18
REMARK    3  A    between atoms: C_6  and  N_11
REMARK    4  A    between atoms: C_14  and  C_17
REMARK                            x       y       z     vdW  Elec       q    Type
REMARK                         _______ _______ _______ _____ _____    ______ ____
ROOT
ATOM      1  C   UNL     1      -3.198   6.075   4.730  0.00  0.00    +0.066 C 
ATOM      2  C   UNL     1      -2.643   4.938   3.913  0.00  0.00    +0.046 A 
ATOM      3  C   UNL     1      -1.880   5.061   2.761  0.00  0.00    +0.156 A 
ATOM      4  N   UNL     1      -1.590   3.774   2.345  0.00  0.00    -0.293 N 
ATOM      5  C   UNL     1      -0.883   3.290   1.287  0.00  0.00    +0.116 A 
ATOM      6  C   UNL     1      -0.747   1.950   1.103  0.00  0.00    +0.047 A 
ATOM      7  C   UNL     1      -1.344   1.052   2.005  0.00  0.00    +0.028 A 
ATOM      8  C   UNL     1      -2.047   1.535   3.068  0.00  0.00    +0.047 A 
ATOM      9  C   UNL     1      -2.175   2.925   3.240  0.00  0.00    +0.116 A 
ATOM     10  N   UNL     1      -2.799   3.650   4.168  0.00  0.00    -0.343 N 
ATOM     11  H   UNL     1      -3.379   3.330   5.047  0.00  0.00    +0.167 HD
ENDROOT
BRANCH   6  12
ATOM     12  N   UNL     1      -0.018   1.464   0.010  0.00  0.00    -0.329 N 
ATOM     13  C   UNL     1       1.344   2.014   0.000  0.00  0.00    +0.105 C 
ATOM     14  C   UNL     1       2.062   1.579  -1.280  0.00  0.00    +0.022 C 
ATOM     15  C   UNL     1       2.108   0.049  -1.338  0.00  0.00    -0.011 C 
ATOM     16  C   UNL     1       0.680  -0.499  -1.278  0.00  0.00    +0.022 C 
ATOM     17  C   UNL     1       0.002  -0.004   0.002  0.00  0.00    +0.105 C 
ATOM     18  C   UNL     1       2.770  -0.392  -2.645  0.00  0.00    +0.007 C 
ENDBRANCH   6  12
BRANCH   3  19
ATOM     19  C   UNL     1      -1.476   6.264   2.135  0.00  0.00    +0.405 C 
ATOM     20  O   UNL     1      -1.803   7.336   2.610  0.00  0.00    -0.239 OA
ATOM     21  O   UNL     1      -0.730   6.224   1.012  0.00  0.00    -0.239 OA
ENDBRANCH   3  19
TORSDOF 2
