REMARK  Name = ZINC12308334
REMARK  6 active torsions:
REMARK  status: ('A' for Active; 'I' for Inactive)
REMARK    1  A    between atoms: C_1  and  N_2
REMARK    2  A    between atoms: C_6  and  S_7
REMARK    3  A    between atoms: S_7  and  C_8
REMARK    4  A    between atoms: C_11  and  C_13
REMARK    5  A    between atoms: C_13  and  N_54
REMARK    6  A    between atoms: C_26  and  C_28
REMARK                            x       y       z     vdW  Elec       q    Type
REMARK                         _______ _______ _______ _____ _____    ______ ____
ROOT
ATOM      1  C   UNL     1      -0.638   3.300   2.091  0.00  0.00    -0.072 C 
ATOM      2  C   UNL     1      -1.240   3.887   3.375  0.00  0.00    +0.019 C 
ATOM      3  C   UNL     1      -1.905   2.765   4.132  0.00  0.00    -0.022 A 
ATOM      4  C   UNL     1      -2.341   2.721   5.510  0.00  0.00    +0.003 A 
ATOM      5  C   UNL     1      -2.299   3.653   6.551  0.00  0.00    +0.010 A 
ATOM      6  C   UNL     1      -2.817   3.259   7.760  0.00  0.00    +0.001 A 
ATOM      7  C   UNL     1      -3.361   2.000   7.952  0.00  0.00    +0.002 A 
ATOM      8  C   UNL     1      -3.417   1.057   6.940  0.00  0.00    +0.026 A 
ATOM      9  C   UNL     1      -2.897   1.429   5.702  0.00  0.00    +0.047 A 
ATOM     10  N   UNL     1      -2.794   0.761   4.515  0.00  0.00    -0.359 N 
ATOM     11  H   UNL     1      -3.095  -0.148   4.359  0.00  0.00    +0.166 HD
ATOM     12  C   UNL     1      -2.201   1.565   3.581  0.00  0.00    +0.012 A 
ATOM     13  C   UNL     1      -1.901   1.225   2.140  0.00  0.00    +0.030 C 
ATOM     14  N   UNL     1      -1.673   2.493   1.407  0.00  0.00    +0.394 N 
ATOM     15  H   UNL     1      -2.550   3.026   1.384  0.00  0.00    -0.080 HD
ENDROOT
BRANCH  13  16
ATOM     16  C   UNL     1      -3.081   0.513   1.531  0.00  0.00    +0.033 A 
ATOM     17  C   UNL     1      -3.197  -0.857   1.667  0.00  0.00    +0.022 A 
ATOM     18  C   UNL     1      -4.290  -1.501   1.108  0.00  0.00    +0.003 A 
ATOM     19  C   UNL     1      -5.224  -0.741   0.421  0.00  0.00    +0.020 A 
ATOM     20  C   UNL     1      -5.038   0.625   0.321  0.00  0.00    +0.111 A 
ATOM     21  N   UNL     1      -3.989   1.205   0.870  0.00  0.00    -0.261 NA
ENDBRANCH  13  16
BRANCH  14  22
ATOM     22  C   UNL     1      -1.252   2.204   0.020  0.00  0.00    -0.002 C 
BRANCH  22  26
ATOM     23  C   UNL     1       2.096   0.739  -0.014  0.00  0.00    +0.169 A 
ATOM     24  C   UNL     1       1.360  -0.398  -0.013  0.00  0.00    +0.057 A 
ATOM     25  C   UNL     1       0.002  -0.004   0.002  0.00  0.00    +0.044 A 
ATOM     26  C   UNL     1      -0.016   1.341   0.009  0.00  0.00    +0.090 A 
ATOM     27  O   UNL     1       1.254   1.786  -0.000  0.00  0.00    -0.455 OA
BRANCH  23  28
ATOM     28  S   UNL     1       3.856   0.829  -0.030  0.00  0.00    -0.012 S 
BRANCH  28  34
ATOM     29  C   UNL     1       6.606   2.665  -0.033  0.00  0.00    +0.152 C 
ATOM     30  N   UNL     1       5.262   3.248  -0.025  0.00  0.00    -0.311 N 
ATOM     31  C   UNL     1       4.939   4.576  -0.021  0.00  0.00    +0.225 A 
ATOM     32  N   UNL     1       3.638   4.659  -0.008  0.00  0.00    -0.137 NA
ATOM     33  N   UNL     1       3.122   3.482  -0.009  0.00  0.00    -0.122 NA
ATOM     34  C   UNL     1       4.073   2.577  -0.023  0.00  0.00    +0.199 A 
ENDBRANCH  28  34
ENDBRANCH  23  28
ENDBRANCH  22  26
ENDBRANCH  14  22
TORSDOF 5
