REMARK  Name = ZINC15969150
REMARK  7 active torsions:
REMARK  status: ('A' for Active; 'I' for Inactive)
REMARK    1  A    between atoms: C_1  and  C_2
REMARK    2  A    between atoms: C_16  and  C_19
REMARK    3  A    between atoms: C_19  and  C_20
REMARK    4  A    between atoms: C_23  and  O_26
REMARK    5  A    between atoms: N_29  and  C_32
REMARK    6  A    between atoms: C_32  and  C_33
REMARK    7  A    between atoms: C_33  and  C_34
REMARK                            x       y       z     vdW  Elec       q    Type
REMARK                         _______ _______ _______ _____ _____    ______ ____
ROOT
ATOM      1  C   UNL     1      -0.018   1.503   0.010  0.00  0.00    +0.046 C 
ATOM      2  C   UNL     1       0.002  -0.004   0.002  0.00  0.00    -0.028 A 
ATOM      3  C   UNL     1       0.006  -0.685  -1.198  0.00  0.00    +0.025 A 
ATOM      4  C   UNL     1       0.025  -2.068  -1.216  0.00  0.00    +0.042 A 
ATOM      5  C   UNL     1       0.041  -2.772  -0.023  0.00  0.00    +0.027 A 
ATOM      6  C   UNL     1       0.038  -2.096   1.176  0.00  0.00    +0.005 A 
ATOM      7  C   UNL     1       0.023  -0.704   1.205  0.00  0.00    +0.042 A 
ATOM      8  N   UNL     1       0.027  -0.249   2.526  0.00  0.00    -0.283 N 
ATOM      9  C   UNL     1       0.051  -1.262   3.413  0.00  0.00    +0.243 C 
ATOM     10  O   UNL     1       0.059  -1.167   4.622  0.00  0.00    -0.273 OA
ATOM     11  C   UNL     1       0.054  -2.536   2.612  0.00  0.00    +0.136 C 
ATOM     12  C   UNL     1      -1.152  -3.423   2.946  0.00  0.00    +0.122 C 
ATOM     13  C   UNL     1      -0.605  -4.457   3.970  0.00  0.00    +0.107 C 
ATOM     14  C   UNL     1       0.876  -4.072   4.169  0.00  0.00    +0.072 C 
ATOM     15  N   UNL     1       1.248  -3.347   2.918  0.00  0.00    -0.295 NA
ATOM     16  C   UNL     1      -0.700  -5.769   3.226  0.00  0.00    +0.227 C 
ATOM     17  O   UNL     1      -0.364  -6.848   3.664  0.00  0.00    -0.275 OA
ATOM     18  N   UNL     1      -1.212  -5.554   2.008  0.00  0.00    -0.241 N 
ATOM     19  C   UNL     1      -1.514  -4.262   1.741  0.00  0.00    +0.228 C 
ATOM     20  O   UNL     1      -1.994  -3.839   0.711  0.00  0.00    -0.275 OA
ATOM     21 CL   UNL     1       0.028  -2.920  -2.728  0.00  0.00    -0.084 Cl
ATOM     22  H   UNL     1       0.014   0.689   2.776  0.00  0.00    +0.155 HD
ATOM     23  H   UNL     1       1.453  -3.987   2.165  0.00  0.00    +0.124 HD
ENDROOT
BRANCH  14  24
ATOM     24  C   UNL     1       1.737  -5.328   4.316  0.00  0.00    +0.054 C 
BRANCH  24  25
ATOM     25  C   UNL     1       3.156  -4.931   4.632  0.00  0.00    -0.046 A 
ATOM     26  C   UNL     1       4.055  -4.709   3.605  0.00  0.00    +0.007 A 
ATOM     27  C   UNL     1       5.356  -4.345   3.892  0.00  0.00    +0.045 A 
ATOM     28  C   UNL     1       5.761  -4.201   5.211  0.00  0.00    +0.117 A 
ATOM     29  C   UNL     1       4.856  -4.425   6.240  0.00  0.00    +0.045 A 
ATOM     30  C   UNL     1       3.555  -4.783   5.948  0.00  0.00    +0.007 A 
BRANCH  28  31
ATOM     31  O   UNL     1       7.040  -3.844   5.496  0.00  0.00    -0.507 OA
ATOM     32  H   UNL     1       7.177  -2.889   5.558  0.00  0.00    +0.292 HD
ENDBRANCH  28  31
ENDBRANCH  24  25
ENDBRANCH  14  24
BRANCH  18  33
ATOM     33  C   UNL     1      -1.435  -6.631   1.041  0.00  0.00    +0.121 C 
BRANCH  33  34
ATOM     34  C   UNL     1      -2.842  -7.202   1.228  0.00  0.00    +0.054 C 
BRANCH  34  35
ATOM     35  C   UNL     1      -3.071  -8.310   0.233  0.00  0.00    -0.046 A 
ATOM     36  C   UNL     1      -3.599  -8.023  -1.012  0.00  0.00    +0.004 A 
ATOM     37  C   UNL     1      -3.809  -9.039  -1.925  0.00  0.00    +0.000 A 
ATOM     38  C   UNL     1      -3.492 -10.343  -1.593  0.00  0.00    +0.000 A 
ATOM     39  C   UNL     1      -2.964 -10.630  -0.348  0.00  0.00    +0.000 A 
ATOM     40  C   UNL     1      -2.749  -9.613   0.564  0.00  0.00    +0.004 A 
ENDBRANCH  34  35
ENDBRANCH  33  34
ENDBRANCH  18  33
TORSDOF 6
