REMARK  Name = ZINC14749222
REMARK  6 active torsions:
REMARK  status: ('A' for Active; 'I' for Inactive)
REMARK    1  A    between atoms: C_2  and  C_3
REMARK    2  A    between atoms: C_3  and  N_4
REMARK    3  A    between atoms: C_7  and  C_9
REMARK    4  A    between atoms: C_18  and  N_22
REMARK    5  A    between atoms: N_22  and  C_23
REMARK    6  A    between atoms: C_23  and  C_24
REMARK                            x       y       z     vdW  Elec       q    Type
REMARK                         _______ _______ _______ _____ _____    ______ ____
ROOT
ATOM      1  N   UNL     1       1.272  -0.375   0.216  0.00  0.00    -0.264 N 
ATOM      2  C   UNL     1       0.007  -0.006  -0.045  0.00  0.00    +0.043 A 
ATOM      3  C   UNL     1      -0.001   1.344  -0.169  0.00  0.00    +0.004 A 
ATOM      4  C   UNL     1       1.326   1.757   0.035  0.00  0.00    +0.151 A 
ATOM      5  N   UNL     1       2.033   0.663   0.262  0.00  0.00    -0.166 NA
ATOM      6  C   UNL     1      -1.222   2.167  -0.472  0.00  0.00    +0.023 C 
ATOM      7  C   UNL     1      -2.316   1.231  -1.000  0.00  0.00    -0.067 C 
ATOM      8  C   UNL     1      -2.459   0.028  -0.064  0.00  0.00    -0.009 C 
ATOM      9  C   UNL     1      -1.221  -0.870  -0.186  0.00  0.00    +0.054 C 
ENDROOT
BRANCH   4  10
ATOM     10  C   UNL     1       1.833   3.144   0.003  0.00  0.00    +0.267 C 
ATOM     11  O   UNL     1       1.056   4.073  -0.104  0.00  0.00    -0.268 OA
ATOM     12  N   UNL     1       3.157   3.380   0.093  0.00  0.00    -0.292 N 
ATOM     13  C   UNL     1       4.126   2.273   0.085  0.00  0.00    +0.136 C 
ATOM     14  C   UNL     1       5.203   2.587  -0.967  0.00  0.00    +0.179 C 
ATOM     15  O   UNL     1       5.732   3.891  -0.721  0.00  0.00    -0.377 OA
ATOM     16  C   UNL     1       4.774   4.945  -0.843  0.00  0.00    +0.179 C 
ATOM     17  C   UNL     1       3.676   4.753   0.209  0.00  0.00    +0.136 C 
ENDBRANCH   4  10
BRANCH   7  18
ATOM     18  N   UNL     1      -3.592   1.956  -1.064  0.00  0.00    +0.381 N 
ATOM     19  H   UNL     1      -4.087   1.915  -0.082  0.00  0.00    -0.086 HD
ATOM     20  H   UNL     1      -3.405   3.005  -1.337  0.00  0.00    -0.086 HD
BRANCH  18  21
ATOM     21  C   UNL     1      -4.486   1.361  -2.067  0.00  0.00    -0.079 C 
BRANCH  21  22
ATOM     22  C   UNL     1      -5.802   2.141  -2.104  0.00  0.00    -0.028 C 
ATOM     23  C   UNL     1      -6.529   1.979  -0.767  0.00  0.00    +0.002 C 
ATOM     24  C   UNL     1      -7.844   2.759  -0.804  0.00  0.00    +0.000 C 
ATOM     25  C   UNL     1      -8.726   2.219  -1.933  0.00  0.00    +0.000 C 
ATOM     26  C   UNL     1      -7.999   2.381  -3.269  0.00  0.00    +0.000 C 
ATOM     27  C   UNL     1      -6.683   1.601  -3.232  0.00  0.00    +0.002 C 
ENDBRANCH  21  22
ENDBRANCH  18  21
ENDBRANCH   7  18
BRANCH   1  28
ATOM     28  C   UNL     1       1.719  -1.755   0.419  0.00  0.00    +0.170 C 
BRANCH  28  30
ATOM     29  C   UNL     1       3.320  -2.868  -1.051  0.00  0.00    +0.006 C 
ATOM     30  C   UNL     1       2.125  -2.351  -0.904  0.00  0.00    -0.012 C 
ENDBRANCH  28  30
ENDBRANCH   1  28
TORSDOF 6
