REMARK  Name = ZINC27262062
REMARK  5 active torsions:
REMARK  status: ('A' for Active; 'I' for Inactive)
REMARK    1  A    between atoms: C_1  and  C_2
REMARK    2  A    between atoms: C_8  and  N_10
REMARK    3  A    between atoms: N_10  and  C_11
REMARK    4  A    between atoms: C_12  and  C_14
REMARK    5  A    between atoms: C_18  and  N_20
REMARK                            x       y       z     vdW  Elec       q    Type
REMARK                         _______ _______ _______ _____ _____    ______ ____
ROOT
ATOM      1  N   UNL     1       2.171   0.174   1.221  0.00  0.00    -0.297 N 
ATOM      2  C   UNL     1       3.120  -0.228   0.179  0.00  0.00    +0.132 C 
ATOM      3  C   UNL     1       2.618   0.751   2.353  0.00  0.00    +0.247 C 
ATOM      4  O   UNL     1       3.795   1.036   2.467  0.00  0.00    -0.270 OA
ENDROOT
BRANCH   1  11
ATOM      5  C   UNL     1       0.545   2.144  -0.144  0.00  0.00    +0.009 C 
ATOM      6  C   UNL     1       0.276   0.642  -0.252  0.00  0.00    +0.006 C 
ATOM      7  C   UNL     1       1.044   0.070  -1.445  0.00  0.00    +0.005 C 
ATOM      8  C   UNL     1       0.775  -1.432  -1.553  0.00  0.00    +0.000 C 
ATOM      9  C   UNL     1       1.235  -2.126  -0.270  0.00  0.00    +0.002 C 
ATOM     10  C   UNL     1       0.467  -1.555   0.923  0.00  0.00    +0.023 C 
ATOM     11  C   UNL     1       0.736  -0.052   1.031  0.00  0.00    +0.079 C 
ENDBRANCH   1  11
BRANCH   3  12
ATOM     12  C   UNL     1       1.678   1.039   3.457  0.00  0.00    +0.039 A 
ATOM     13  C   UNL     1       0.563   0.223   3.659  0.00  0.00    +0.014 A 
ATOM     14  C   UNL     1      -0.310   0.496   4.690  0.00  0.00    +0.018 A 
ATOM     15  C   UNL     1      -0.083   1.577   5.526  0.00  0.00    +0.048 A 
ATOM     16  C   UNL     1       1.021   2.390   5.331  0.00  0.00    +0.141 A 
ATOM     17  C   UNL     1       1.905   2.123   4.306  0.00  0.00    +0.047 A 
ATOM     18 BR   UNL     1      -1.285   1.945   6.938  0.00  0.00    -0.048 Br
BRANCH  16  19
ATOM     19  N   UNL     1       1.256   3.544   6.228  0.00  0.00    +0.058 N 
ATOM     20  O   UNL     1       2.219   4.254   6.059  0.00  0.00    -0.126 OA
ATOM     21  O   UNL     1       0.484   3.776   7.129  0.00  0.00    -0.126 OA
ENDBRANCH  16  19
ENDBRANCH   3  12
TORSDOF 3
