REMARK  Name = ZINC66891331
REMARK  8 active torsions:
REMARK  status: ('A' for Active; 'I' for Inactive)
REMARK    1  A    between atoms: C_1  and  C_2
REMARK    2  A    between atoms: C_3  and  C_7
REMARK    3  A    between atoms: N_9  and  C_10
REMARK    4  A    between atoms: N_13  and  C_16
REMARK    5  A    between atoms: C_16  and  C_17
REMARK    6  A    between atoms: N_19  and  C_20
REMARK    7  A    between atoms: C_25  and  C_30
REMARK    8  A    between atoms: C_27  and  C_29
REMARK                            x       y       z     vdW  Elec       q    Type
REMARK                         _______ _______ _______ _____ _____    ______ ____
ROOT
ATOM      1  C   UNL     1      -4.888  -0.928   0.021  0.00  0.00    +0.070 C 
ATOM      2  C   UNL     1      -5.340  -0.682   1.463  0.00  0.00    +0.004 C 
ATOM      3  C   UNL     1      -6.830  -0.333   1.473  0.00  0.00    -0.076 C 
ATOM      4  N   UNL     1      -7.600  -1.443   0.899  0.00  0.00    +0.385 N 
ATOM      5  C   UNL     1      -7.223  -1.637  -0.506  0.00  0.00    -0.076 C 
ATOM      6  C   UNL     1      -5.749  -2.037  -0.591  0.00  0.00    +0.004 C 
ATOM      7  H   UNL     1      -7.409  -2.287   1.418  0.00  0.00    -0.081 HD
ENDROOT
BRANCH   1  10
ATOM      8  C   UNL     1      -2.508  -0.405   0.012  0.00  0.00    +0.248 C 
ATOM      9  O   UNL     1      -2.798   0.776   0.021  0.00  0.00    -0.270 OA
ATOM     10  N   UNL     1      -3.482  -1.337   0.011  0.00  0.00    -0.309 N 
ATOM     11  H   UNL     1      -3.251  -2.280   0.005  0.00  0.00    +0.149 HD
BRANCH   8  14
ATOM     12  C   UNL     1      -0.018   1.503   0.010  0.00  0.00    +0.087 C 
ATOM     13  C   UNL     1       0.002  -0.004   0.002  0.00  0.00    +0.114 A 
ATOM     14  C   UNL     1      -1.093  -0.817   0.003  0.00  0.00    +0.077 A 
ATOM     15  C   UNL     1      -0.567  -2.190  -0.008  0.00  0.00    +0.054 A 
ATOM     16  C   UNL     1       0.769  -2.073  -0.014  0.00  0.00    +0.196 A 
ATOM     17  O   UNL     1       1.097  -0.771  -0.013  0.00  0.00    -0.467 OA
ENDBRANCH   8  14
ENDBRANCH   1  10
BRANCH   4  18
ATOM     18  C   UNL     1      -9.035  -1.135   0.982  0.00  0.00    +0.019 C 
BRANCH  18  19
ATOM     19  C   UNL     1      -9.831  -2.324   0.507  0.00  0.00    +0.197 C 
ATOM     20  O   UNL     1      -9.260  -3.327   0.136  0.00  0.00    -0.278 OA
ATOM     21  N   UNL     1     -11.178  -2.270   0.494  0.00  0.00    -0.314 N 
ATOM     22  H   UNL     1     -11.634  -1.468   0.790  0.00  0.00    +0.149 HD
BRANCH  21  23
ATOM     23  C   UNL     1     -11.952  -3.425   0.032  0.00  0.00    +0.076 C 
ATOM     24  C   UNL     1     -12.148  -4.404   1.192  0.00  0.00    +0.022 C 
ATOM     25  C   UNL     1     -12.956  -5.610   0.710  0.00  0.00    +0.002 C 
ATOM     26  C   UNL     1     -14.321  -5.140   0.203  0.00  0.00    +0.003 C 
ATOM     27  C   UNL     1     -14.125  -4.161  -0.956  0.00  0.00    -0.009 C 
ATOM     28  C   UNL     1     -13.317  -2.955  -0.474  0.00  0.00    +0.009 C 
ATOM     29  C   UNL     1     -13.121  -1.976  -1.633  0.00  0.00    +0.009 C 
ATOM     30  C   UNL     1     -13.373  -4.859  -2.091  0.00  0.00    +0.008 C 
ENDBRANCH  21  23
ENDBRANCH  18  19
ENDBRANCH   4  18
TORSDOF 5
