REMARK  Name = ZINC59436891
REMARK  14 active torsions:
REMARK  status: ('A' for Active; 'I' for Inactive)
REMARK    1  A    between atoms: C_1  and  C_2
REMARK    2  A    between atoms: C_4  and  C_35
REMARK    3  A    between atoms: C_6  and  N_8
REMARK    4  A    between atoms: C_9  and  C_34
REMARK    5  A    between atoms: C_11  and  C_14
REMARK    6  A    between atoms: C_12  and  C_13
REMARK    7  A    between atoms: N_15  and  N_16
REMARK    8  A    between atoms: C_17  and  C_19
REMARK    9  A    between atoms: C_19  and  N_20
REMARK   10  A    between atoms: N_20  and  C_21
REMARK   11  A    between atoms: N_20  and  S_30
REMARK   12  A    between atoms: C_26  and  O_27
REMARK   13  A    between atoms: O_27  and  C_28
REMARK   14  A    between atoms: S_30  and  C_33
REMARK                            x       y       z     vdW  Elec       q    Type
REMARK                         _______ _______ _______ _____ _____    ______ ____
ROOT
ATOM      1  N   UNL     1       3.440  -3.541   6.856  0.00  0.00    -0.206 N 
ATOM      2  C   UNL     1       4.644  -2.956   7.011  0.00  0.00    +0.251 C 
ATOM      3  O   UNL     1       5.070  -2.208   6.156  0.00  0.00    -0.272 OA
ATOM      4  H   UNL     1       3.099  -4.139   7.540  0.00  0.00    +0.177 HD
ENDROOT
BRANCH   1   6
ATOM      5  C   UNL     1       1.520  -3.849   5.558  0.00  0.00    +0.140 C 
ATOM      6  N   UNL     1       2.680  -3.286   5.707  0.00  0.00    -0.188 NA
BRANCH   5  10
ATOM      7  N   UNL     1       0.050  -2.798   2.395  0.00  0.00    -0.317 N 
ATOM      8  C   UNL     1      -0.949  -3.620   2.833  0.00  0.00    +0.022 A 
ATOM      9  C   UNL     1      -0.599  -4.132   4.027  0.00  0.00    +0.032 A 
ATOM     10  C   UNL     1       0.721  -3.581   4.349  0.00  0.00    +0.016 A 
ATOM     11  C   UNL     1       1.064  -2.774   3.302  0.00  0.00    +0.030 A 
ATOM     12  C   UNL     1       2.344  -1.990   3.175  0.00  0.00    +0.064 C 
ATOM     13  C   UNL     1      -2.234  -3.906   2.099  0.00  0.00    +0.064 C 
BRANCH   7  19
ATOM     14  C   UNL     1      -0.018   1.503   0.010  0.00  0.00    +0.044 C 
ATOM     15  C   UNL     1       0.002  -0.004   0.002  0.00  0.00    -0.048 A 
ATOM     16  C   UNL     1       0.006  -0.688  -1.200  0.00  0.00    +0.006 A 
ATOM     17  C   UNL     1       0.024  -2.071  -1.211  0.00  0.00    -0.048 A 
ATOM     18  C   UNL     1       0.039  -2.773  -0.022  0.00  0.00    +0.029 A 
ATOM     19  C   UNL     1       0.035  -2.089   1.186  0.00  0.00    +0.047 A 
ATOM     20  C   UNL     1       0.023  -0.700   1.195  0.00  0.00    +0.029 A 
ATOM     21  C   UNL     1       0.027  -2.812  -2.523  0.00  0.00    +0.044 C 
ENDBRANCH   7  19
ENDBRANCH   5  10
ENDBRANCH   1   6
BRANCH   2  22
ATOM     22  C   UNL     1       5.461  -3.230   8.247  0.00  0.00    +0.228 C 
BRANCH  22  23
ATOM     23  N   UNL     1       6.718  -2.481   8.178  0.00  0.00    -0.195 N 
BRANCH  23  24
ATOM     24  C   UNL     1       6.764  -1.150   8.606  0.00  0.00    +0.094 A 
ATOM     25  C   UNL     1       6.970  -0.857   9.946  0.00  0.00    +0.048 A 
ATOM     26  C   UNL     1       7.015   0.460  10.367  0.00  0.00    +0.043 A 
ATOM     27  C   UNL     1       6.856   1.487   9.453  0.00  0.00    +0.024 A 
ATOM     28  C   UNL     1       6.651   1.201   8.115  0.00  0.00    +0.049 A 
ATOM     29  C   UNL     1       6.610  -0.115   7.686  0.00  0.00    +0.143 A 
ATOM     30 CL   UNL     1       7.272   0.826  12.044  0.00  0.00    -0.083 Cl
BRANCH  29  31
ATOM     31  O   UNL     1       6.413  -0.396   6.370  0.00  0.00    -0.493 OA
ATOM     32  C   UNL     1       6.263   0.715   5.484  0.00  0.00    +0.277 C 
ENDBRANCH  29  31
ENDBRANCH  23  24
BRANCH  23  33
ATOM     33  S   UNL     1       8.085  -3.211   7.592  0.00  0.00    +0.043 S 
ATOM     34  O   UNL     1       9.156  -2.575   8.276  0.00  0.00    -0.155 OA
ATOM     35  O   UNL     1       7.849  -4.603   7.750  0.00  0.00    -0.155 OA
ATOM     36  C   UNL     1       8.125  -2.780   5.830  0.00  0.00    +0.218 C 
ENDBRANCH  23  33
ENDBRANCH  22  23
ENDBRANCH   2  22
TORSDOF 8
