REMARK  Name = ZINC39711402
REMARK  11 active torsions:
REMARK  status: ('A' for Active; 'I' for Inactive)
REMARK    1  A    between atoms: C_1  and  C_2
REMARK    2  A    between atoms: C_2  and  O_3
REMARK    3  A    between atoms: O_3  and  C_4
REMARK    4  A    between atoms: C_11  and  C_16
REMARK    5  A    between atoms: C_16  and  C_18
REMARK    6  A    between atoms: C_16  and  N_28
REMARK    7  A    between atoms: N_23  and  C_24
REMARK    8  A    between atoms: C_24  and  C_25
REMARK    9  A    between atoms: C_24  and  C_26
REMARK   10  A    between atoms: C_24  and  C_27
REMARK   11  A    between atoms: C_34  and  C_36
REMARK                            x       y       z     vdW  Elec       q    Type
REMARK                         _______ _______ _______ _____ _____    ______ ____
ROOT
ATOM      1  C   UNL     1      -4.381  -5.567   2.024  0.00  0.00    -0.009 C 
ENDROOT
BRANCH   1   9
ATOM      2  C   UNL     1      -4.946  -3.233  -3.297  0.00  0.00    +0.121 A 
ATOM      3  C   UNL     1      -4.649  -1.951  -2.817  0.00  0.00    +0.047 A 
ATOM      4  C   UNL     1      -4.143  -1.734  -1.576  0.00  0.00    +0.027 A 
ATOM      5  C   UNL     1      -3.892  -2.812  -0.706  0.00  0.00    +0.041 A 
ATOM      6  N   UNL     1      -3.395  -2.585   0.510  0.00  0.00    -0.285 N 
ATOM      7  C   UNL     1      -3.135  -3.549   1.376  0.00  0.00    +0.223 C 
ATOM      8  O   UNL     1      -2.682  -3.279   2.473  0.00  0.00    -0.275 OA
ATOM      9  C   UNL     1      -3.404  -4.989   0.999  0.00  0.00    +0.088 C 
ATOM     10  C   UNL     1      -3.970  -5.253  -0.382  0.00  0.00    -0.006 C 
ATOM     11  C   UNL     1      -4.194  -4.173  -1.183  0.00  0.00    -0.004 A 
ATOM     12  C   UNL     1      -4.744  -4.340  -2.529  0.00  0.00    +0.055 A 
ATOM     13  H   UNL     1      -3.215  -1.668   0.771  0.00  0.00    +0.155 HD
BRANCH   2  14
ATOM     14  O   UNL     1      -5.451  -3.374  -4.551  0.00  0.00    -0.492 OA
BRANCH  14  16
ATOM     15  C   UNL     1      -6.214  -2.537  -6.686  0.00  0.00    +0.048 C 
ATOM     16  C   UNL     1      -5.643  -2.180  -5.312  0.00  0.00    +0.225 C 
ENDBRANCH  14  16
ENDBRANCH   2  14
ENDBRANCH   1   9
BRANCH   1  17
ATOM     17  N   UNL     1      -4.619  -6.986   1.727  0.00  0.00    +0.387 N 
ATOM     18  C   UNL     1      -5.577  -7.534   2.696  0.00  0.00    -0.059 C 
ATOM     19  C   UNL     1      -5.913  -8.980   2.320  0.00  0.00    +0.089 C 
ATOM     20  N   UNL     1      -4.657  -9.739   2.212  0.00  0.00    -0.299 N 
ATOM     21  C   UNL     1      -3.576  -9.177   1.387  0.00  0.00    +0.089 C 
ATOM     22  C   UNL     1      -3.350  -7.721   1.808  0.00  0.00    -0.059 C 
ATOM     23  C   UNL     1      -4.500 -10.914   2.852  0.00  0.00    +0.282 C 
ATOM     24  O   UNL     1      -5.361 -11.311   3.616  0.00  0.00    -0.267 OA
ATOM     25  H   UNL     1      -4.999  -7.075   0.796  0.00  0.00    -0.081 HD
BRANCH  23  26
ATOM     26  C   UNL     1      -3.292 -11.716   2.629  0.00  0.00    +0.189 A 
ATOM     27  C   UNL     1      -2.940 -12.844   3.312  0.00  0.00    +0.054 A 
ATOM     28  C   UNL     1      -1.720 -13.279   2.771  0.00  0.00    +0.042 A 
ATOM     29  C   UNL     1      -1.385 -12.408   1.794  0.00  0.00    +0.196 A 
ATOM     30  O   UNL     1      -2.337 -11.470   1.708  0.00  0.00    -0.458 OA
ENDBRANCH  23  26
ENDBRANCH   1  17
BRANCH   1  31
ATOM     31  C   UNL     1      -5.705  -4.803   1.955  0.00  0.00    +0.205 C 
ATOM     32  N   UNL     1      -6.254  -4.850   0.593  0.00  0.00    -0.152 NA
ATOM     33  N   UNL     1      -6.336  -3.700   0.157  0.00  0.00    -0.070 NA
ATOM     34  N   UNL     1      -5.894  -2.741   1.068  0.00  0.00    -0.179 N 
ATOM     35  N   UNL     1      -5.485  -3.366   2.220  0.00  0.00    -0.183 NA
ATOM     36  H   UNL     1      -5.879  -1.784   0.913  0.00  0.00    +0.191 HD
BRANCH  35  37
ATOM     37  C   UNL     1      -6.275  -2.916   3.374  0.00  0.00    +0.035 C 
ATOM     38  C   UNL     1      -5.864  -3.712   4.615  0.00  0.00    +0.029 C 
ATOM     39  C   UNL     1      -6.022  -1.427   3.617  0.00  0.00    +0.029 C 
ATOM     40  C   UNL     1      -7.762  -3.142   3.094  0.00  0.00    +0.029 C 
ENDBRANCH  35  37
ENDBRANCH   1  31
TORSDOF 7
