REMARK  Name = ZINC28933072
REMARK  8 active torsions:
REMARK  status: ('A' for Active; 'I' for Inactive)
REMARK    1  A    between atoms: C_1  and  C_2
REMARK    2  A    between atoms: C_5  and  N_9
REMARK    3  A    between atoms: C_6  and  C_8
REMARK    4  A    between atoms: C_19  and  S_20
REMARK    5  A    between atoms: S_20  and  C_21
REMARK    6  A    between atoms: C_21  and  C_22
REMARK    7  A    between atoms: C_24  and  O_25
REMARK    8  A    between atoms: C_34  and  C_36
REMARK                            x       y       z     vdW  Elec       q    Type
REMARK                         _______ _______ _______ _____ _____    ______ ____
ROOT
ATOM      1  N   UNL     1       1.947  -8.704   3.202  0.00  0.00    -0.255 N 
ATOM      2  C   UNL     1       1.699  -9.352   4.364  0.00  0.00    +0.267 A 
ATOM      3  O   UNL     1       2.606  -9.771   5.059  0.00  0.00    -0.267 OA
ATOM      4  C   UNL     1       0.294  -9.530   4.756  0.00  0.00    +0.065 A 
ATOM      5  C   UNL     1      -0.064 -10.183   5.934  0.00  0.00    +0.015 A 
ATOM      6  C   UNL     1      -1.387 -10.322   6.252  0.00  0.00    +0.001 A 
ATOM      7  C   UNL     1      -2.375  -9.820   5.414  0.00  0.00    +0.002 A 
ATOM      8  C   UNL     1      -2.052  -9.176   4.253  0.00  0.00    +0.028 A 
ATOM      9  C   UNL     1      -0.708  -9.018   3.900  0.00  0.00    +0.079 A 
ATOM     10  N   UNL     1      -0.343  -8.382   2.763  0.00  0.00    -0.223 NA
ATOM     11  C   UNL     1       0.917  -8.239   2.432  0.00  0.00    +0.177 A 
ENDROOT
BRANCH   1  16
ATOM     12  C   UNL     1       7.306  -7.911   1.512  0.00  0.00    +0.044 C 
ATOM     13  C   UNL     1       5.883  -8.122   1.960  0.00  0.00    -0.050 A 
ATOM     14  C   UNL     1       5.262  -7.175   2.754  0.00  0.00    +0.005 A 
ATOM     15  C   UNL     1       3.958  -7.365   3.167  0.00  0.00    +0.027 A 
ATOM     16  C   UNL     1       3.270  -8.508   2.784  0.00  0.00    +0.055 A 
ATOM     17  C   UNL     1       3.897  -9.460   1.992  0.00  0.00    -0.026 A 
ATOM     18  C   UNL     1       5.200  -9.261   1.577  0.00  0.00    +0.008 A 
ATOM     19  C   UNL     1       3.156 -10.706   1.579  0.00  0.00    +0.046 C 
ENDBRANCH   1  16
BRANCH  11  20
ATOM     20  S   UNL     1       1.302  -7.404   0.929  0.00  0.00    -0.083 S 
BRANCH  20  21
ATOM     21  C   UNL     1      -0.369  -7.024   0.344  0.00  0.00    +0.113 C 
BRANCH  21  22
ATOM     22  C   UNL     1      -0.286  -6.287  -0.968  0.00  0.00    -0.020 A 
ATOM     23  C   UNL     1      -0.279  -6.960  -2.147  0.00  0.00    +0.092 A 
ATOM     24  C   UNL     1      -0.200  -6.248  -3.361  0.00  0.00    +0.285 A 
ATOM     25  O   UNL     1      -0.132  -4.908  -3.389  0.00  0.00    -0.425 OA
ATOM     26  C   UNL     1      -0.136  -4.178  -2.253  0.00  0.00    +0.141 A 
ATOM     27  C   UNL     1      -0.211  -4.825  -1.005  0.00  0.00    +0.022 A 
ATOM     28  C   UNL     1      -0.215  -4.073   0.175  0.00  0.00    +0.013 A 
ATOM     29  C   UNL     1      -0.140  -2.712   0.112  0.00  0.00    +0.024 A 
ATOM     30  C   UNL     1      -0.071  -2.064  -1.121  0.00  0.00    +0.037 A 
ATOM     31  C   UNL     1      -0.065  -2.794  -2.300  0.00  0.00    +0.070 A 
ATOM     32  N   UNL     1       0.000  -0.672  -1.169  0.00  0.00    -0.286 N 
ATOM     33  C   UNL     1      -0.605  -0.000  -2.168  0.00  0.00    +0.214 C 
ATOM     34  O   UNL     1      -1.141  -0.609  -3.070  0.00  0.00    -0.276 OA
ATOM     35  C   UNL     1      -0.617   1.507  -2.165  0.00  0.00    +0.109 C 
ATOM     36  H   UNL     1       0.550  -0.122  -0.391  0.00  0.00    +0.155 HD
BRANCH  24  37
ATOM     37  O   UNL     1      -0.194  -6.865  -4.412  0.00  0.00    -0.480 OA
ATOM     38  H   UNL     1      -0.133  -6.323  -5.367  0.00  0.00    +0.295 HD
ENDBRANCH  24  37
ENDBRANCH  21  22
ENDBRANCH  20  21
ENDBRANCH  11  20
TORSDOF 5
