REMARK  Name = ZINC17397106
REMARK  6 active torsions:
REMARK  status: ('A' for Active; 'I' for Inactive)
REMARK    1  A    between atoms: C_5  and  N_7
REMARK    2  A    between atoms: N_7  and  S_8
REMARK    3  A    between atoms: S_8  and  C_11
REMARK    4  A    between atoms: C_15  and  C_17
REMARK    5  A    between atoms: N_19  and  N_20
REMARK    6  A    between atoms: C_21  and  C_23
REMARK                            x       y       z     vdW  Elec       q    Type
REMARK                         _______ _______ _______ _____ _____    ______ ____
ROOT
ATOM      1  C   UNL     1       3.463   2.417   2.438  0.00  0.00    +0.109 A 
ATOM      2  C   UNL     1       2.848   3.490   3.059  0.00  0.00    +0.029 A 
ATOM      3  C   UNL     1       2.632   3.475   4.425  0.00  0.00    +0.003 A 
ATOM      4  C   UNL     1       3.038   2.393   5.179  0.00  0.00    +0.013 A 
ATOM      5  C   UNL     1       3.664   1.311   4.560  0.00  0.00    +0.040 A 
ATOM      6  C   UNL     1       3.875   1.330   3.180  0.00  0.00    +0.042 A 
ENDROOT
BRANCH   5   7
ATOM      7  C   UNL     1       4.103   0.149   5.362  0.00  0.00    +0.260 C 
ATOM      8  O   UNL     1       4.649  -0.793   4.820  0.00  0.00    -0.269 OA
ATOM      9  N   UNL     1       3.899   0.134   6.694  0.00  0.00    -0.230 N 
ATOM     10  H   UNL     1       3.464   0.885   7.127  0.00  0.00    +0.173 HD
BRANCH   9  11
ATOM     11  N   UNL     1       4.315  -0.968   7.454  0.00  0.00    -0.228 N 
ATOM     12  C   UNL     1       4.110  -0.983   8.786  0.00  0.00    +0.295 C 
ATOM     13  O   UNL     1       3.564  -0.040   9.329  0.00  0.00    -0.265 OA
ATOM     14  H   UNL     1       4.750  -1.719   7.022  0.00  0.00    +0.173 HD
BRANCH  12  15
ATOM     15  C   UNL     1       4.545  -2.135   9.581  0.00  0.00    +0.192 A 
ATOM     16  C   UNL     1       4.405  -2.276  10.933  0.00  0.00    +0.056 A 
ATOM     17  C   UNL     1       4.954  -3.523  11.267  0.00  0.00    +0.058 A 
ATOM     18  C   UNL     1       5.408  -4.079  10.120  0.00  0.00    +0.171 A 
ATOM     19  O   UNL     1       5.160  -3.239   9.107  0.00  0.00    -0.444 OA
ATOM     20 BR   UNL     1       6.253  -5.764   9.973  0.00  0.00    -0.008 Br
ENDBRANCH  12  15
ENDBRANCH   9  11
ENDBRANCH   5   7
BRANCH   1  21
ATOM     21  S   UNL     1       3.728   2.443   0.696  0.00  0.00    +0.072 S 
ATOM     22  O   UNL     1       4.815   1.566   0.437  0.00  0.00    -0.150 OA
ATOM     23  O   UNL     1       3.742   3.810   0.308  0.00  0.00    -0.150 OA
BRANCH  21  24
ATOM     24  N   UNL     1       2.393   1.764  -0.012  0.00  0.00    -0.215 N 
ATOM     25  H   UNL     1       2.485   0.966  -0.555  0.00  0.00    +0.174 HD
BRANCH  24  30
ATOM     26  C   UNL     1      -0.238   4.291   0.439  0.00  0.00    +0.002 A 
ATOM     27  C   UNL     1      -1.359   3.487   0.538  0.00  0.00    +0.002 A 
ATOM     28  C   UNL     1      -1.238   2.112   0.450  0.00  0.00    +0.022 A 
ATOM     29  C   UNL     1       0.006   1.537   0.273  0.00  0.00    +0.063 A 
ATOM     30  C   UNL     1       1.134   2.342   0.173  0.00  0.00    +0.066 A 
ATOM     31  C   UNL     1       1.007   3.723   0.257  0.00  0.00    +0.026 A 
ATOM     32 CL   UNL     1       0.159  -0.190   0.170  0.00  0.00    -0.082 Cl
ENDBRANCH  24  30
ENDBRANCH  21  24
ENDBRANCH   1  21
TORSDOF 6
