REMARK  Name = ZINC15828631
REMARK  2 active torsions:
REMARK  status: ('A' for Active; 'I' for Inactive)
REMARK    1  A    between atoms: C_3  and  C_6
REMARK    2  A    between atoms: C_6  and  N_7
REMARK                            x       y       z     vdW  Elec       q    Type
REMARK                         _______ _______ _______ _____ _____    ______ ____
ROOT
ATOM      1  N   UNL     1       4.234   2.004   1.353  0.00  0.00    -0.271 N 
ATOM      2  C   UNL     1       4.047   3.206   2.018  0.00  0.00    +0.240 A 
ATOM      3  N   UNL     1       3.484   4.328   1.628  0.00  0.00    -0.109 NA
ATOM      4  N   UNL     1       3.556   5.241   2.688  0.00  0.00    -0.119 NA
ATOM      5  C   UNL     1       4.160   4.651   3.691  0.00  0.00    +0.208 A 
ATOM      6  S   UNL     1       4.500   5.370   5.264  0.00  0.00    -0.009 SA
ATOM      7  N   UNL     1       4.478   3.380   3.302  0.00  0.00    -0.254 N 
ATOM      8  C   UNL     1       5.126   2.339   3.990  0.00  0.00    +0.071 A 
ATOM      9  C   UNL     1       5.635   2.314   5.286  0.00  0.00    +0.035 A 
ATOM     10  C   UNL     1       6.227   1.193   5.751  0.00  0.00    +0.048 A 
ATOM     11  S   UNL     1       6.133   0.109   4.471  0.00  0.00    -0.090 S 
ATOM     12  C   UNL     1       5.300   1.142   3.296  0.00  0.00    +0.101 A 
ATOM     13  C   UNL     1       4.848   0.976   1.980  0.00  0.00    +0.270 A 
ATOM     14  O   UNL     1       5.011  -0.085   1.404  0.00  0.00    -0.266 OA
ENDROOT
BRANCH   1  15
ATOM     15  C   UNL     1       3.761   1.845  -0.024  0.00  0.00    +0.170 C 
BRANCH  15  18
ATOM     16  C   UNL     1      -0.016   1.351   0.009  0.00  0.00    +0.008 A 
ATOM     17  C   UNL     1       1.183   2.038   0.002  0.00  0.00    +0.013 A 
ATOM     18  C   UNL     1       2.343   1.336  -0.013  0.00  0.00    +0.010 A 
ATOM     19  S   UNL     1       1.754  -0.349  -0.017  0.00  0.00    -0.100 S 
ATOM     20  C   UNL     1       0.002  -0.004   0.002  0.00  0.00    +0.045 A 
ENDBRANCH  15  18
ENDBRANCH   1  15
TORSDOF 2
