REMARK  Name = ZINC20292226
REMARK  7 active torsions:
REMARK  status: ('A' for Active; 'I' for Inactive)
REMARK    1  A    between atoms: C_1  and  C_2
REMARK    2  A    between atoms: C_8  and  C_10
REMARK    3  A    between atoms: C_10  and  S_11
REMARK    4  A    between atoms: S_11  and  C_12
REMARK    5  A    between atoms: N_16  and  N_17
REMARK    6  A    between atoms: N_18  and  N_19
REMARK    7  A    between atoms: C_20  and  C_21
REMARK                            x       y       z     vdW  Elec       q    Type
REMARK                         _______ _______ _______ _____ _____    ______ ____
ROOT
ATOM      1  C   UNL     1       0.131  -7.856   4.002  0.00  0.00    +0.210 A 
ATOM      2  N   UNL     1       0.125  -7.399   5.231  0.00  0.00    -0.119 NA
ATOM      3  N   UNL     1       0.147  -8.498   6.101  0.00  0.00    -0.109 NA
ATOM      4  C   UNL     1       0.165  -9.589   5.375  0.00  0.00    +0.254 A 
ATOM      5  N   UNL     1       0.150  -9.221   4.058  0.00  0.00    -0.211 N 
ATOM      6  N   UNL     1       0.190 -10.890   5.857  0.00  0.00    -0.204 N 
ATOM      7  H   UNL     1       0.203 -11.636   5.239  0.00  0.00    +0.177 HD
ENDROOT
BRANCH   5   8
ATOM      8  N   UNL     1       0.156 -10.069   2.987  0.00  0.00    -0.294 N 
ATOM      9  H   UNL     1       1.100 -10.280   2.699  0.00  0.00    +0.163 HD
ATOM     10  H   UNL     1      -0.357 -10.913   3.191  0.00  0.00    +0.163 HD
ENDBRANCH   5   8
BRANCH   6  11
ATOM     11  N   UNL     1       0.197 -11.124   7.239  0.00  0.00    -0.188 NA
ATOM     12  C   UNL     1       0.220 -12.341   7.691  0.00  0.00    +0.138 C 
BRANCH  12  13
ATOM     13  C   UNL     1       0.226 -12.588   9.144  0.00  0.00    -0.004 A 
ATOM     14  C   UNL     1       0.202 -11.514  10.038  0.00  0.00    +0.009 A 
ATOM     15  C   UNL     1       0.208 -11.752  11.397  0.00  0.00    +0.002 A 
ATOM     16  C   UNL     1       0.238 -13.050  11.876  0.00  0.00    +0.015 A 
ATOM     17  C   UNL     1       0.263 -14.119  10.996  0.00  0.00    +0.018 A 
ATOM     18  C   UNL     1       0.251 -13.896   9.634  0.00  0.00    +0.024 A 
ATOM     19 BR   UNL     1       0.305 -15.888  11.662  0.00  0.00    -0.050 Br
ENDBRANCH  12  13
ENDBRANCH   6  11
BRANCH   1  20
ATOM     20  S   UNL     1       0.110  -6.881   2.534  0.00  0.00    -0.075 S 
BRANCH  20  21
ATOM     21  C   UNL     1       0.089  -5.172   3.144  0.00  0.00    +0.173 C 
BRANCH  21  29
ATOM     22  C   UNL     1      -0.018   1.503   0.010  0.00  0.00    +0.066 C 
ATOM     23  C   UNL     1       0.002  -0.004   0.002  0.00  0.00    +0.047 A 
ATOM     24  C   UNL     1       0.006  -0.706  -1.158  0.00  0.00    +0.071 A 
ATOM     25  S   UNL     1       0.032  -2.379  -0.535  0.00  0.00    -0.060 S 
ATOM     26  C   UNL     1       0.036  -2.015   1.108  0.00  0.00    +0.165 A 
ATOM     27  N   UNL     1       0.023  -0.700   1.124  0.00  0.00    -0.230 NA
ATOM     28  N   UNL     1       0.053  -2.891   2.187  0.00  0.00    -0.264 N 
ATOM     29  C   UNL     1       0.071  -4.222   1.974  0.00  0.00    +0.229 C 
ATOM     30  O   UNL     1       0.071  -4.655   0.841  0.00  0.00    -0.275 OA
ATOM     31  H   UNL     1       0.053  -2.545   3.093  0.00  0.00    +0.157 HD
ENDBRANCH  21  29
ENDBRANCH  20  21
ENDBRANCH   1  20
TORSDOF 6
