REMARK  Name = ZINC67187149
REMARK  7 active torsions:
REMARK  status: ('A' for Active; 'I' for Inactive)
REMARK    1  A    between atoms: C_8  and  C_10
REMARK    2  A    between atoms: C_11  and  C_16
REMARK    3  A    between atoms: C_16  and  N_17
REMARK    4  A    between atoms: N_17  and  C_18
REMARK    5  A    between atoms: C_18  and  C_19
REMARK    6  A    between atoms: C_19  and  C_21
REMARK    7  A    between atoms: C_19  and  N_27
REMARK                            x       y       z     vdW  Elec       q    Type
REMARK                         _______ _______ _______ _____ _____    ______ ____
ROOT
ATOM      1  C   UNL     1       5.920  -2.497  -2.327  0.00  0.00    -0.043 C 
ENDROOT
BRANCH   1   3
ATOM      2  C   UNL     1       4.020  -3.708  -1.028  0.00  0.00    +0.129 A 
ATOM      3  C   UNL     1       5.291  -3.682  -1.639  0.00  0.00    -0.016 A 
ATOM      4  C   UNL     1       5.844  -4.905  -1.498  0.00  0.00    +0.107 A 
ATOM      5  N   UNL     1       4.969  -5.685  -0.827  0.00  0.00    -0.284 N 
ATOM      6  H   UNL     1       5.104  -6.614  -0.585  0.00  0.00    +0.188 HD
ATOM      7  N   UNL     1       3.834  -4.917  -0.536  0.00  0.00    -0.171 NA
BRANCH   2  15
ATOM      8  C   UNL     1      -0.245   0.573  -0.766  0.00  0.00    +0.001 A 
ATOM      9  C   UNL     1       0.860   1.394  -0.593  0.00  0.00    +0.004 A 
ATOM     10  C   UNL     1       2.134   0.867  -0.577  0.00  0.00    +0.047 A 
ATOM     11  C   UNL     1       2.318  -0.501  -0.736  0.00  0.00    +0.136 A 
ATOM     12  C   UNL     1       1.195  -1.328  -0.912  0.00  0.00    +0.021 A 
ATOM     13  C   UNL     1      -0.087  -0.776  -0.925  0.00  0.00    +0.011 A 
ATOM     14  C   UNL     1       1.723  -2.688  -1.048  0.00  0.00    +0.060 A 
ATOM     15  C   UNL     1       3.069  -2.579  -0.948  0.00  0.00    +0.156 A 
ATOM     16  O   UNL     1       3.412  -1.289  -0.765  0.00  0.00    -0.453 OA
ENDBRANCH   2  15
ENDBRANCH   1   3
BRANCH   1  17
ATOM     17  N   UNL     1       6.528  -1.614  -1.323  0.00  0.00    +0.383 N 
ATOM     18  H   UNL     1       5.834  -1.357  -0.637  0.00  0.00    -0.085 HD
ATOM     19  H   UNL     1       7.289  -2.095  -0.869  0.00  0.00    -0.085 HD
BRANCH  17  20
ATOM     20  C   UNL     1       7.037  -0.403  -1.981  0.00  0.00    -0.063 C 
BRANCH  20  21
ATOM     21  C   UNL     1       7.808   0.443  -0.966  0.00  0.00    +0.045 C 
BRANCH  21  22
ATOM     22  N   UNL     1       6.903   0.856   0.115  0.00  0.00    -0.297 NA
ATOM     23  C   UNL     1       5.926   1.845  -0.364  0.00  0.00    +0.112 C 
ATOM     24  C   UNL     1       4.969   2.202   0.776  0.00  0.00    +0.175 C 
ATOM     25  O   UNL     1       5.722   2.683   1.893  0.00  0.00    -0.377 OA
ATOM     26  C   UNL     1       6.683   1.744   2.385  0.00  0.00    +0.175 C 
ATOM     27  C   UNL     1       7.658   1.383   1.262  0.00  0.00    +0.112 C 
ENDBRANCH  21  22
BRANCH  21  28
ATOM     28  C   UNL     1       8.373   1.684  -1.660  0.00  0.00    +0.032 C 
ATOM     29  C   UNL     1       9.174   1.282  -2.922  0.00  0.00    +0.035 C 
ATOM     30  C   UNL     1      10.391   2.239  -2.853  0.00  0.00    +0.160 C 
ATOM     31  O   UNL     1      10.676   2.320  -1.440  0.00  0.00    -0.379 OA
ATOM     32  C   UNL     1       9.408   2.382  -0.758  0.00  0.00    +0.164 C 
ENDBRANCH  21  28
ENDBRANCH  20  21
ENDBRANCH  17  20
ENDBRANCH   1  17
TORSDOF 7
