REMARK  Name = ZINC14667616
REMARK  7 active torsions:
REMARK  status: ('A' for Active; 'I' for Inactive)
REMARK    1  A    between atoms: C_3  and  S_26
REMARK    2  A    between atoms: C_6  and  C_7
REMARK    3  A    between atoms: C_7  and  C_8
REMARK    4  A    between atoms: C_8  and  C_9
REMARK    5  A    between atoms: N_14  and  C_17
REMARK    6  A    between atoms: C_20  and  N_23
REMARK    7  A    between atoms: S_26  and  N_29
REMARK                            x       y       z     vdW  Elec       q    Type
REMARK                         _______ _______ _______ _____ _____    ______ ____
ROOT
ATOM      1  C   UNL     1       4.445   0.069   1.730  0.00  0.00    +0.100 C 
ENDROOT
BRANCH   1   2
ATOM      2  C   UNL     1       3.103  -0.607   1.612  0.00  0.00    +0.216 C 
ATOM      3  O   UNL     1       3.022  -1.813   1.708  0.00  0.00    -0.276 OA
ATOM      4  N   UNL     1       1.995   0.130   1.400  0.00  0.00    -0.298 N 
ATOM      5  C   UNL     1       0.675  -0.509   1.282  0.00  0.00    +0.126 C 
ATOM      6  C   UNL     1       0.002  -0.004   0.002  0.00  0.00    +0.124 C 
ATOM      7  N   UNL     1      -0.018   1.465   0.010  0.00  0.00    -0.327 N 
ATOM      8  C   UNL     1       1.344   2.016   0.000  0.00  0.00    +0.124 C 
ATOM      9  C   UNL     1       2.072   1.594   1.280  0.00  0.00    +0.126 C 
BRANCH   7  10
ATOM     10  C   UNL     1      -0.767   1.961  -1.059  0.00  0.00    +0.030 A 
ATOM     11  C   UNL     1      -1.365   1.085  -1.956  0.00  0.00    +0.025 A 
ATOM     12  C   UNL     1      -2.110   1.579  -3.009  0.00  0.00    +0.034 A 
ATOM     13  C   UNL     1      -2.251   2.944  -3.178  0.00  0.00    +0.126 A 
ATOM     14  C   UNL     1      -1.651   3.819  -2.290  0.00  0.00    +0.034 A 
ATOM     15  C   UNL     1      -0.910   3.332  -1.232  0.00  0.00    +0.025 A 
BRANCH  13  16
ATOM     16  N   UNL     1      -3.045   3.470  -4.311  0.00  0.00    +0.056 N 
ATOM     17  O   UNL     1      -3.170   4.673  -4.460  0.00  0.00    -0.126 OA
ATOM     18  O   UNL     1      -3.573   2.701  -5.093  0.00  0.00    -0.126 OA
ENDBRANCH  13  16
ENDBRANCH   7  10
ENDBRANCH   1   2
BRANCH   1  19
ATOM     19  C   UNL     1       5.528  -0.985   1.966  0.00  0.00    +0.044 C 
BRANCH  19  25
ATOM     20  C   UNL     1       7.645  -0.110   0.956  0.00  0.00    +0.005 A 
ATOM     21  C   UNL     1       8.874   0.514   1.063  0.00  0.00    +0.029 A 
ATOM     22  C   UNL     1       9.332   0.929   2.299  0.00  0.00    +0.105 A 
ATOM     23  C   UNL     1       8.560   0.725   3.428  0.00  0.00    +0.029 A 
ATOM     24  C   UNL     1       7.330   0.105   3.320  0.00  0.00    +0.005 A 
ATOM     25  C   UNL     1       6.870  -0.310   2.084  0.00  0.00    -0.047 A 
BRANCH  22  26
ATOM     26  S   UNL     1      10.901   1.721   2.437  0.00  0.00    +0.061 S 
ATOM     27  O   UNL     1      11.185   2.283   1.163  0.00  0.00    -0.153 OA
ATOM     28  O   UNL     1      10.859   2.502   3.623  0.00  0.00    -0.153 OA
BRANCH  26  29
ATOM     29  N   UNL     1      12.027   0.534   2.692  0.00  0.00    -0.177 NA
ATOM     30  C   UNL     1      12.375   0.113   4.056  0.00  0.00    +0.109 C 
ATOM     31  C   UNL     1      12.206  -1.411   4.155  0.00  0.00    +0.017 C 
ATOM     32  C   UNL     1      13.036  -2.083   3.059  0.00  0.00    +0.003 C 
ATOM     33  C   UNL     1      12.533  -1.631   1.686  0.00  0.00    +0.017 C 
ATOM     34  C   UNL     1      12.702  -0.114   1.559  0.00  0.00    +0.109 C 
ENDBRANCH  26  29
ENDBRANCH  22  26
ENDBRANCH  19  25
ENDBRANCH   1  19
TORSDOF 7
