REMARK  Name = ZINC64084408
REMARK  8 active torsions:
REMARK  status: ('A' for Active; 'I' for Inactive)
REMARK    1  A    between atoms: C_1  and  C_2
REMARK    2  A    between atoms: C_2  and  C_3
REMARK    3  A    between atoms: C_3  and  C_5
REMARK    4  A    between atoms: C_3  and  N_8
REMARK    5  A    between atoms: C_5  and  O_6
REMARK    6  A    between atoms: O_6  and  C_7
REMARK    7  A    between atoms: C_11  and  C_34
REMARK    8  A    between atoms: C_12  and  C_18
REMARK                            x       y       z     vdW  Elec       q    Type
REMARK                         _______ _______ _______ _____ _____    ______ ____
ROOT
ATOM      1  N   UNL     1      -3.140   1.209  -2.276  0.00  0.00    -0.323 N 
ATOM      2  C   UNL     1      -2.033   1.948  -2.638  0.00  0.00    +0.131 A 
ATOM      3  C   UNL     1      -1.519   1.875  -3.967  0.00  0.00    +0.051 A 
ATOM      4  C   UNL     1      -1.980   1.123  -5.056  0.00  0.00    -0.019 A 
ATOM      5  C   UNL     1      -1.336   1.200  -6.253  0.00  0.00    +0.080 A 
ATOM      6  S   UNL     1      -0.016   2.354  -5.923  0.00  0.00    -0.064 S 
ATOM      7  C   UNL     1      -0.380   2.679  -4.217  0.00  0.00    +0.114 A 
ATOM      8  N   UNL     1       0.150   3.433  -3.276  0.00  0.00    -0.228 NA
ATOM      9  C   UNL     1      -0.373   3.457  -2.065  0.00  0.00    +0.224 A 
ATOM     10  N   UNL     1      -1.437   2.737  -1.759  0.00  0.00    -0.220 NA
ATOM     11  C   UNL     1      -3.185   0.232  -4.902  0.00  0.00    +0.046 C 
ATOM     12  H   UNL     1      -3.581   0.643  -2.929  0.00  0.00    +0.148 HD
ENDROOT
BRANCH   5  13
ATOM     13  C   UNL     1      -1.651   0.503  -7.507  0.00  0.00    +0.254 C 
ATOM     14  O   UNL     1      -2.026  -0.654  -7.483  0.00  0.00    -0.269 OA
ATOM     15  N   UNL     1      -1.523   1.146  -8.685  0.00  0.00    -0.295 N 
ATOM     16  C   UNL     1      -1.702   0.405  -9.938  0.00  0.00    +0.112 C 
ATOM     17  C   UNL     1      -2.823   1.061 -10.765  0.00  0.00    +0.052 C 
ATOM     18  C   UNL     1      -2.573   2.548 -10.731  0.00  0.00    -0.036 C 
ATOM     19  C   UNL     1      -2.483   3.446 -11.705  0.00  0.00    -0.001 A 
ATOM     20  C   UNL     1      -2.703   3.341 -13.156  0.00  0.00    +0.010 A 
ATOM     21  C   UNL     1      -2.500   4.476 -13.876  0.00  0.00    +0.001 A 
ATOM     22  C   UNL     1      -2.106   5.690 -13.304  0.00  0.00    +0.002 A 
ATOM     23  C   UNL     1      -1.890   5.878 -11.978  0.00  0.00    +0.026 A 
ATOM     24  C   UNL     1      -2.079   4.759 -11.117  0.00  0.00    +0.043 A 
ATOM     25  N   UNL     1      -1.967   4.663  -9.825  0.00  0.00    -0.376 N 
ATOM     26  C   UNL     1      -2.343   3.305  -9.428  0.00  0.00    +0.124 C 
ATOM     27  C   UNL     1      -1.211   2.584  -8.700  0.00  0.00    +0.137 C 
ATOM     28  H   UNL     1      -1.683   5.371  -9.226  0.00  0.00    +0.160 HD
ENDBRANCH   5  13
BRANCH   1  29
ATOM     29  C   UNL     1      -3.651   1.279  -0.904  0.00  0.00    +0.097 C 
BRANCH  29  31
ATOM     30  C   UNL     1      -3.798   3.772  -0.974  0.00  0.00    +0.006 C 
ATOM     31  C   UNL     1      -4.590   2.480  -0.771  0.00  0.00    +0.021 C 
ENDBRANCH  29  31
BRANCH  29  32
ATOM     32  C   UNL     1      -4.416  -0.005  -0.579  0.00  0.00    +0.181 C 
BRANCH  32  33
ATOM     33  O   UNL     1      -5.575  -0.093  -1.410  0.00  0.00    -0.381 OA
ATOM     34  C   UNL     1      -6.364  -1.263  -1.184  0.00  0.00    +0.194 C 
ENDBRANCH  32  33
ENDBRANCH  29  32
ENDBRANCH   1  29
TORSDOF 5
