REMARK  Name = ZINC39327064
REMARK  11 active torsions:
REMARK  status: ('A' for Active; 'I' for Inactive)
REMARK    1  A    between atoms: C_1  and  C_2
REMARK    2  A    between atoms: C_2  and  O_3
REMARK    3  A    between atoms: O_3  and  C_4
REMARK    4  A    between atoms: C_4  and  C_6
REMARK    5  A    between atoms: C_7  and  C_38
REMARK    6  A    between atoms: C_11  and  N_27
REMARK    7  A    between atoms: C_12  and  C_14
REMARK    8  A    between atoms: N_16  and  C_17
REMARK    9  A    between atoms: C_28  and  C_30
REMARK   10  A    between atoms: C_33  and  O_36
REMARK   11  A    between atoms: O_36  and  C_37
REMARK                            x       y       z     vdW  Elec       q    Type
REMARK                         _______ _______ _______ _____ _____    ______ ____
ROOT
ATOM      1  C   UNL     1      -2.793  -2.429   0.222  0.00  0.00    +0.065 C 
ATOM      2  C   UNL     1      -2.901  -3.728  -0.088  0.00  0.00    +0.016 C 
ATOM      3  N   UNL     1      -4.123  -4.327  -0.282  0.00  0.00    -0.312 N 
ATOM      4  C   UNL     1      -5.235  -3.622   0.111  0.00  0.00    +0.076 A 
ATOM      5  C   UNL     1      -5.251  -2.285   0.446  0.00  0.00    +0.014 A 
ATOM      6  C   UNL     1      -6.471  -1.754   0.826  0.00  0.00    +0.050 A 
ATOM      7  C   UNL     1      -7.595  -2.580   0.845  0.00  0.00    +0.096 A 
ATOM      8  S   UNL     1      -6.913  -4.143   0.312  0.00  0.00    -0.067 S 
ATOM      9  C   UNL     1      -3.953  -1.491   0.379  0.00  0.00    +0.091 C 
ATOM     10  C   UNL     1      -1.649  -4.555  -0.229  0.00  0.00    +0.061 C 
ATOM     11  H   UNL     1      -4.198  -5.208  -0.679  0.00  0.00    +0.152 HD
ENDROOT
BRANCH   9  12
ATOM     12  C   UNL     1      -4.004  -0.554  -0.800  0.00  0.00    -0.035 A 
ATOM     13  C   UNL     1      -4.159  -1.060  -2.077  0.00  0.00    +0.008 A 
ATOM     14  C   UNL     1      -4.205  -0.203  -3.160  0.00  0.00    +0.046 A 
ATOM     15  C   UNL     1      -4.097   1.166  -2.964  0.00  0.00    +0.120 A 
ATOM     16  C   UNL     1      -3.942   1.671  -1.681  0.00  0.00    +0.046 A 
ATOM     17  C   UNL     1      -3.901   0.811  -0.602  0.00  0.00    +0.008 A 
BRANCH  15  18
ATOM     18  O   UNL     1      -4.142   2.011  -4.028  0.00  0.00    -0.495 OA
ATOM     19  C   UNL     1      -4.024   3.408  -3.752  0.00  0.00    +0.277 C 
ENDBRANCH  15  18
ENDBRANCH   9  12
BRANCH   7  20
ATOM     20  C   UNL     1      -8.924  -2.263   1.193  0.00  0.00    +0.253 C 
ATOM     21  O   UNL     1      -9.211  -1.130   1.537  0.00  0.00    -0.270 OA
ATOM     22  N   UNL     1      -9.878  -3.214   1.146  0.00  0.00    -0.305 N 
ATOM     23  H   UNL     1      -9.650  -4.117   0.872  0.00  0.00    +0.150 HD
BRANCH  22  24
ATOM     24  C   UNL     1     -11.259  -2.885   1.508  0.00  0.00    +0.036 C 
ATOM     25  C   UNL     1     -11.303  -2.390   2.955  0.00  0.00    +0.029 C 
ATOM     26  C   UNL     1     -12.745  -2.047   3.333  0.00  0.00    -0.008 C 
ATOM     27  C   UNL     1     -13.619  -3.295   3.195  0.00  0.00    +0.007 C 
ATOM     28  C   UNL     1     -13.576  -3.790   1.748  0.00  0.00    -0.008 C 
ATOM     29  C   UNL     1     -12.133  -4.133   1.370  0.00  0.00    +0.029 C 
ATOM     30  C   UNL     1     -14.100  -2.694   0.818  0.00  0.00    +0.007 C 
ATOM     31  C   UNL     1     -13.225  -1.446   0.956  0.00  0.00    -0.008 C 
ATOM     32  C   UNL     1     -13.269  -0.951   2.403  0.00  0.00    +0.007 C 
ATOM     33  C   UNL     1     -11.783  -1.790   0.578  0.00  0.00    +0.029 C 
ENDBRANCH  22  24
ENDBRANCH   7  20
BRANCH   6  34
ATOM     34  N   UNL     1      -6.576  -0.413   1.185  0.00  0.00    -0.357 N 
ATOM     35  H   UNL     1      -5.790   0.156   1.170  0.00  0.00    +0.142 HD
ATOM     36  H   UNL     1      -7.434  -0.047   1.450  0.00  0.00    +0.142 HD
ENDBRANCH   6  34
BRANCH   1  37
ATOM     37  C   UNL     1      -1.496  -1.907   0.420  0.00  0.00    +0.338 C 
ATOM     38  O   UNL     1      -1.060  -1.772   1.548  0.00  0.00    -0.245 OA
BRANCH  37  39
ATOM     39  O   UNL     1      -0.739  -1.559  -0.642  0.00  0.00    -0.462 OA
BRANCH  39  41
ATOM     40  C   UNL     1       1.266  -0.702  -1.685  0.00  0.00    +0.048 C 
ATOM     41  C   UNL     1       0.563  -1.038  -0.368  0.00  0.00    +0.229 C 
ENDBRANCH  39  41
ENDBRANCH  37  39
ENDBRANCH   1  37
TORSDOF 8
