REMARK  Name = ZINC66959977
REMARK  3 active torsions:
REMARK  status: ('A' for Active; 'I' for Inactive)
REMARK    1  A    between atoms: N_9  and  C_14
REMARK    2  A    between atoms: C_14  and  C_15
REMARK    3  A    between atoms: C_18  and  N_21
REMARK                            x       y       z     vdW  Elec       q    Type
REMARK                         _______ _______ _______ _____ _____    ______ ____
ROOT
ATOM      1  C   UNL     1      -0.017   1.375   0.010  0.00  0.00    +0.001 A 
ATOM      2  C   UNL     1       1.169   2.093   0.002  0.00  0.00    +0.002 A 
ATOM      3  C   UNL     1       2.386   1.442  -0.013  0.00  0.00    +0.026 A 
ATOM      4  C   UNL     1       2.425   0.056  -0.021  0.00  0.00    +0.056 A 
ATOM      5  C   UNL     1       1.223  -0.673  -0.013  0.00  0.00    +0.063 A 
ATOM      6  C   UNL     1       0.002  -0.004   0.002  0.00  0.00    +0.015 A 
ATOM      7  C   UNL     1       1.301  -2.145  -0.021  0.00  0.00    +0.265 A 
ATOM      8  O   UNL     1       0.291  -2.823  -0.016  0.00  0.00    -0.267 OA
ATOM      9  N   UNL     1       2.522  -2.722  -0.036  0.00  0.00    -0.256 N 
ATOM     10  C   UNL     1       3.642  -1.982  -0.043  0.00  0.00    +0.330 A 
ATOM     11  O   UNL     1       4.716  -2.551  -0.056  0.00  0.00    -0.246 OA
ATOM     12  N   UNL     1       3.627  -0.638  -0.036  0.00  0.00    -0.307 N 
ATOM     13  H   UNL     1       4.464  -0.148  -0.041  0.00  0.00    +0.170 HD
ENDROOT
BRANCH   9  14
ATOM     14  C   UNL     1       2.627  -4.183  -0.044  0.00  0.00    +0.165 C 
BRANCH  14  15
ATOM     15  C   UNL     1       2.649  -4.678  -1.467  0.00  0.00    -0.027 A 
ATOM     16  C   UNL     1       1.464  -4.984  -2.110  0.00  0.00    +0.007 A 
ATOM     17  C   UNL     1       1.481  -5.437  -3.414  0.00  0.00    +0.026 A 
ATOM     18  C   UNL     1       2.690  -5.585  -4.080  0.00  0.00    +0.047 A 
ATOM     19  C   UNL     1       3.879  -5.276  -3.433  0.00  0.00    +0.026 A 
ATOM     20  C   UNL     1       3.855  -4.818  -2.130  0.00  0.00    +0.007 A 
BRANCH  18  21
ATOM     21  N   UNL     1       2.711  -6.045  -5.405  0.00  0.00    -0.306 N 
ATOM     22  C   UNL     1       3.823  -6.244  -6.181  0.00  0.00    +0.112 A 
ATOM     23  C   UNL     1       3.390  -6.688  -7.376  0.00  0.00    +0.130 A 
ATOM     24  N   UNL     1       2.052  -6.761  -7.336  0.00  0.00    -0.244 NA
ATOM     25  C   UNL     1       1.633  -6.384  -6.159  0.00  0.00    +0.204 A 
ENDBRANCH  18  21
ENDBRANCH  14  15
ENDBRANCH   9  14
TORSDOF 3
