REMARK  Name = ZINC44713757
REMARK  10 active torsions:
REMARK  status: ('A' for Active; 'I' for Inactive)
REMARK    1  A    between atoms: C_1  and  C_2
REMARK    2  A    between atoms: C_2  and  C_3
REMARK    3  A    between atoms: C_3  and  C_5
REMARK    4  A    between atoms: C_3  and  C_6
REMARK    5  A    between atoms: C_10  and  C_19
REMARK    6  A    between atoms: N_21  and  C_22
REMARK    7  A    between atoms: C_22  and  C_24
REMARK    8  A    between atoms: C_22  and  C_25
REMARK    9  A    between atoms: C_26  and  C_32
REMARK   10  A    between atoms: C_30  and  C_31
REMARK                            x       y       z     vdW  Elec       q    Type
REMARK                         _______ _______ _______ _____ _____    ______ ____
ROOT
ATOM      1  C   UNL     1      -1.575  -2.278   0.304  0.00  0.00    +0.218 C 
ATOM      2  O   UNL     1      -0.582  -2.939   0.519  0.00  0.00    -0.275 OA
ATOM      3  N   UNL     1      -2.764  -2.886   0.124  0.00  0.00    -0.300 N 
ATOM      4  C   UNL     1      -4.055  -2.263  -0.255  0.00  0.00    +0.121 C 
ATOM      5  C   UNL     1      -4.699  -3.267  -1.237  0.00  0.00    +0.100 C 
ATOM      6  C   UNL     1      -4.055  -4.621  -0.894  0.00  0.00    -0.004 C 
ATOM      7  C   UNL     1      -3.075  -4.330   0.253  0.00  0.00    +0.115 C 
ATOM      8  C   UNL     1      -5.121  -5.613  -0.440  0.00  0.00    -0.010 C 
ATOM      9  C   UNL     1      -4.464  -6.968  -0.160  0.00  0.00    -0.082 C 
ATOM     10  N   UNL     1      -3.801  -7.453  -1.376  0.00  0.00    +0.379 N 
ATOM     11  C   UNL     1      -2.715  -6.540  -1.753  0.00  0.00    -0.082 C 
ATOM     12  C   UNL     1      -3.298  -5.167  -2.101  0.00  0.00    -0.010 C 
ATOM     13  H   UNL     1      -3.421  -8.373  -1.207  0.00  0.00    -0.086 HD
ATOM     14  H   UNL     1      -4.473  -7.503  -2.127  0.00  0.00    -0.086 HD
ENDROOT
BRANCH   5  15
ATOM     15  C   UNL     1      -6.190  -3.324  -1.026  0.00  0.00    +0.219 C 
ATOM     16  O   UNL     1      -6.656  -3.099   0.071  0.00  0.00    -0.275 OA
ATOM     17  N   UNL     1      -7.006  -3.625  -2.056  0.00  0.00    -0.308 N 
ATOM     18  H   UNL     1      -6.633  -3.805  -2.933  0.00  0.00    +0.149 HD
BRANCH  17  19
ATOM     19  C   UNL     1      -8.455  -3.681  -1.850  0.00  0.00    +0.104 C 
ATOM     20  C   UNL     1      -9.044  -2.275  -1.986  0.00  0.00    +0.033 C 
BRANCH  19  21
ATOM     21  C   UNL     1      -9.074  -4.587  -2.883  0.00  0.00    +0.015 A 
ATOM     22  C   UNL     1     -10.014  -5.532  -2.652  0.00  0.00    +0.038 A 
ATOM     23  N   UNL     1     -10.304  -6.122  -3.831  0.00  0.00    -0.281 N 
ATOM     24  H   UNL     1     -10.945  -6.836  -3.969  0.00  0.00    +0.189 HD
ATOM     25  N   UNL     1      -9.515  -5.518  -4.819  0.00  0.00    -0.179 NA
ATOM     26  C   UNL     1      -8.784  -4.595  -4.251  0.00  0.00    +0.065 A 
ATOM     27  C   UNL     1      -7.795  -3.697  -4.950  0.00  0.00    +0.068 C 
ATOM     28  C   UNL     1     -10.628  -5.867  -1.317  0.00  0.00    +0.065 C 
ENDBRANCH  19  21
ENDBRANCH  17  19
ENDBRANCH   5  15
BRANCH   1  29
ATOM     29  C   UNL     1      -1.480  -0.775   0.238  0.00  0.00    +0.072 C 
ATOM     30  C   UNL     1      -1.172  -0.346  -1.198  0.00  0.00    +0.017 C 
BRANCH  29  32
ATOM     31  C   UNL     1      -0.345   1.236   1.194  0.00  0.00    +0.004 C 
ATOM     32  C   UNL     1      -0.361  -0.294   1.165  0.00  0.00    +0.009 C 
ENDBRANCH  29  32
ENDBRANCH   1  29
TORSDOF 5
