REMARK  Name = ZINC21117144
REMARK  3 active torsions:
REMARK  status: ('A' for Active; 'I' for Inactive)
REMARK    1  A    between atoms: C_7  and  N_12
REMARK    2  A    between atoms: N_12  and  N_13
REMARK    3  A    between atoms: C_21  and  O_24
REMARK                            x       y       z     vdW  Elec       q    Type
REMARK                         _______ _______ _______ _____ _____    ______ ____
ROOT
ATOM      1  N   UNL     1       3.391  -2.696   0.060  0.00  0.00    -0.250 N 
ATOM      2  C   UNL     1       3.906  -3.981   0.153  0.00  0.00    +0.136 A 
ATOM      3  C   UNL     1       3.024  -5.066   0.255  0.00  0.00    +0.045 A 
ATOM      4  C   UNL     1       3.515  -6.334   0.346  0.00  0.00    +0.015 A 
ATOM      5  C   UNL     1       4.913  -6.511   0.336  0.00  0.00    +0.022 A 
ATOM      6  C   UNL     1       5.484  -7.792   0.427  0.00  0.00    +0.052 A 
ATOM      7  C   UNL     1       6.840  -7.933   0.414  0.00  0.00    +0.044 A 
ATOM      8  C   UNL     1       7.673  -6.822   0.312  0.00  0.00    +0.086 A 
ATOM      9  C   UNL     1       7.149  -5.552   0.221  0.00  0.00    +0.161 A 
ATOM     10  C   UNL     1       5.751  -5.375   0.231  0.00  0.00    +0.117 A 
ATOM     11  N   UNL     1       5.211  -4.154   0.139  0.00  0.00    -0.227 NA
ATOM     12 CL   UNL     1       9.396  -7.040   0.299  0.00  0.00    -0.080 Cl
ATOM     13 CL   UNL     1       4.465  -9.191   0.556  0.00  0.00    -0.083 Cl
ATOM     14  H   UNL     1       2.432  -2.555   0.070  0.00  0.00    +0.171 HD
ENDROOT
BRANCH   1  15
ATOM     15  N   UNL     1       4.258  -1.600  -0.047  0.00  0.00    -0.260 N 
ATOM     16  H   UNL     1       5.212  -1.745  -0.145  0.00  0.00    +0.170 HD
BRANCH  15  23
ATOM     17  C   UNL     1       0.050   1.397   0.646  0.00  0.00    +0.017 A 
ATOM     18  C   UNL     1       1.202   2.117   0.373  0.00  0.00    +0.025 A 
ATOM     19  C   UNL     1       2.408   1.455   0.164  0.00  0.00    +0.043 A 
ATOM     20  N   UNL     1       3.660   1.920  -0.115  0.00  0.00    -0.280 N 
ATOM     21  C   UNL     1       4.522   0.927  -0.237  0.00  0.00    +0.264 C 
ATOM     22  O   UNL     1       5.710   1.032  -0.483  0.00  0.00    -0.268 OA
ATOM     23  C   UNL     1       3.771  -0.358  -0.015  0.00  0.00    +0.116 C 
ATOM     24  C   UNL     1       2.434   0.038   0.235  0.00  0.00    +0.025 A 
ATOM     25  C   UNL     1       1.260  -0.673   0.511  0.00  0.00    +0.027 A 
ATOM     26  C   UNL     1       0.077   0.012   0.715  0.00  0.00    +0.019 A 
ATOM     27 BR   UNL     1      -1.512  -0.943   1.089  0.00  0.00    -0.050 Br
ATOM     28  H   UNL     1       3.887   2.858  -0.212  0.00  0.00    +0.155 HD
ENDBRANCH  15  23
ENDBRANCH   1  15
BRANCH   9  29
ATOM     29  O   UNL     1       7.974  -4.476   0.122  0.00  0.00    -0.503 OA
ATOM     30  H   UNL     1       8.197  -4.234  -0.787  0.00  0.00    +0.292 HD
ENDBRANCH   9  29
TORSDOF 3
