REMARK  Name = ZINC47970578
REMARK  7 active torsions:
REMARK  status: ('A' for Active; 'I' for Inactive)
REMARK    1  A    between atoms: C_1  and  C_2
REMARK    2  A    between atoms: C_2  and  C_3
REMARK    3  A    between atoms: C_2  and  C_4
REMARK    4  A    between atoms: C_4  and  C_6
REMARK    5  A    between atoms: C_4  and  N_22
REMARK    6  A    between atoms: C_6  and  N_7
REMARK    7  A    between atoms: C_8  and  C_10
REMARK                            x       y       z     vdW  Elec       q    Type
REMARK                         _______ _______ _______ _____ _____    ______ ____
ROOT
ATOM      1  N   UNL     1      -3.283  -0.585  -1.470  0.00  0.00    -0.309 N 
ATOM      2  C   UNL     1      -3.924  -0.490  -2.652  0.00  0.00    +0.299 C 
ATOM      3  O   UNL     1      -3.351  -0.028  -3.617  0.00  0.00    -0.265 OA
ATOM      4  H   UNL     1      -3.741  -0.955  -0.699  0.00  0.00    +0.149 HD
ENDROOT
BRANCH   2   5
ATOM      5  C   UNL     1      -5.338  -0.954  -2.774  0.00  0.00    +0.305 C 
ATOM      6  O   UNL     1      -5.911  -1.416  -1.809  0.00  0.00    -0.265 OA
ATOM      7  N   UNL     1      -5.979  -0.859  -3.956  0.00  0.00    -0.257 N 
ATOM      8  C   UNL     1      -7.289  -1.288  -4.070  0.00  0.00    +0.166 A 
ATOM      9  N   UNL     1      -8.069  -1.805  -3.148  0.00  0.00    -0.225 NA
ATOM     10  C   UNL     1      -9.340  -2.184  -3.402  0.00  0.00    +0.080 A 
ATOM     11  C   UNL     1     -10.278  -2.750  -2.507  0.00  0.00    +0.029 A 
ATOM     12  C   UNL     1     -11.538  -3.080  -2.931  0.00  0.00    +0.002 A 
ATOM     13  C   UNL     1     -11.939  -2.875  -4.243  0.00  0.00    +0.001 A 
ATOM     14  C   UNL     1     -11.049  -2.323  -5.145  0.00  0.00    +0.017 A 
ATOM     15  C   UNL     1      -9.784  -1.988  -4.730  0.00  0.00    +0.041 A 
ATOM     16  S   UNL     1      -8.354  -1.273  -5.505  0.00  0.00    -0.052 S 
ATOM     17  H   UNL     1      -5.521  -0.489  -4.728  0.00  0.00    +0.157 HD
ENDBRANCH   2   5
BRANCH   1  18
ATOM     18  C   UNL     1      -1.896  -0.130  -1.350  0.00  0.00    +0.089 C 
BRANCH  18  19
ATOM     19  C   UNL     1      -1.371  -0.457   0.049  0.00  0.00    -0.049 C 
BRANCH  19  20
ATOM     20  N   UNL     1      -2.294   0.084   1.057  0.00  0.00    +0.383 N 
ATOM     21  C   UNL     1      -2.602   1.485   0.712  0.00  0.00    -0.078 C 
ATOM     22  C   UNL     1      -3.935   1.841   1.322  0.00  0.00    -0.019 C 
ATOM     23  C   UNL     1      -3.763   2.547   2.680  0.00  0.00    -0.002 C 
ATOM     24  C   UNL     1      -2.644   1.902   3.522  0.00  0.00    -0.002 C 
ATOM     25  C   UNL     1      -2.662   0.397   3.446  0.00  0.00    -0.019 C 
ATOM     26  C   UNL     1      -1.714  -0.062   2.318  0.00  0.00    -0.078 C 
ATOM     27  H   UNL     1      -3.150  -0.450   1.030  0.00  0.00    -0.081 HD
ENDBRANCH  19  20
BRANCH  19  29
ATOM     28  C   UNL     1      -0.144   1.647   0.607  0.00  0.00    +0.005 C 
ATOM     29  C   UNL     1       0.012   0.171   0.235  0.00  0.00    -0.029 C 
ATOM     30  C   UNL     1       0.758  -0.561   1.353  0.00  0.00    +0.005 C 
ENDBRANCH  19  29
ENDBRANCH  18  19
ENDBRANCH   1  18
TORSDOF 5
