REMARK  Name = ZINC44743197
REMARK  4 active torsions:
REMARK  status: ('A' for Active; 'I' for Inactive)
REMARK    1  A    between atoms: C_1  and  C_2
REMARK    2  A    between atoms: C_6  and  C_7
REMARK    3  A    between atoms: C_18  and  C_20
REMARK    4  A    between atoms: C_18  and  C_21
REMARK                            x       y       z     vdW  Elec       q    Type
REMARK                         _______ _______ _______ _____ _____    ______ ____
ROOT
ATOM      1  C   UNL     1       0.031  -0.395   2.490  0.00  0.00    +0.285 C 
ATOM      2  O   UNL     1       0.016   0.792   2.760  0.00  0.00    -0.266 OA
ATOM      3  N   UNL     1       0.053  -1.310   3.480  0.00  0.00    -0.258 N 
ATOM      4  C   UNL     1       0.059  -0.901   4.799  0.00  0.00    +0.166 A 
ATOM      5  N   UNL     1       0.086  -1.652   5.888  0.00  0.00    -0.229 NA
ATOM      6  C   UNL     1       0.090  -1.135   7.093  0.00  0.00    +0.062 A 
ATOM      7  C   UNL     1       0.066   0.265   7.120  0.00  0.00    +0.079 A 
ATOM      8  S   UNL     1       0.043   0.674   5.401  0.00  0.00    -0.049 S 
ATOM      9  C   UNL     1       0.071   1.050   8.268  0.00  0.00    +0.172 C 
ATOM     10  O   UNL     1       0.027   2.262   8.207  0.00  0.00    -0.291 OA
ATOM     11  C   UNL     1       0.135   0.325   9.600  0.00  0.00    +0.087 C 
ATOM     12  C   UNL     1      -0.561  -1.030   9.475  0.00  0.00    -0.022 C 
ATOM     13  C   UNL     1       0.113  -1.899   8.409  0.00  0.00    +0.063 C 
ATOM     14  C   UNL     1      -2.026  -0.810   9.091  0.00  0.00    +0.011 C 
ATOM     15  C   UNL     1      -0.500  -1.752  10.822  0.00  0.00    +0.011 C 
ATOM     16  H   UNL     1       0.065  -2.256   3.265  0.00  0.00    +0.157 HD
ENDROOT
BRANCH   1  22
ATOM     17  C   UNL     1      -0.018   1.503   0.010  0.00  0.00    +0.048 C 
ATOM     18  C   UNL     1       0.002  -0.004   0.002  0.00  0.00    +0.011 A 
ATOM     19  C   UNL     1       0.009  -0.840  -1.125  0.00  0.00    +0.062 A 
ATOM     20  C   UNL     1       0.027  -2.151  -0.662  0.00  0.00    +0.117 A 
ATOM     21  O   UNL     1       0.036  -2.114   0.664  0.00  0.00    -0.454 OA
ATOM     22  C   UNL     1       0.024  -0.830   1.089  0.00  0.00    +0.193 A 
ATOM     23  C   UNL     1       0.032  -3.344  -1.585  0.00  0.00    +0.075 C 
ATOM     24  C   UNL     1      -0.489  -2.920  -2.961  0.00  0.00    +0.016 C 
ATOM     25  C   UNL     1       0.284  -1.704  -3.482  0.00  0.00    +0.080 C 
ATOM     26  C   UNL     1       0.001  -0.525  -2.561  0.00  0.00    +0.167 C 
ATOM     27  O   UNL     1      -0.214   0.592  -2.982  0.00  0.00    -0.292 OA
ENDBRANCH   1  22
TORSDOF 1
