REMARK  Name = ZINC53169357
REMARK  4 active torsions:
REMARK  status: ('A' for Active; 'I' for Inactive)
REMARK    1  A    between atoms: C_1  and  C_2
REMARK    2  A    between atoms: C_2  and  C_4
REMARK    3  A    between atoms: C_2  and  N_10
REMARK    4  A    between atoms: N_8  and  C_9
REMARK                            x       y       z     vdW  Elec       q    Type
REMARK                         _______ _______ _______ _____ _____    ______ ____
ROOT
ATOM      1  N   UNL     1      -1.372  -0.511   0.012  0.00  0.00    -0.307 N 
ATOM      2  C   UNL     1      -1.950  -1.323  -0.962  0.00  0.00    +0.106 A 
ATOM      3  C   UNL     1      -3.264  -1.567  -0.558  0.00  0.00    +0.068 A 
ATOM      4  C   UNL     1      -4.093  -2.355  -1.341  0.00  0.00    +0.031 A 
ATOM      5  C   UNL     1      -3.617  -2.897  -2.519  0.00  0.00    +0.043 A 
ATOM      6  C   UNL     1      -2.313  -2.657  -2.923  0.00  0.00    +0.161 A 
ATOM      7  C   UNL     1      -1.478  -1.871  -2.147  0.00  0.00    +0.184 A 
ATOM      8  F   UNL     1      -0.207  -1.638  -2.542  0.00  0.00    -0.200 F 
ATOM      9  F   UNL     1      -1.856  -3.191  -4.076  0.00  0.00    -0.202 F 
ATOM     10  N   UNL     1      -3.444  -0.895   0.650  0.00  0.00    -0.334 N 
ATOM     11  C   UNL     1      -2.291  -0.277   0.968  0.00  0.00    +0.159 A 
ATOM     12  S   UNL     1      -2.034   0.666   2.373  0.00  0.00    -0.013 S 
ATOM     13  H   UNL     1      -4.260  -0.879   1.174  0.00  0.00    +0.168 HD
ENDROOT
BRANCH   1  15
ATOM     14  C   UNL     1      -0.019   1.526   0.010  0.00  0.00    +0.039 C 
ATOM     15  C   UNL     1       0.002  -0.004   0.002  0.00  0.00    +0.154 C 
BRANCH  15  16
ATOM     16  C   UNL     1       0.731  -0.503   1.223  0.00  0.00    +0.156 A 
ATOM     17  N   UNL     1       0.271  -0.523   2.444  0.00  0.00    -0.132 NA
ATOM     18  N   UNL     1       1.159  -1.015   3.233  0.00  0.00    -0.138 NA
ATOM     19  C   UNL     1       2.226  -1.331   2.551  0.00  0.00    +0.224 A 
ATOM     20  N   UNL     1       1.983  -1.020   1.255  0.00  0.00    -0.319 N 
ATOM     21  C   UNL     1       2.890  -1.204   0.120  0.00  0.00    +0.151 C 
ENDBRANCH  15  16
ENDBRANCH   1  15
TORSDOF 2
