REMARK  Name = ZINC35004323
REMARK  13 active torsions:
REMARK  status: ('A' for Active; 'I' for Inactive)
REMARK    1  A    between atoms: C_1  and  C_2
REMARK    2  A    between atoms: C_2  and  C_3
REMARK    3  A    between atoms: C_2  and  C_4
REMARK    4  A    between atoms: C_2  and  N_5
REMARK    5  A    between atoms: N_11  and  C_14
REMARK    6  A    between atoms: C_14  and  C_15
REMARK    7  A    between atoms: C_15  and  N_16
REMARK    8  A    between atoms: N_16  and  C_17
REMARK    9  A    between atoms: C_17  and  C_18
REMARK   10  A    between atoms: C_19  and  C_20
REMARK   11  A    between atoms: C_25  and  O_26
REMARK   12  A    between atoms: O_26  and  C_27
REMARK   13  A    between atoms: C_28  and  C_30
REMARK                            x       y       z     vdW  Elec       q    Type
REMARK                         _______ _______ _______ _____ _____    ______ ____
ROOT
ATOM      1  N   UNL     1       6.369  -3.651  -5.774  0.00  0.00    -0.296 N 
ATOM      2  C   UNL     1       7.085  -4.127  -4.737  0.00  0.00    +0.247 C 
ATOM      3  O   UNL     1       7.269  -3.433  -3.756  0.00  0.00    -0.270 OA
ENDROOT
BRANCH   2   4
ATOM      4  C   UNL     1       7.646  -5.492  -4.791  0.00  0.00    +0.037 A 
ATOM      5  C   UNL     1       7.982  -6.063  -6.020  0.00  0.00    +0.016 A 
ATOM      6  C   UNL     1       8.505  -7.338  -6.065  0.00  0.00    +0.039 A 
ATOM      7  C   UNL     1       8.697  -8.053  -4.893  0.00  0.00    +0.123 A 
ATOM      8  C   UNL     1       8.365  -7.491  -3.670  0.00  0.00    +0.039 A 
ATOM      9  C   UNL     1       7.847  -6.215  -3.613  0.00  0.00    +0.016 A 
ATOM     10  F   UNL     1       9.210  -9.302  -4.943  0.00  0.00    -0.205 F 
ENDBRANCH   2   4
BRANCH   1  11
ATOM     11  C   UNL     1       5.896  -2.264  -5.763  0.00  0.00    +0.090 C 
BRANCH  11  12
ATOM     12  C   UNL     1       4.568  -2.185  -5.007  0.00  0.00    -0.059 C 
BRANCH  12  19
ATOM     13  N   UNL     1       3.825   3.268  -2.169  0.00  0.00    -0.295 N 
ATOM     14  C   UNL     1       2.918   2.426  -2.703  0.00  0.00    +0.302 C 
ATOM     15  O   UNL     1       1.769   2.438  -2.306  0.00  0.00    -0.253 OA
ATOM     16  N   UNL     1       3.286   1.569  -3.676  0.00  0.00    -0.289 N 
ATOM     17  C   UNL     1       2.291   0.726  -4.357  0.00  0.00    +0.091 C 
ATOM     18  C   UNL     1       2.789  -0.723  -4.340  0.00  0.00    -0.059 C 
ATOM     19  N   UNL     1       4.135  -0.784  -4.923  0.00  0.00    +0.383 N 
ATOM     20  C   UNL     1       5.078  -0.032  -4.084  0.00  0.00    -0.059 C 
ATOM     21  C   UNL     1       4.692   1.455  -4.092  0.00  0.00    +0.091 C 
ATOM     22  H   UNL     1       4.756   3.209  -2.433  0.00  0.00    +0.151 HD
ATOM     23  H   UNL     1       4.118  -0.383  -5.849  0.00  0.00    -0.082 HD
BRANCH  13  25
ATOM     24  C   UNL     1       2.788   3.574   0.025  0.00  0.00    +0.031 C 
ATOM     25  C   UNL     1       3.403   4.272  -1.189  0.00  0.00    +0.028 C 
ATOM     26  C   UNL     1       2.365   5.200  -1.824  0.00  0.00    +0.031 C 
ATOM     27  C   UNL     1       4.616   5.092  -0.745  0.00  0.00    +0.031 C 
ENDBRANCH  13  25
ENDBRANCH  12  19
ENDBRANCH  11  12
ENDBRANCH   1  11
BRANCH   1  28
ATOM     28  C   UNL     1       6.064  -4.519  -6.914  0.00  0.00    +0.135 C 
BRANCH  28  29
ATOM     29  C   UNL     1       6.881  -4.090  -8.105  0.00  0.00    -0.007 C 
ATOM     30  C   UNL     1       7.289  -4.991  -8.989  0.00  0.00    +0.009 C 
BRANCH  30  31
ATOM     31  C   UNL     1       8.165  -4.585 -10.107  0.00  0.00    +0.016 A 
ATOM     32  C   UNL     1       8.571  -3.256 -10.233  0.00  0.00    +0.011 A 
ATOM     33  C   UNL     1       9.389  -2.883 -11.279  0.00  0.00    +0.001 A 
ATOM     34  C   UNL     1       9.810  -3.823 -12.205  0.00  0.00    +0.004 A 
ATOM     35  C   UNL     1       9.415  -5.142 -12.090  0.00  0.00    +0.046 A 
ATOM     36  C   UNL     1       8.597  -5.533 -11.042  0.00  0.00    +0.127 A 
BRANCH  36  37
ATOM     37  O   UNL     1       8.212  -6.830 -10.926  0.00  0.00    -0.495 OA
ATOM     38  C   UNL     1       8.692  -7.741 -11.917  0.00  0.00    +0.277 C 
ENDBRANCH  36  37
ENDBRANCH  30  31
ENDBRANCH  28  29
ENDBRANCH   1  28
TORSDOF 9
