REMARK  Name = ZINC44458167
REMARK  3 active torsions:
REMARK  status: ('A' for Active; 'I' for Inactive)
REMARK    1  A    between atoms: C_1  and  C_2
REMARK    2  A    between atoms: C_9  and  C_11
REMARK    3  A    between atoms: N_20  and  C_21
REMARK                            x       y       z     vdW  Elec       q    Type
REMARK                         _______ _______ _______ _____ _____    ______ ____
ROOT
ATOM      1  C   UNL     1       2.411  -0.155   2.984  0.00  0.00    +0.093 C 
ATOM      2  C   UNL     1       2.979   1.019   3.785  0.00  0.00    +0.016 C 
ATOM      3  C   UNL     1       3.878   0.488   4.904  0.00  0.00    +0.020 C 
ATOM      4  C   UNL     1       5.047  -0.288   4.288  0.00  0.00    +0.109 C 
ATOM      5  N   UNL     1       4.509  -1.329   3.401  0.00  0.00    -0.285 N 
ATOM      6  C   UNL     1       3.563  -0.939   2.347  0.00  0.00    +0.122 C 
ATOM      7  C   UNL     1       4.877  -2.616   3.551  0.00  0.00    +0.302 C 
ATOM      8  O   UNL     1       4.358  -3.480   2.870  0.00  0.00    -0.253 OA
ATOM      9  N   UNL     1       5.820  -2.947   4.455  0.00  0.00    -0.296 N 
ATOM     10  H   UNL     1       6.183  -2.270   5.048  0.00  0.00    +0.151 HD
ENDROOT
BRANCH   1  18
ATOM     11  C   UNL     1      -0.015   1.522   0.007  0.00  0.00    +0.028 C 
ATOM     12  C   UNL     1      -0.070  -0.006   0.063  0.00  0.00    +0.073 C 
ATOM     13  C   UNL     1      -1.519  -0.461   0.268  0.00  0.00    +0.022 C 
ATOM     14  C   UNL     1      -1.551  -1.978   0.463  0.00  0.00    +0.003 C 
ATOM     15  C   UNL     1      -0.747  -2.351   1.710  0.00  0.00    +0.019 C 
ATOM     16  C   UNL     1       0.710  -1.918   1.522  0.00  0.00    +0.108 C 
ATOM     17  N   UNL     1       0.742  -0.487   1.189  0.00  0.00    -0.298 N 
ATOM     18  C   UNL     1       1.500   0.368   1.904  0.00  0.00    +0.220 C 
ATOM     19  O   UNL     1       1.448   1.558   1.677  0.00  0.00    -0.275 OA
ENDBRANCH   1  18
BRANCH   9  20
ATOM     20  C   UNL     1       6.299  -4.329   4.542  0.00  0.00    +0.075 C 
ATOM     21  C   UNL     1       6.470  -4.930   5.939  0.00  0.00    +0.024 C 
ATOM     22  C   UNL     1       7.701  -4.557   5.111  0.00  0.00    +0.024 C 
ENDBRANCH   9  20
TORSDOF 2
