REMARK  Name = ZINC19851599
REMARK  5 active torsions:
REMARK  status: ('A' for Active; 'I' for Inactive)
REMARK    1  A    between atoms: C_3  and  O_26
REMARK    2  A    between atoms: C_4  and  N_23
REMARK    3  A    between atoms: C_6  and  C_7
REMARK    4  A    between atoms: N_8  and  C_9
REMARK    5  A    between atoms: C_11  and  C_20
REMARK                            x       y       z     vdW  Elec       q    Type
REMARK                         _______ _______ _______ _____ _____    ______ ____
ROOT
ATOM      1  C   UNL     1      -1.576   3.898  -1.041  0.00  0.00    +0.087 C 
ATOM      2  N   UNL     1      -2.548   3.974  -1.891  0.00  0.00    -0.377 N 
ATOM      3  H   UNL     1      -2.691   4.790  -2.395  0.00  0.00    +0.160 HD
ENDROOT
BRANCH   2   4
ATOM      4  C   UNL     1      -3.435   2.825  -2.094  0.00  0.00    +0.157 C 
ATOM      5  C   UNL     1      -3.445   1.891  -0.860  0.00  0.00    +0.134 C 
ATOM      6  C   UNL     1      -3.510   0.439  -1.263  0.00  0.00    -0.046 C 
ATOM      7  C   UNL     1      -3.170   0.130  -2.508  0.00  0.00    -0.012 C 
ATOM      8  S   UNL     1      -2.745   1.648  -3.332  0.00  0.00    -0.104 S 
ATOM      9  C   UNL     1      -3.145  -1.240  -3.125  0.00  0.00    +0.042 C 
ATOM     10  C   UNL     1      -3.221  -2.287  -2.007  0.00  0.00    +0.005 C 
ATOM     11  C   UNL     1      -4.351  -1.895  -1.051  0.00  0.00    +0.005 C 
ATOM     12  C   UNL     1      -3.950  -0.641  -0.276  0.00  0.00    +0.032 C 
BRANCH   5  13
ATOM     13  C   UNL     1      -4.643   2.217  -0.006  0.00  0.00    +0.220 C 
ATOM     14  O   UNL     1      -4.498   2.466   1.172  0.00  0.00    -0.275 OA
ATOM     15  N   UNL     1      -5.876   2.230  -0.551  0.00  0.00    -0.329 N 
ATOM     16  H   UNL     1      -5.992   2.031  -1.493  0.00  0.00    +0.145 HD
ATOM     17  H   UNL     1      -6.647   2.440  -0.002  0.00  0.00    +0.145 HD
ENDBRANCH   5  13
ENDBRANCH   2   4
BRANCH   1  23
ATOM     18  C   UNL     1      -0.935   1.527  -1.439  0.00  0.00    +0.013 A 
ATOM     19  C   UNL     1       0.024   0.547  -1.570  0.00  0.00    +0.048 A 
ATOM     20  C   UNL     1       1.370   0.868  -1.447  0.00  0.00    +0.147 A 
ATOM     21  C   UNL     1       1.755   2.179  -1.192  0.00  0.00    +0.168 A 
ATOM     22  C   UNL     1       0.802   3.165  -1.060  0.00  0.00    +0.045 A 
ATOM     23  C   UNL     1      -0.553   2.846  -1.182  0.00  0.00    -0.007 A 
BRANCH  21  24
ATOM     24  N   UNL     1       3.190   2.515  -1.062  0.00  0.00    +0.060 N 
ATOM     25  O   UNL     1       3.526   3.655  -0.840  0.00  0.00    -0.126 OA
ATOM     26  O   UNL     1       4.027   1.650  -1.177  0.00  0.00    -0.126 OA
ENDBRANCH  21  24
BRANCH  20  27
ATOM     27  O   UNL     1       2.312  -0.101  -1.577  0.00  0.00    -0.504 OA
ATOM     28  H   UNL     1       2.626  -0.225  -2.482  0.00  0.00    +0.292 HD
ENDBRANCH  20  27
ENDBRANCH   1  23
TORSDOF 5
