REMARK  Name = ZINC39663723
REMARK  12 active torsions:
REMARK  status: ('A' for Active; 'I' for Inactive)
REMARK    1  A    between atoms: C_1  and  C_2
REMARK    2  A    between atoms: C_2  and  C_3
REMARK    3  A    between atoms: C_6  and  C_9
REMARK    4  A    between atoms: C_13  and  C_22
REMARK    5  A    between atoms: N_24  and  C_25
REMARK    6  A    between atoms: C_25  and  C_26
REMARK    7  A    between atoms: C_26  and  C_28
REMARK    8  A    between atoms: C_26  and  N_36
REMARK    9  A    between atoms: C_31  and  O_34
REMARK   10  A    between atoms: O_34  and  C_35
REMARK   11  A    between atoms: N_36  and  C_37
REMARK   12  A    between atoms: N_36  and  C_38
REMARK                            x       y       z     vdW  Elec       q    Type
REMARK                         _______ _______ _______ _____ _____    ______ ____
ROOT
ATOM      1  C   UNL     1      -5.549  -2.319   0.130  0.00  0.00    +0.247 C 
ATOM      2  O   UNL     1      -6.138  -2.604   1.154  0.00  0.00    -0.270 OA
ATOM      3  N   UNL     1      -6.190  -2.376  -1.054  0.00  0.00    -0.296 N 
ATOM      4  C   UNL     1      -5.615  -2.191  -2.408  0.00  0.00    +0.121 C 
ATOM      5  C   UNL     1      -6.330  -3.245  -3.283  0.00  0.00    +0.100 C 
ATOM      6  C   UNL     1      -7.651  -3.533  -2.550  0.00  0.00    -0.004 C 
ATOM      7  C   UNL     1      -7.628  -2.645  -1.298  0.00  0.00    +0.115 C 
ATOM      8  C   UNL     1      -7.722  -5.003  -2.146  0.00  0.00    -0.010 C 
ATOM      9  C   UNL     1      -9.068  -5.277  -1.470  0.00  0.00    -0.082 C 
ATOM     10  N   UNL     1     -10.158  -4.951  -2.397  0.00  0.00    +0.379 N 
ATOM     11  C   UNL     1     -10.139  -3.517  -2.708  0.00  0.00    -0.082 C 
ATOM     12  C   UNL     1      -8.838  -3.168  -3.436  0.00  0.00    -0.010 C 
ATOM     13  H   UNL     1     -10.044  -5.480  -3.248  0.00  0.00    -0.086 HD
ATOM     14  H   UNL     1     -11.042  -5.190  -1.972  0.00  0.00    -0.086 HD
ENDROOT
BRANCH   1  18
ATOM     15  C   UNL     1      -1.470  -1.144   0.283  0.00  0.00    -0.048 A 
ATOM     16  C   UNL     1      -2.018  -1.867   1.327  0.00  0.00    +0.004 A 
ATOM     17  C   UNL     1      -3.342  -2.252   1.284  0.00  0.00    +0.013 A 
ATOM     18  C   UNL     1      -4.130  -1.910   0.183  0.00  0.00    +0.037 A 
ATOM     19  C   UNL     1      -3.571  -1.180  -0.867  0.00  0.00    +0.013 A 
ATOM     20  C   UNL     1      -2.247  -0.797  -0.809  0.00  0.00    +0.004 A 
BRANCH  15  22
ATOM     21  C   UNL     1       0.089   0.640   1.014  0.00  0.00    +0.009 C 
ATOM     22  C   UNL     1      -0.023  -0.727   0.337  0.00  0.00    +0.032 C 
ENDBRANCH  15  22
ENDBRANCH   1  18
BRANCH   5  23
ATOM     23  C   UNL     1      -6.600  -2.690  -4.658  0.00  0.00    +0.218 C 
ATOM     24  O   UNL     1      -6.711  -1.493  -4.817  0.00  0.00    -0.275 OA
ATOM     25  N   UNL     1      -6.720  -3.524  -5.710  0.00  0.00    -0.316 N 
ATOM     26  H   UNL     1      -6.631  -4.481  -5.582  0.00  0.00    +0.149 HD
BRANCH  25  27
ATOM     27  C   UNL     1      -6.982  -2.984  -7.046  0.00  0.00    +0.093 C 
BRANCH  27  28
ATOM     28  C   UNL     1      -6.953  -4.120  -8.070  0.00  0.00    -0.021 C 
BRANCH  28  29
ATOM     29  C   UNL     1      -8.090  -5.071  -7.798  0.00  0.00    -0.059 A 
ATOM     30  C   UNL     1      -9.366  -4.764  -8.234  0.00  0.00    +0.005 A 
ATOM     31  C   UNL     1     -10.410  -5.634  -7.986  0.00  0.00    +0.046 A 
ATOM     32  C   UNL     1     -10.178  -6.816  -7.299  0.00  0.00    +0.120 A 
ATOM     33  C   UNL     1      -8.897  -7.122  -6.862  0.00  0.00    +0.046 A 
ATOM     34  C   UNL     1      -7.855  -6.252  -7.118  0.00  0.00    +0.005 A 
BRANCH  32  35
ATOM     35  O   UNL     1     -11.204  -7.673  -7.053  0.00  0.00    -0.495 OA
ATOM     36  C   UNL     1     -10.891  -8.871  -6.340  0.00  0.00    +0.277 C 
ENDBRANCH  32  35
ENDBRANCH  28  29
BRANCH  28  37
ATOM     37  N   UNL     1      -7.092  -3.565  -9.423  0.00  0.00    +0.382 N 
ATOM     38  C   UNL     1      -5.933  -2.714  -9.724  0.00  0.00    -0.096 C 
ATOM     39  C   UNL     1      -7.161  -4.661 -10.398  0.00  0.00    -0.096 C 
ATOM     40  H   UNL     1      -7.936  -3.014  -9.475  0.00  0.00    -0.082 HD
ENDBRANCH  28  37
ENDBRANCH  27  28
ENDBRANCH  25  27
ENDBRANCH   5  23
TORSDOF 8
