REMARK  Name = ZINC39467712
REMARK  6 active torsions:
REMARK  status: ('A' for Active; 'I' for Inactive)
REMARK    1  A    between atoms: C_5  and  C_7
REMARK    2  A    between atoms: C_7  and  N_8
REMARK    3  A    between atoms: C_21  and  N_25
REMARK    4  A    between atoms: N_25  and  C_26
REMARK    5  A    between atoms: C_26  and  C_27
REMARK    6  A    between atoms: C_27  and  C_28
REMARK                            x       y       z     vdW  Elec       q    Type
REMARK                         _______ _______ _______ _____ _____    ______ ____
ROOT
ATOM      1  N   UNL     1       1.488  -2.679   1.333  0.00  0.00    -0.257 N 
ATOM      2  C   UNL     1       2.784  -2.891   1.760  0.00  0.00    +0.186 C 
ATOM      3  N   UNL     1       3.089  -3.820   2.628  0.00  0.00    -0.261 NA
ATOM      4  C   UNL     1       1.970  -4.602   3.127  0.00  0.00    +0.184 C 
ATOM      5  C   UNL     1       0.875  -3.542   3.473  0.00  0.00    +0.137 C 
ATOM      6  C   UNL     1       0.444  -2.929   2.190  0.00  0.00    +0.231 C 
ATOM      7  O   UNL     1      -0.712  -2.677   1.925  0.00  0.00    -0.274 OA
ATOM      8  C   UNL     1      -0.092  -4.092   4.450  0.00  0.00    -0.046 C 
ATOM      9  C   UNL     1       0.422  -4.993   5.306  0.00  0.00    -0.014 C 
ATOM     10  S   UNL     1       2.168  -5.233   4.838  0.00  0.00    -0.102 S 
ATOM     11  C   UNL     1      -0.293  -5.676   6.429  0.00  0.00    +0.026 C 
ATOM     12  C   UNL     1      -1.624  -4.955   6.681  0.00  0.00    -0.067 C 
ATOM     13  C   UNL     1      -2.324  -4.744   5.335  0.00  0.00    -0.011 C 
ATOM     14  C   UNL     1      -1.561  -3.698   4.522  0.00  0.00    +0.031 C 
ENDROOT
BRANCH  12  15
ATOM     15  N   UNL     1      -2.471  -5.774   7.559  0.00  0.00    +0.381 N 
ATOM     16  H   UNL     1      -3.375  -5.338   7.657  0.00  0.00    -0.086 HD
ATOM     17  H   UNL     1      -2.582  -6.693   7.158  0.00  0.00    -0.086 HD
BRANCH  15  18
ATOM     18  C   UNL     1      -1.838  -5.891   8.880  0.00  0.00    -0.077 C 
BRANCH  18  19
ATOM     19  C   UNL     1      -2.720  -6.744   9.794  0.00  0.00    +0.018 C 
BRANCH  19  20
ATOM     20  C   UNL     1      -2.070  -6.864  11.149  0.00  0.00    -0.024 A 
ATOM     21  C   UNL     1      -2.181  -5.910  12.256  0.00  0.00    +0.003 A 
ATOM     22  C   UNL     1      -2.849  -4.696  12.428  0.00  0.00    +0.010 A 
ATOM     23  C   UNL     1      -2.750  -4.030  13.617  0.00  0.00    +0.001 A 
ATOM     24  C   UNL     1      -1.990  -4.550  14.655  0.00  0.00    +0.002 A 
ATOM     25  C   UNL     1      -1.323  -5.747  14.507  0.00  0.00    +0.026 A 
ATOM     26  C   UNL     1      -1.410  -6.442  13.306  0.00  0.00    +0.047 A 
ATOM     27  N   UNL     1      -0.877  -7.630  12.857  0.00  0.00    -0.360 N 
ATOM     28  C   UNL     1      -1.286  -7.867  11.573  0.00  0.00    +0.087 A 
ATOM     29  H   UNL     1      -0.301  -8.213  13.375  0.00  0.00    +0.165 HD
ENDBRANCH  19  20
ENDBRANCH  18  19
ENDBRANCH  15  18
ENDBRANCH  12  15
BRANCH   1  30
ATOM     30  C   UNL     1       1.228  -2.186  -0.022  0.00  0.00    +0.152 C 
BRANCH  30  35
ATOM     31  C   UNL     1      -0.017   1.378   0.010  0.00  0.00    +0.000 A 
ATOM     32  C   UNL     1       1.171   2.087   0.002  0.00  0.00    +0.003 A 
ATOM     33  C   UNL     1       2.377   1.414  -0.013  0.00  0.00    +0.038 A 
ATOM     34  C   UNL     1       2.397   0.029  -0.021  0.00  0.00    +0.128 A 
ATOM     35  C   UNL     1       1.208  -0.679  -0.013  0.00  0.00    +0.005 A 
ATOM     36  C   UNL     1       0.002  -0.004   0.002  0.00  0.00    +0.008 A 
ATOM     37  F   UNL     1       3.577  -0.630  -0.036  0.00  0.00    -0.205 F 
ENDBRANCH  30  35
ENDBRANCH   1  30
TORSDOF 6
