REMARK  Name = ZINC63572451
REMARK  3 active torsions:
REMARK  status: ('A' for Active; 'I' for Inactive)
REMARK    1  A    between atoms: C_1  and  C_2
REMARK    2  A    between atoms: C_7  and  N_8
REMARK    3  A    between atoms: C_24  and  C_26
REMARK                            x       y       z     vdW  Elec       q    Type
REMARK                         _______ _______ _______ _____ _____    ______ ____
ROOT
ATOM      1  N   UNL     1       0.215  -0.434   2.367  0.00  0.00    -0.269 N 
ATOM      2  C   UNL     1       0.044  -0.972   3.591  0.00  0.00    +0.307 C 
ATOM      3  O   UNL     1      -0.029  -2.179   3.719  0.00  0.00    -0.252 OA
ATOM      4  N   UNL     1      -0.046  -0.173   4.672  0.00  0.00    -0.276 N 
ATOM      5  C   UNL     1      -0.062   1.283   4.498  0.00  0.00    +0.114 C 
ATOM      6  C   UNL     1      -1.346   1.860   5.123  0.00  0.00    +0.052 C 
ATOM      7  C   UNL     1      -1.503   1.203   6.472  0.00  0.00    -0.035 C 
ATOM      8  C   UNL     1      -1.691   1.716   7.681  0.00  0.00    +0.001 A 
ATOM      9  C   UNL     1      -1.923   3.096   8.135  0.00  0.00    +0.030 A 
ATOM     10  C   UNL     1      -2.058   3.272   9.477  0.00  0.00    +0.042 A 
ATOM     11  C   UNL     1      -1.985   2.224  10.401  0.00  0.00    +0.022 A 
ATOM     12  C   UNL     1      -1.783   0.924  10.072  0.00  0.00    +0.027 A 
ATOM     13  C   UNL     1      -1.636   0.613   8.689  0.00  0.00    +0.043 A 
ATOM     14  N   UNL     1      -1.458  -0.533   8.099  0.00  0.00    -0.375 N 
ATOM     15  C   UNL     1      -1.441  -0.309   6.653  0.00  0.00    +0.131 C 
ATOM     16  C   UNL     1      -0.133  -0.771   6.014  0.00  0.00    +0.134 C 
ATOM     17 CL   UNL     1      -2.334   4.879  10.073  0.00  0.00    -0.084 Cl
ATOM     18  H   UNL     1       0.309   0.527   2.268  0.00  0.00    +0.156 HD
ATOM     19  H   UNL     1      -1.354  -1.389   8.542  0.00  0.00    +0.160 HD
ENDROOT
BRANCH   1  26
ATOM     20  C   UNL     1      -0.519   0.683  -0.145  0.00  0.00    +0.045 C 
ATOM     21  C   UNL     1      -0.093  -0.755  -0.007  0.00  0.00    -0.029 A 
ATOM     22  C   UNL     1      -0.045  -1.572  -1.120  0.00  0.00    +0.005 A 
ATOM     23  C   UNL     1       0.345  -2.893  -0.994  0.00  0.00    +0.000 A 
ATOM     24  C   UNL     1       0.689  -3.400   0.246  0.00  0.00    +0.002 A 
ATOM     25  C   UNL     1       0.643  -2.588   1.363  0.00  0.00    +0.023 A 
ATOM     26  C   UNL     1       0.257  -1.260   1.238  0.00  0.00    +0.038 A 
ENDBRANCH   1  26
BRANCH  16  27
ATOM     27  C   UNL     1       1.031  -0.312   6.854  0.00  0.00    -0.025 A 
ATOM     28  C   UNL     1       1.955  -1.231   7.314  0.00  0.00    +0.008 A 
ATOM     29  C   UNL     1       3.023  -0.811   8.084  0.00  0.00    +0.038 A 
ATOM     30  C   UNL     1       3.167   0.531   8.395  0.00  0.00    +0.123 A 
ATOM     31  C   UNL     1       2.240   1.450   7.933  0.00  0.00    +0.038 A 
ATOM     32  C   UNL     1       1.176   1.029   7.159  0.00  0.00    +0.008 A 
ATOM     33  F   UNL     1       4.210   0.942   9.148  0.00  0.00    -0.205 F 
ENDBRANCH  16  27
TORSDOF 2
