REMARK  Name = ZINC32736565
REMARK  5 active torsions:
REMARK  status: ('A' for Active; 'I' for Inactive)
REMARK    1  A    between atoms: C_1  and  C_2
REMARK    2  A    between atoms: C_5  and  S_10
REMARK    3  A    between atoms: S_10  and  C_11
REMARK    4  A    between atoms: C_19  and  N_21
REMARK    5  A    between atoms: N_21  and  C_22
REMARK                            x       y       z     vdW  Elec       q    Type
REMARK                         _______ _______ _______ _____ _____    ______ ____
ROOT
ATOM      1  C   UNL     1       2.228   5.206   0.007  0.00  0.00    +0.191 A 
ATOM      2  N   UNL     1       2.278   3.887   0.000  0.00  0.00    -0.222 NA
ATOM      3  C   UNL     1       1.148   3.165   0.008  0.00  0.00    +0.077 A 
ATOM      4  C   UNL     1       1.165   1.763   0.000  0.00  0.00    +0.028 A 
ATOM      5  C   UNL     1      -0.013   1.076   0.008  0.00  0.00    +0.002 A 
ATOM      6  C   UNL     1      -1.233   1.744   0.017  0.00  0.00    +0.001 A 
ATOM      7  C   UNL     1      -1.285   3.108   0.030  0.00  0.00    +0.013 A 
ATOM      8  C   UNL     1      -0.095   3.843   0.023  0.00  0.00    +0.040 A 
ATOM      9  C   UNL     1      -0.087   5.260   0.029  0.00  0.00    +0.131 A 
ATOM     10  N   UNL     1       1.082   5.883   0.021  0.00  0.00    -0.206 NA
ENDROOT
BRANCH   9  11
ATOM     11  N   UNL     1      -1.267   5.973   0.043  0.00  0.00    -0.332 N 
ATOM     12  C   UNL     1      -1.238   7.438   0.050  0.00  0.00    +0.127 C 
ATOM     13  H   UNL     1      -2.231   5.442   0.050  0.00  0.00    +0.147 HD
ENDBRANCH   9  11
BRANCH   1  14
ATOM     14  S   UNL     1       3.741   6.109  -0.003  0.00  0.00    -0.071 S 
BRANCH  14  18
ATOM     15  C   UNL     1       8.225   5.304   1.553  0.00  0.00    +0.052 C 
ATOM     16  C   UNL     1       7.120   4.459   0.916  0.00  0.00    +0.175 C 
ATOM     17  C   UNL     1       6.366   5.276  -0.158  0.00  0.00    +0.070 C 
ATOM     18  C   UNL     1       4.924   4.739  -0.021  0.00  0.00    +0.166 C 
ATOM     19  C   UNL     1       4.906   4.010   1.306  0.00  0.00    +0.321 C 
ATOM     20  O   UNL     1       3.958   3.413   1.758  0.00  0.00    -0.250 OA
ATOM     21  O   UNL     1       6.100   4.127   1.904  0.00  0.00    -0.461 OA
ENDBRANCH  14  18
ENDBRANCH   1  14
TORSDOF 3
