REMARK  Name = ZINC08791634
REMARK  7 active torsions:
REMARK  status: ('A' for Active; 'I' for Inactive)
REMARK    1  A    between atoms: C_1  and  O_2
REMARK    2  A    between atoms: O_2  and  C_3
REMARK    3  A    between atoms: C_3  and  C_4
REMARK    4  A    between atoms: C_4  and  C_5
REMARK    5  A    between atoms: C_5  and  N_6
REMARK    6  A    between atoms: C_11  and  C_28
REMARK    7  A    between atoms: C_28  and  C_29
REMARK                            x       y       z     vdW  Elec       q    Type
REMARK                         _______ _______ _______ _____ _____    ______ ____
ROOT
ATOM      1  N   UNL     1       6.749  -0.471  -3.067  0.00  0.00    -0.242 N 
ATOM      2  C   UNL     1       6.199  -0.494  -1.848  0.00  0.00    +0.224 C 
ATOM      3  O   UNL     1       6.122  -1.470  -1.133  0.00  0.00    -0.275 OA
ATOM      4  C   UNL     1       5.688   0.883  -1.500  0.00  0.00    +0.073 C 
ATOM      5  C   UNL     1       4.145   0.862  -1.469  0.00  0.00    -0.053 C 
ATOM      6  C   UNL     1       4.694   2.140  -3.345  0.00  0.00    +0.050 C 
ATOM      7  C   UNL     1       6.048   1.727  -2.756  0.00  0.00    +0.088 C 
ATOM      8  C   UNL     1       6.719   0.725  -3.668  0.00  0.00    +0.225 C 
ATOM      9  O   UNL     1       7.161   0.967  -4.770  0.00  0.00    -0.275 OA
ATOM     10  C   UNL     1       4.747   3.518  -3.941  0.00  0.00    -0.026 A 
ATOM     11  C   UNL     1       5.053   4.761  -3.432  0.00  0.00    +0.024 A 
ATOM     12  C   UNL     1       5.012   5.875  -4.252  0.00  0.00    +0.041 A 
ATOM     13  C   UNL     1       4.662   5.737  -5.584  0.00  0.00    +0.022 A 
ATOM     14  C   UNL     1       4.354   4.494  -6.098  0.00  0.00    +0.025 A 
ATOM     15  C   UNL     1       4.394   3.368  -5.279  0.00  0.00    +0.036 A 
ATOM     16  N   UNL     1       4.131   2.025  -5.561  0.00  0.00    -0.286 N 
ATOM     17  C   UNL     1       4.288   1.239  -4.479  0.00  0.00    +0.211 C 
ATOM     18  O   UNL     1       4.134   0.037  -4.429  0.00  0.00    -0.277 OA
ATOM     19 CL   UNL     1       5.399   7.442  -3.612  0.00  0.00    -0.084 Cl
ATOM     20  H   UNL     1       3.865   1.698  -6.434  0.00  0.00    +0.155 HD
ATOM     21  N   UNL     1       3.758   2.046  -2.239  0.00  0.00    +0.394 N 
ATOM     22  H   UNL     1       3.816   2.886  -1.652  0.00  0.00    -0.083 HD
ATOM     23  H   UNL     1       2.800   1.942  -2.593  0.00  0.00    -0.083 HD
ENDROOT
BRANCH   1  24
ATOM     24  C   UNL     1       7.337  -1.657  -3.695  0.00  0.00    +0.118 C 
BRANCH  24  25
ATOM     25  C   UNL     1       8.820  -1.745  -3.330  0.00  0.00    +0.047 C 
BRANCH  25  26
ATOM     26  C   UNL     1       9.434  -2.984  -3.985  0.00  0.00    +0.161 C 
BRANCH  26  28
ATOM     27  C   UNL     1      11.491  -4.194  -4.208  0.00  0.00    +0.193 C 
ATOM     28  O   UNL     1      10.820  -3.066  -3.644  0.00  0.00    -0.383 OA
ENDBRANCH  26  28
ENDBRANCH  25  26
ENDBRANCH  24  25
ENDBRANCH   1  24
BRANCH   5  29
ATOM     29  C   UNL     1       3.640   0.944  -0.027  0.00  0.00    +0.022 C 
BRANCH  29  30
ATOM     30  C   UNL     1       2.137   0.836  -0.014  0.00  0.00    -0.024 A 
ATOM     31  C   UNL     1       1.264   1.855   0.000  0.00  0.00    +0.087 A 
ATOM     32  N   UNL     1      -0.017   1.373   0.010  0.00  0.00    -0.360 N 
ATOM     33  H   UNL     1      -0.818   1.919   0.017  0.00  0.00    +0.165 HD
ATOM     34  C   UNL     1       0.002  -0.004   0.002  0.00  0.00    +0.047 A 
ATOM     35  C   UNL     1       1.352  -0.401  -0.013  0.00  0.00    +0.003 A 
ATOM     36  C   UNL     1       1.679  -1.758  -0.024  0.00  0.00    +0.010 A 
ATOM     37  C   UNL     1       0.685  -2.695  -0.020  0.00  0.00    +0.001 A 
ATOM     38  C   UNL     1      -0.648  -2.309  -0.005  0.00  0.00    +0.002 A 
ATOM     39  C   UNL     1      -0.993  -0.975   0.006  0.00  0.00    +0.026 A 
ENDBRANCH  29  30
ENDBRANCH   5  29
TORSDOF 6
