REMARK  Name = ZINC05183286
REMARK  7 active torsions:
REMARK  status: ('A' for Active; 'I' for Inactive)
REMARK    1  A    between atoms: C_1  and  C_2
REMARK    2  A    between atoms: C_2  and  C_3
REMARK    3  A    between atoms: C_3  and  N_4
REMARK    4  A    between atoms: C_8  and  S_22
REMARK    5  A    between atoms: N_13  and  C_14
REMARK    6  A    between atoms: C_14  and  C_16
REMARK    7  A    between atoms: S_22  and  N_25
REMARK                            x       y       z     vdW  Elec       q    Type
REMARK                         _______ _______ _______ _____ _____    ______ ____
ROOT
ATOM      1  N   UNL     1      -2.850   1.522   2.483  0.00  0.00    -0.321 N 
ATOM      2  C   UNL     1      -2.813   0.766   3.640  0.00  0.00    +0.058 A 
ATOM      3  C   UNL     1      -2.168  -0.462   3.857  0.00  0.00    +0.029 A 
ATOM      4  C   UNL     1      -2.229  -1.081   5.083  0.00  0.00    +0.030 A 
ATOM      5  C   UNL     1      -2.920  -0.513   6.140  0.00  0.00    +0.106 A 
ATOM      6  C   UNL     1      -3.561   0.700   5.955  0.00  0.00    +0.045 A 
ATOM      7  C   UNL     1      -3.500   1.319   4.730  0.00  0.00    +0.041 A 
ATOM      8  S   UNL     1      -4.154   2.833   4.072  0.00  0.00    -0.052 S 
ATOM      9  C   UNL     1      -3.527   2.702   2.461  0.00  0.00    +0.167 A 
ATOM     10  N   UNL     1      -3.673   3.550   1.448  0.00  0.00    -0.152 NA
ENDROOT
BRANCH   5  11
ATOM     11  S   UNL     1      -2.983  -1.325   7.703  0.00  0.00    +0.056 S 
ATOM     12  O   UNL     1      -1.847  -2.176   7.764  0.00  0.00    -0.153 OA
ATOM     13  O   UNL     1      -3.235  -0.318   8.674  0.00  0.00    -0.153 OA
BRANCH  11  14
ATOM     14  N   UNL     1      -4.313  -2.312   7.688  0.00  0.00    -0.204 NA
ATOM     15  H   UNL     1      -4.880  -2.350   6.902  0.00  0.00    +0.144 HD
ATOM     16  H   UNL     1      -4.526  -2.851   8.466  0.00  0.00    +0.144 HD
ENDBRANCH  11  14
ENDBRANCH   5  11
BRANCH  10  17
ATOM     17  C   UNL     1      -4.380   4.672   1.613  0.00  0.00    +0.269 C 
ATOM     18  O   UNL     1      -4.892   4.917   2.691  0.00  0.00    -0.268 OA
BRANCH  17  19
ATOM     19  C   UNL     1      -4.543   5.617   0.484  0.00  0.00    +0.039 A 
ATOM     20  C   UNL     1      -3.954   5.342  -0.750  0.00  0.00    +0.013 A 
ATOM     21  C   UNL     1      -4.113   6.223  -1.799  0.00  0.00    +0.001 A 
ATOM     22  C   UNL     1      -4.845   7.384  -1.626  0.00  0.00    +0.000 A 
ATOM     23  C   UNL     1      -5.428   7.665  -0.403  0.00  0.00    +0.001 A 
ATOM     24  C   UNL     1      -5.280   6.788   0.652  0.00  0.00    +0.013 A 
ENDBRANCH  17  19
ENDBRANCH  10  17
BRANCH   1  25
ATOM     25  C   UNL     1      -2.164   1.050   1.278  0.00  0.00    +0.124 C 
BRANCH  25  27
ATOM     26  C   UNL     1      -0.013   1.086   0.008  0.00  0.00    +0.005 C 
ATOM     27  C   UNL     1      -0.729   1.579   1.267  0.00  0.00    +0.018 C 
ENDBRANCH  25  27
ENDBRANCH   1  25
TORSDOF 6
