REMARK  Name = ZINC59719885
REMARK  11 active torsions:
REMARK  status: ('A' for Active; 'I' for Inactive)
REMARK    1  A    between atoms: C_1  and  C_2
REMARK    2  A    between atoms: C_5  and  N_8
REMARK    3  A    between atoms: C_9  and  C_29
REMARK    4  A    between atoms: N_11  and  C_17
REMARK    5  A    between atoms: C_12  and  C_14
REMARK    6  A    between atoms: C_14  and  C_16
REMARK    7  A    between atoms: C_32  and  O_37
REMARK    8  A    between atoms: C_33  and  O_35
REMARK    9  A    between atoms: O_35  and  C_36
REMARK   10  A    between atoms: O_37  and  C_38
REMARK   11  A    between atoms: C_38  and  C_39
REMARK                            x       y       z     vdW  Elec       q    Type
REMARK                         _______ _______ _______ _____ _____    ______ ____
ROOT
ATOM      1  N   UNL     1       0.132  -4.180   0.011  0.00  0.00    -0.197 N 
ATOM      2  C   UNL     1       0.275  -5.102   1.150  0.00  0.00    +0.221 C 
ATOM      3  N   UNL     1       0.130  -6.439   0.551  0.00  0.00    -0.256 N 
ATOM      4  C   UNL     1      -0.077  -6.241  -0.819  0.00  0.00    +0.188 C 
ATOM      5  N   UNL     1      -0.081  -4.976  -1.121  0.00  0.00    -0.158 NA
ENDROOT
BRANCH   3   6
ATOM      6  C   UNL     1       0.188  -7.667   1.219  0.00  0.00    +0.040 A 
ATOM      7  C   UNL     1       1.268  -8.519   1.013  0.00  0.00    +0.026 A 
ATOM      8  C   UNL     1       1.330  -9.732   1.670  0.00  0.00    +0.029 A 
ATOM      9  C   UNL     1       0.315 -10.101   2.539  0.00  0.00    +0.067 A 
ATOM     10  C   UNL     1      -0.770  -9.248   2.749  0.00  0.00    +0.069 A 
ATOM     11  C   UNL     1      -0.828  -8.029   2.092  0.00  0.00    +0.051 A 
ATOM     12  N   UNL     1      -1.612  -9.883   3.659  0.00  0.00    -0.306 N 
ATOM     13  H   UNL     1      -2.450  -9.530   3.998  0.00  0.00    +0.170 HD
ATOM     14  C   UNL     1      -1.065 -11.068   3.988  0.00  0.00    +0.325 A 
ATOM     15  O   UNL     1      -1.549 -11.871   4.764  0.00  0.00    -0.247 OA
ATOM     16  N   UNL     1       0.098 -11.230   3.329  0.00  0.00    -0.306 N 
ATOM     17  H   UNL     1       0.684 -12.001   3.393  0.00  0.00    +0.170 HD
ENDBRANCH   3   6
BRANCH   1  22
ATOM     18  C   UNL     1       0.372   1.482   0.179  0.00  0.00    +0.044 C 
ATOM     19  C   UNL     1       0.308  -0.024   0.135  0.00  0.00    -0.050 A 
ATOM     20  C   UNL     1       0.222  -0.674  -1.083  0.00  0.00    +0.005 A 
ATOM     21  C   UNL     1       0.163  -2.053  -1.128  0.00  0.00    +0.025 A 
ATOM     22  C   UNL     1       0.192  -2.787   0.052  0.00  0.00    +0.054 A 
ATOM     23  C   UNL     1       0.279  -2.130   1.274  0.00  0.00    +0.025 A 
ATOM     24  C   UNL     1       0.342  -0.751   1.310  0.00  0.00    +0.005 A 
ENDBRANCH   1  22
BRANCH   2  25
ATOM     25  C   UNL     1       1.633  -4.950   1.784  0.00  0.00    -0.003 A 
ATOM     26  C   UNL     1       2.773  -5.062   1.010  0.00  0.00    +0.011 A 
ATOM     27  C   UNL     1       4.021  -4.923   1.588  0.00  0.00    +0.050 A 
ATOM     28  C   UNL     1       4.132  -4.671   2.946  0.00  0.00    +0.163 A 
ATOM     29  C   UNL     1       2.985  -4.558   3.725  0.00  0.00    +0.162 A 
ATOM     30  C   UNL     1       1.737  -4.693   3.139  0.00  0.00    +0.056 A 
BRANCH  29  31
ATOM     31  O   UNL     1       3.088  -4.310   5.058  0.00  0.00    -0.491 OA
ATOM     32  C   UNL     1       1.869  -4.207   5.796  0.00  0.00    +0.277 C 
ENDBRANCH  29  31
BRANCH  28  33
ATOM     33  O   UNL     1       5.359  -4.534   3.516  0.00  0.00    -0.479 OA
BRANCH  33  34
ATOM     34  C   UNL     1       6.492  -4.663   2.655  0.00  0.00    +0.324 C 
BRANCH  34  35
ATOM     35  C   UNL     1       7.756  -4.483   3.457  0.00  0.00    +0.248 C 
ATOM     36  O   UNL     1       7.692  -4.266   4.648  0.00  0.00    -0.272 OA
ATOM     37  N   UNL     1       8.956  -4.563   2.850  0.00  0.00    -0.327 N 
ATOM     38  H   UNL     1       9.007  -4.737   1.897  0.00  0.00    +0.145 HD
ATOM     39  H   UNL     1       9.769  -4.447   3.366  0.00  0.00    +0.145 HD
ENDBRANCH  34  35
ENDBRANCH  33  34
ENDBRANCH  28  33
ENDBRANCH   2  25
BRANCH   4  40
ATOM     40  C   UNL     1      -0.263  -7.286  -1.756  0.00  0.00    +0.194 C 
ATOM     41  O   UNL     1      -0.181  -8.444  -1.400  0.00  0.00    -0.289 OA
ATOM     42  C   UNL     1      -0.562  -6.960  -3.197  0.00  0.00    +0.095 C 
ENDBRANCH   4  40
TORSDOF 8
