REMARK  Name = ZINC38959598
REMARK  3 active torsions:
REMARK  status: ('A' for Active; 'I' for Inactive)
REMARK    1  A    between atoms: C_1  and  O_2
REMARK    2  A    between atoms: O_2  and  C_3
REMARK    3  A    between atoms: C_8  and  C_15
REMARK                            x       y       z     vdW  Elec       q    Type
REMARK                         _______ _______ _______ _____ _____    ______ ____
ROOT
ATOM      1  C   UNL     1       0.604  -0.605  -1.052  0.00  0.00    +0.122 A 
ATOM      2  C   UNL     1       1.169   0.196  -2.056  0.00  0.00    +0.046 A 
ATOM      3  C   UNL     1       1.782  -0.353  -3.132  0.00  0.00    +0.013 A 
ATOM      4  C   UNL     1       1.853  -1.812  -3.243  0.00  0.00    -0.006 A 
ATOM      5  C   UNL     1       2.462  -2.399  -4.309  0.00  0.00    -0.001 C 
ATOM      6  C   UNL     1       2.492  -3.914  -4.346  0.00  0.00    +0.123 C 
ATOM      7  C   UNL     1       1.845  -4.652  -3.197  0.00  0.00    +0.228 C 
ATOM      8  O   UNL     1       1.841  -5.869  -3.177  0.00  0.00    -0.274 OA
ATOM      9  N   UNL     1       1.283  -3.971  -2.214  0.00  0.00    -0.284 N 
ATOM     10  C   UNL     1       1.254  -2.636  -2.177  0.00  0.00    +0.044 A 
ATOM     11  C   UNL     1       0.644  -1.981  -1.099  0.00  0.00    +0.069 A 
ATOM     12  H   UNL     1       0.873  -4.463  -1.486  0.00  0.00    +0.155 HD
ENDROOT
BRANCH   6  13
ATOM     13  C   UNL     1       1.818  -4.359  -5.619  0.00  0.00    +0.023 C 
ATOM     14  C   UNL     1       2.501  -5.084  -6.525  0.00  0.00    +0.125 C 
ATOM     15  C   UNL     1       1.999  -5.596  -7.822  0.00  0.00    +0.268 C 
ATOM     16  N   UNL     1       3.041  -6.259  -8.372  0.00  0.00    -0.259 N 
ATOM     17  C   UNL     1       4.108  -6.181  -7.512  0.00  0.00    +0.172 C 
ATOM     18  N   UNL     1       3.805  -5.498  -6.441  0.00  0.00    -0.220 NA
ATOM     19  S   UNL     1       5.685  -6.906  -7.816  0.00  0.00    -0.014 SA
ATOM     20  O   UNL     1       0.887  -5.450  -8.292  0.00  0.00    -0.268 OA
ATOM     21  H   UNL     1       3.035  -6.713  -9.229  0.00  0.00    +0.157 HD
ENDBRANCH   6  13
BRANCH   1  23
ATOM     22  C   UNL     1      -0.017   1.425   0.010  0.00  0.00    +0.277 C 
ATOM     23  O   UNL     1       0.002  -0.004   0.002  0.00  0.00    -0.495 OA
ENDBRANCH   1  23
TORSDOF 2
