REMARK  Name = ZINC64715724
REMARK  10 active torsions:
REMARK  status: ('A' for Active; 'I' for Inactive)
REMARK    1  A    between atoms: C_1  and  C_2
REMARK    2  A    between atoms: C_2  and  C_33
REMARK    3  A    between atoms: N_5  and  C_9
REMARK    4  A    between atoms: C_9  and  C_10
REMARK    5  A    between atoms: N_12  and  C_13
REMARK    6  A    between atoms: C_13  and  C_14
REMARK    7  A    between atoms: C_14  and  C_16
REMARK    8  A    between atoms: C_14  and  C_24
REMARK    9  A    between atoms: C_19  and  O_22
REMARK   10  A    between atoms: O_22  and  C_23
REMARK                            x       y       z     vdW  Elec       q    Type
REMARK                         _______ _______ _______ _____ _____    ______ ____
ROOT
ATOM      1  C   UNL     1      -3.602  -5.604   1.029  0.00  0.00    +0.116 C 
ENDROOT
BRANCH   1   4
ATOM      2  C   UNL     1      -2.601  -3.391   1.225  0.00  0.00    +0.231 C 
ATOM      3  O   UNL     1      -1.714  -3.759   0.484  0.00  0.00    -0.274 OA
ATOM      4  N   UNL     1      -3.594  -4.239   1.560  0.00  0.00    -0.313 N 
ATOM      5  H   UNL     1      -4.304  -3.944   2.152  0.00  0.00    +0.149 HD
BRANCH   2   6
ATOM      6  C   UNL     1      -2.593  -1.987   1.771  0.00  0.00    +0.213 C 
BRANCH   6  11
ATOM      7  C   UNL     1      -0.019   1.526   0.010  0.00  0.00    +0.050 C 
ATOM      8  C   UNL     1       0.002  -0.004   0.002  0.00  0.00    +0.168 C 
ATOM      9  C   UNL     1      -1.404  -0.557   0.121  0.00  0.00    +0.254 C 
ATOM     10  O   UNL     1      -2.324  -0.392  -0.652  0.00  0.00    -0.272 OA
ATOM     11  N   UNL     1      -1.419  -1.272   1.263  0.00  0.00    -0.215 N 
ATOM     12  C   UNL     1      -0.231  -1.248   1.876  0.00  0.00    +0.310 C 
ATOM     13  O   UNL     1       0.001  -1.819   2.923  0.00  0.00    -0.252 OA
ATOM     14  N   UNL     1       0.679  -0.520   1.204  0.00  0.00    -0.279 N 
ATOM     15  H   UNL     1       1.602  -0.365   1.461  0.00  0.00    +0.152 HD
BRANCH   8  16
ATOM     16  C   UNL     1       0.673  -0.517  -1.246  0.00  0.00    +0.137 A 
ATOM     17  C   UNL     1       1.988  -0.767  -1.386  0.00  0.00    +0.047 A 
ATOM     18  C   UNL     1       2.178  -1.229  -2.709  0.00  0.00    +0.041 A 
ATOM     19  C   UNL     1       0.968  -1.234  -3.297  0.00  0.00    +0.195 A 
ATOM     20  O   UNL     1       0.060  -0.807  -2.405  0.00  0.00    -0.465 OA
ENDBRANCH   8  16
ENDBRANCH   6  11
ENDBRANCH   2   6
ENDBRANCH   1   4
BRANCH   1  21
ATOM     21  C   UNL     1      -4.828  -6.351   1.560  0.00  0.00    +0.064 C 
BRANCH  21  22
ATOM     22  C   UNL     1      -6.080  -5.707   1.022  0.00  0.00    -0.033 C 
ATOM     23  C   UNL     1      -7.079  -5.146   1.741  0.00  0.00    -0.000 A 
ATOM     24  C   UNL     1      -7.291  -4.975   3.183  0.00  0.00    +0.010 A 
ATOM     25  C   UNL     1      -8.417  -4.360   3.612  0.00  0.00    +0.001 A 
ATOM     26  C   UNL     1      -9.383  -3.882   2.716  0.00  0.00    +0.002 A 
ATOM     27  C   UNL     1      -9.258  -4.002   1.377  0.00  0.00    +0.026 A 
ATOM     28  C   UNL     1      -8.114  -4.632   0.815  0.00  0.00    +0.043 A 
ATOM     29  N   UNL     1      -7.768  -4.867  -0.427  0.00  0.00    -0.380 N 
ATOM     30  C   UNL     1      -6.470  -5.551  -0.431  0.00  0.00    +0.145 C 
ATOM     31  H   UNL     1      -8.283  -4.625  -1.213  0.00  0.00    +0.160 HD
ENDBRANCH  21  22
BRANCH  21  32
ATOM     32  C   UNL     1      -4.772  -7.789   1.114  0.00  0.00    -0.038 A 
ATOM     33  C   UNL     1      -4.747  -8.093  -0.234  0.00  0.00    +0.008 A 
ATOM     34  C   UNL     1      -4.696  -9.411  -0.645  0.00  0.00    +0.046 A 
ATOM     35  C   UNL     1      -4.669 -10.430   0.296  0.00  0.00    +0.120 A 
ATOM     36  C   UNL     1      -4.694 -10.122   1.649  0.00  0.00    +0.046 A 
ATOM     37  C   UNL     1      -4.740  -8.802   2.054  0.00  0.00    +0.008 A 
BRANCH  35  38
ATOM     38  O   UNL     1      -4.620 -11.727  -0.106  0.00  0.00    -0.495 OA
ATOM     39  C   UNL     1      -4.595 -12.723   0.919  0.00  0.00    +0.277 C 
ENDBRANCH  35  38
ENDBRANCH  21  32
ENDBRANCH   1  21
TORSDOF 8
