REMARK  Name = ZINC38776808
REMARK  7 active torsions:
REMARK  status: ('A' for Active; 'I' for Inactive)
REMARK    1  A    between atoms: C_1  and  O_2
REMARK    2  A    between atoms: O_2  and  C_3
REMARK    3  A    between atoms: C_5  and  C_14
REMARK    4  A    between atoms: C_8  and  O_9
REMARK    5  A    between atoms: O_9  and  C_10
REMARK    6  A    between atoms: C_10  and  C_11
REMARK    7  A    between atoms: C_22  and  C_28
REMARK                            x       y       z     vdW  Elec       q    Type
REMARK                         _______ _______ _______ _____ _____    ______ ____
ROOT
ATOM      1  C   UNL     1       2.403   0.379  -4.230  0.00  0.00    +0.047 C 
ATOM      2  C   UNL     1       3.917   0.154  -4.260  0.00  0.00    +0.105 C 
ATOM      3  C   UNL     1       4.247  -1.205  -4.802  0.00  0.00    +0.219 C 
ATOM      4  O   UNL     1       5.341  -1.669  -4.557  0.00  0.00    -0.275 OA
ATOM      5  N   UNL     1       3.401  -1.936  -5.540  0.00  0.00    -0.273 N 
ATOM      6  C   UNL     1       2.129  -1.503  -5.784  0.00  0.00    +0.116 C 
ATOM      7  N   UNL     1       1.204  -2.336  -6.168  0.00  0.00    -0.218 NA
ATOM      8  C   UNL     1      -0.076  -1.968  -6.304  0.00  0.00    +0.154 C 
ATOM      9  N   UNL     1      -0.493  -0.746  -6.017  0.00  0.00    -0.160 NA
ATOM     10  C   UNL     1       0.351   0.210  -5.648  0.00  0.00    +0.249 C 
ATOM     11  O   UNL     1      -0.081   1.308  -5.355  0.00  0.00    -0.273 OA
ATOM     12  C   UNL     1       1.826  -0.038  -5.586  0.00  0.00    +0.148 C 
ATOM     13  H   UNL     1       3.696  -2.784  -5.908  0.00  0.00    +0.156 HD
ENDROOT
BRANCH   1  16
ATOM     14  C   UNL     1       0.337  -0.646  -1.237  0.00  0.00    +0.162 A 
ATOM     15  C   UNL     1       0.904   0.120  -2.243  0.00  0.00    +0.053 A 
ATOM     16  C   UNL     1       1.787  -0.456  -3.137  0.00  0.00    -0.039 A 
ATOM     17  C   UNL     1       2.106  -1.797  -3.031  0.00  0.00    +0.008 A 
ATOM     18  C   UNL     1       1.543  -2.568  -2.031  0.00  0.00    +0.050 A 
ATOM     19  C   UNL     1       0.662  -1.995  -1.127  0.00  0.00    +0.163 A 
BRANCH  14  21
ATOM     20  C   UNL     1      -0.818   1.309  -0.530  0.00  0.00    +0.277 C 
ATOM     21  O   UNL     1      -0.531  -0.080  -0.356  0.00  0.00    -0.491 OA
ENDBRANCH  14  21
BRANCH  19  22
ATOM     22  O   UNL     1       0.113  -2.750  -0.139  0.00  0.00    -0.479 OA
BRANCH  22  23
ATOM     23  C   UNL     1       0.492  -4.127  -0.087  0.00  0.00    +0.324 C 
BRANCH  23  24
ATOM     24  C   UNL     1      -0.211  -4.798   1.064  0.00  0.00    +0.248 C 
ATOM     25  O   UNL     1      -0.963  -4.161   1.770  0.00  0.00    -0.272 OA
ATOM     26  N   UNL     1      -0.004  -6.108   1.308  0.00  0.00    -0.327 N 
ATOM     27  H   UNL     1       0.598  -6.617   0.743  0.00  0.00    +0.145 HD
ATOM     28  H   UNL     1      -0.457  -6.540   2.049  0.00  0.00    +0.145 HD
ENDBRANCH  23  24
ENDBRANCH  22  23
ENDBRANCH  19  22
ENDBRANCH   1  16
BRANCH   8  29
ATOM     29  C   UNL     1      -1.056  -2.961  -6.793  0.00  0.00    +0.017 A 
ATOM     30  C   UNL     1      -0.645  -4.261  -7.099  0.00  0.00    +0.011 A 
ATOM     31  C   UNL     1      -1.566  -5.182  -7.554  0.00  0.00    +0.001 A 
ATOM     32  C   UNL     1      -2.893  -4.821  -7.707  0.00  0.00    +0.000 A 
ATOM     33  C   UNL     1      -3.306  -3.535  -7.406  0.00  0.00    +0.001 A 
ATOM     34  C   UNL     1      -2.398  -2.606  -6.944  0.00  0.00    +0.011 A 
ENDBRANCH   8  29
TORSDOF 6
