REMARK  Name = ZINC39653256
REMARK  10 active torsions:
REMARK  status: ('A' for Active; 'I' for Inactive)
REMARK    1  A    between atoms: C_1  and  C_2
REMARK    2  A    between atoms: C_2  and  O_3
REMARK    3  A    between atoms: O_3  and  C_4
REMARK    4  A    between atoms: C_6  and  C_12
REMARK    5  A    between atoms: C_9  and  O_10
REMARK    6  A    between atoms: O_10  and  C_11
REMARK    7  A    between atoms: C_12  and  C_13
REMARK    8  A    between atoms: C_13  and  N_14
REMARK    9  A    between atoms: C_15  and  C_17
REMARK   10  A    between atoms: C_28  and  C_30
REMARK                            x       y       z     vdW  Elec       q    Type
REMARK                         _______ _______ _______ _____ _____    ______ ____
ROOT
ATOM      1  C   UNL     1       0.410  -7.463  -4.704  0.00  0.00    +0.100 C 
ATOM      2  C   UNL     1       0.164  -8.865  -4.103  0.00  0.00    +0.121 C 
ATOM      3  N   UNL     1       0.492  -9.805  -5.201  0.00  0.00    -0.296 N 
ATOM      4  C   UNL     1       1.685  -9.211  -5.851  0.00  0.00    +0.115 C 
ATOM      5  C   UNL     1       1.410  -7.694  -5.849  0.00  0.00    -0.004 C 
ATOM      6  C   UNL     1       2.701  -6.924  -5.588  0.00  0.00    -0.010 C 
ATOM      7  C   UNL     1       3.656  -7.122  -6.768  0.00  0.00    -0.082 C 
ATOM      8  N   UNL     1       3.019  -6.644  -8.001  0.00  0.00    +0.379 N 
ATOM      9  C   UNL     1       1.829  -7.451  -8.295  0.00  0.00    -0.082 C 
ATOM     10  C   UNL     1       0.796  -7.267  -7.180  0.00  0.00    -0.010 C 
ATOM     11  C   UNL     1      -0.149 -10.943  -5.533  0.00  0.00    +0.249 C 
ATOM     12  O   UNL     1      -1.177 -11.251  -4.963  0.00  0.00    -0.270 OA
ATOM     13  H   UNL     1       2.749  -5.679  -7.886  0.00  0.00    -0.086 HD
ATOM     14  H   UNL     1       3.672  -6.719  -8.767  0.00  0.00    -0.086 HD
ENDROOT
BRANCH  11  15
ATOM     15  C   UNL     1       0.398 -11.816  -6.590  0.00  0.00    +0.072 A 
ATOM     16  C   UNL     1       1.780 -11.949  -6.744  0.00  0.00    +0.019 A 
ATOM     17  C   UNL     1       2.285 -12.765  -7.732  0.00  0.00    +0.039 A 
ATOM     18  C   UNL     1       1.426 -13.456  -8.575  0.00  0.00    +0.126 A 
ATOM     19  C   UNL     1       0.054 -13.329  -8.429  0.00  0.00    +0.077 A 
ATOM     20  C   UNL     1      -0.465 -12.518  -7.438  0.00  0.00    +0.138 A 
ATOM     21  F   UNL     1      -1.803 -12.399  -7.292  0.00  0.00    -0.205 F 
ATOM     22  F   UNL     1       1.928 -14.254  -9.542  0.00  0.00    -0.205 F 
ENDBRANCH  11  15
BRANCH   1  24
ATOM     23  N   UNL     1       0.918  -5.209  -3.820  0.00  0.00    -0.315 N 
ATOM     24  C   UNL     1       1.004  -6.545  -3.666  0.00  0.00    +0.218 C 
ATOM     25  O   UNL     1       1.560  -7.009  -2.693  0.00  0.00    -0.275 OA
ATOM     26  H   UNL     1       0.474  -4.838  -4.599  0.00  0.00    +0.149 HD
BRANCH  23  27
ATOM     27  C   UNL     1       1.496  -4.317  -2.812  0.00  0.00    +0.109 C 
BRANCH  27  28
ATOM     28  C   UNL     1       1.262  -2.862  -3.224  0.00  0.00    +0.054 C 
BRANCH  28  31
ATOM     29  C   UNL     1       3.716  -0.682  -1.354  0.00  0.00    +0.162 A 
ATOM     30  C   UNL     1       3.168  -1.526  -2.307  0.00  0.00    +0.053 A 
ATOM     31  C   UNL     1       1.856  -1.944  -2.187  0.00  0.00    -0.042 A 
ATOM     32  C   UNL     1       1.087  -1.522  -1.118  0.00  0.00    +0.007 A 
ATOM     33  C   UNL     1       1.627  -0.680  -0.164  0.00  0.00    +0.049 A 
ATOM     34  C   UNL     1       2.944  -0.262  -0.275  0.00  0.00    +0.162 A 
BRANCH  34  35
ATOM     35  O   UNL     1       3.478   0.562   0.666  0.00  0.00    -0.491 OA
ATOM     36  C   UNL     1       2.627   0.953   1.746  0.00  0.00    +0.277 C 
ENDBRANCH  34  35
BRANCH  29  37
ATOM     37  O   UNL     1       5.006  -0.269  -1.470  0.00  0.00    -0.489 OA
BRANCH  37  39
ATOM     38  C   UNL     1       7.160  -0.175  -2.562  0.00  0.00    +0.048 C 
ATOM     39  C   UNL     1       5.738  -0.740  -2.603  0.00  0.00    +0.226 C 
ENDBRANCH  37  39
ENDBRANCH  29  37
ENDBRANCH  28  31
ENDBRANCH  27  28
ENDBRANCH  23  27
ENDBRANCH   1  24
TORSDOF 8
