REMARK  Name = ZINC39685773
REMARK  11 active torsions:
REMARK  status: ('A' for Active; 'I' for Inactive)
REMARK    1  A    between atoms: C_1  and  C_2
REMARK    2  A    between atoms: C_2  and  C_3
REMARK    3  A    between atoms: C_2  and  C_4
REMARK    4  A    between atoms: C_4  and  C_6
REMARK    5  A    between atoms: C_4  and  N_13
REMARK    6  A    between atoms: N_8  and  C_9
REMARK    7  A    between atoms: C_9  and  C_10
REMARK    8  A    between atoms: C_9  and  C_11
REMARK    9  A    between atoms: C_9  and  C_12
REMARK   10  A    between atoms: C_14  and  C_16
REMARK   11  A    between atoms: C_27  and  C_29
REMARK                            x       y       z     vdW  Elec       q    Type
REMARK                         _______ _______ _______ _____ _____    ______ ____
ROOT
ATOM      1  C   UNL     1       0.572  -4.337   1.816  0.00  0.00    +0.100 C 
ATOM      2  C   UNL     1       1.779  -4.111   0.878  0.00  0.00    +0.121 C 
ATOM      3  N   UNL     1       2.878  -3.689   1.779  0.00  0.00    -0.296 N 
ATOM      4  C   UNL     1       2.715  -4.539   2.982  0.00  0.00    +0.115 C 
ATOM      5  C   UNL     1       1.191  -4.622   3.195  0.00  0.00    -0.004 C 
ATOM      6  C   UNL     1       0.742  -3.568   4.203  0.00  0.00    -0.010 C 
ATOM      7  C   UNL     1       1.324  -3.904   5.579  0.00  0.00    -0.082 C 
ATOM      8  N   UNL     1       0.865  -5.235   5.995  0.00  0.00    +0.379 N 
ATOM      9  C   UNL     1       1.378  -6.253   5.071  0.00  0.00    -0.082 C 
ATOM     10  C   UNL     1       0.799  -6.016   3.673  0.00  0.00    -0.010 C 
ATOM     11  C   UNL     1       3.814  -2.746   1.554  0.00  0.00    +0.247 C 
ATOM     12  O   UNL     1       3.749  -2.050   0.560  0.00  0.00    -0.270 OA
ATOM     13  H   UNL     1       1.200  -5.428   6.926  0.00  0.00    -0.086 HD
ATOM     14  H   UNL     1      -0.144  -5.257   5.991  0.00  0.00    -0.086 HD
ENDROOT
BRANCH  11  15
ATOM     15  C   UNL     1       4.921  -2.559   2.516  0.00  0.00    +0.038 A 
ATOM     16  C   UNL     1       5.286  -3.598   3.375  0.00  0.00    +0.013 A 
ATOM     17  C   UNL     1       6.320  -3.417   4.270  0.00  0.00    +0.002 A 
ATOM     18  C   UNL     1       6.996  -2.211   4.318  0.00  0.00    +0.020 A 
ATOM     19  C   UNL     1       6.639  -1.177   3.470  0.00  0.00    +0.042 A 
ATOM     20  C   UNL     1       5.609  -1.346   2.565  0.00  0.00    +0.033 A 
ATOM     21 CL   UNL     1       7.493   0.333   3.538  0.00  0.00    -0.084 Cl
ENDBRANCH  11  15
BRANCH   1  23
ATOM     22  N   UNL     1      -1.600  -3.206   2.164  0.00  0.00    -0.303 N 
ATOM     23  C   UNL     1      -0.289  -3.102   1.872  0.00  0.00    +0.219 C 
ATOM     24  O   UNL     1       0.199  -2.013   1.654  0.00  0.00    -0.275 OA
ATOM     25  H   UNL     1      -1.990  -4.077   2.338  0.00  0.00    +0.149 HD
BRANCH  22  26
ATOM     26  C   UNL     1      -2.437  -2.005   2.218  0.00  0.00    +0.161 C 
BRANCH  26  27
ATOM     27  C   UNL     1      -3.621  -2.257   3.115  0.00  0.00    +0.234 C 
ATOM     28  O   UNL     1      -3.969  -3.394   3.354  0.00  0.00    -0.274 OA
ATOM     29  N   UNL     1      -4.293  -1.219   3.651  0.00  0.00    -0.309 N 
ATOM     30  H   UNL     1      -3.975  -0.313   3.516  0.00  0.00    +0.149 HD
BRANCH  29  31
ATOM     31  C   UNL     1      -5.505  -1.460   4.439  0.00  0.00    +0.026 C 
ATOM     32  C   UNL     1      -5.165  -2.342   5.642  0.00  0.00    +0.031 C 
ATOM     33  C   UNL     1      -6.069  -0.125   4.928  0.00  0.00    +0.031 C 
ATOM     34  C   UNL     1      -6.547  -2.165   3.568  0.00  0.00    +0.031 C 
ENDBRANCH  29  31
ENDBRANCH  26  27
BRANCH  26  36
ATOM     35  C   UNL     1      -1.734  -1.280  -0.068  0.00  0.00    +0.009 C 
ATOM     36  C   UNL     1      -2.928  -1.661   0.810  0.00  0.00    +0.012 C 
ATOM     37  C   UNL     1      -3.637  -2.875   0.207  0.00  0.00    +0.009 C 
ENDBRANCH  26  36
ENDBRANCH  22  26
ENDBRANCH   1  23
TORSDOF 6
