REMARK  Name = ZINC41669672
REMARK  3 active torsions:
REMARK  status: ('A' for Active; 'I' for Inactive)
REMARK    1  A    between atoms: C_1  and  N_2
REMARK    2  A    between atoms: N_2  and  C_14
REMARK    3  A    between atoms: C_10  and  O_13
REMARK                            x       y       z     vdW  Elec       q    Type
REMARK                         _______ _______ _______ _____ _____    ______ ____
ROOT
ATOM      1  C   UNL     1      -0.018   1.461   0.010  0.00  0.00    +0.131 C 
ATOM      2  N   UNL     1       0.002  -0.004   0.002  0.00  0.00    -0.314 N 
ATOM      3  C   UNL     1       0.023  -0.704   1.200  0.00  0.00    +0.122 A 
ATOM      4  C   UNL     1      -0.088   0.000   2.407  0.00  0.00    +0.044 A 
ATOM      5  C   UNL     1      -0.069  -0.674   3.591  0.00  0.00    +0.013 A 
ATOM      6  C   UNL     1       0.063  -2.078   3.558  0.00  0.00    +0.004 A 
ATOM      7  C   UNL     1       0.088  -2.834   4.740  0.00  0.00    +0.010 A 
ATOM      8  C   UNL     1       0.216  -4.189   4.673  0.00  0.00    +0.004 A 
ATOM      9  C   UNL     1       0.323  -4.837   3.446  0.00  0.00    +0.047 A 
ATOM     10  C   UNL     1       0.301  -4.134   2.275  0.00  0.00    +0.143 A 
ATOM     11  C   UNL     1       0.170  -2.730   2.307  0.00  0.00    +0.114 A 
ATOM     12  N   UNL     1       0.141  -2.016   1.176  0.00  0.00    -0.228 NA
ENDROOT
BRANCH   2  13
ATOM     13  C   UNL     1      -0.000  -0.730  -1.271  0.00  0.00    +0.097 C 
ATOM     14  C   UNL     1       1.222  -0.316  -2.107  0.00  0.00    +0.046 C 
ATOM     15  C   UNL     1       1.063  -0.822  -3.561  0.00  0.00    +0.168 C 
ATOM     16  S   UNL     1      -0.763  -0.873  -3.773  0.00  0.00    -0.029 S 
ATOM     17  O   UNL     1      -1.150   0.140  -4.692  0.00  0.00    -0.174 OA
ATOM     18  O   UNL     1      -1.164  -2.216  -4.003  0.00  0.00    -0.174 OA
ATOM     19  C   UNL     1      -1.281  -0.372  -2.077  0.00  0.00    +0.188 C 
ENDBRANCH   2  13
BRANCH  10  20
ATOM     20  O   UNL     1       0.407  -4.783   1.086  0.00  0.00    -0.505 OA
ATOM     21  H   UNL     1      -0.442  -5.053   0.709  0.00  0.00    +0.292 HD
ENDBRANCH  10  20
TORSDOF 2
