REMARK  Name = ZINC35745096
REMARK  18 active torsions:
REMARK  status: ('A' for Active; 'I' for Inactive)
REMARK    1  A    between atoms: C_1  and  C_2
REMARK    2  A    between atoms: C_2  and  C_3
REMARK    3  A    between atoms: C_3  and  C_5
REMARK    4  A    between atoms: C_3  and  N_6
REMARK    5  A    between atoms: N_6  and  C_7
REMARK    6  A    between atoms: N_6  and  C_16
REMARK    7  A    between atoms: C_7  and  C_8
REMARK    8  A    between atoms: C_13  and  O_14
REMARK    9  A    between atoms: O_14  and  C_15
REMARK   10  A    between atoms: C_16  and  C_17
REMARK   11  A    between atoms: C_20  and  C_22
REMARK   12  A    between atoms: C_22  and  C_23
REMARK   13  A    between atoms: C_22  and  C_31
REMARK   14  A    between atoms: C_22  and  O_39
REMARK   15  A    between atoms: C_26  and  O_29
REMARK   16  A    between atoms: O_29  and  C_30
REMARK   17  A    between atoms: C_34  and  O_37
REMARK   18  A    between atoms: O_37  and  C_38
REMARK                            x       y       z     vdW  Elec       q    Type
REMARK                         _______ _______ _______ _____ _____    ______ ____
ROOT
ATOM      1  C   UNL     1      -3.587  -2.517   1.965  0.00  0.00    +0.089 A 
ATOM      2  C   UNL     1      -3.286  -2.913   3.215  0.00  0.00    +0.043 A 
ATOM      3  C   UNL     1      -3.667  -4.271   3.317  0.00  0.00    +0.048 A 
ATOM      4  C   UNL     1      -4.177  -4.623   2.123  0.00  0.00    +0.146 A 
ATOM      5  O   UNL     1      -4.132  -3.555   1.310  0.00  0.00    -0.463 OA
ENDROOT
BRANCH   1   6
ATOM      6  C   UNL     1      -3.357  -1.139   1.398  0.00  0.00    -0.002 C 
BRANCH   6   7
ATOM      7  N   UNL     1      -1.914  -0.893   1.278  0.00  0.00    +0.389 N 
ATOM      8  H   UNL     1      -1.460  -1.129   2.147  0.00  0.00    -0.080 HD
BRANCH   7   9
ATOM      9  C   UNL     1      -1.364  -1.722   0.198  0.00  0.00    -0.071 C 
ATOM     10  C   UNL     1      -2.216  -1.550  -1.062  0.00  0.00    -0.013 C 
BRANCH   9  12
ATOM     11  C   UNL     1      -0.520  -3.365   1.881  0.00  0.00    +0.002 C 
ATOM     12  C   UNL     1      -1.377  -3.192   0.625  0.00  0.00    -0.019 C 
ENDBRANCH   9  12
ENDBRANCH   7   9
BRANCH   7  13
ATOM     13  C   UNL     1      -1.683   0.525   0.973  0.00  0.00    -0.038 C 
BRANCH  13  14
ATOM     14  C   UNL     1      -0.203   0.808   0.992  0.00  0.00    -0.022 A 
ATOM     15  C   UNL     1       0.395   1.286   2.142  0.00  0.00    +0.005 A 
ATOM     16  C   UNL     1       1.753   1.547   2.160  0.00  0.00    +0.000 A 
ATOM     17  C   UNL     1       2.516   1.328   1.027  0.00  0.00    +0.004 A 
ATOM     18  C   UNL     1       1.923   0.850  -0.125  0.00  0.00    +0.046 A 
ATOM     19  C   UNL     1       0.561   0.583  -0.144  0.00  0.00    +0.121 A 
BRANCH  19  20
ATOM     20  O   UNL     1      -0.023   0.106  -1.274  0.00  0.00    -0.495 OA
ATOM     21  C   UNL     1       0.840  -0.203  -2.370  0.00  0.00    +0.277 C 
ENDBRANCH  19  20
ENDBRANCH  13  14
ENDBRANCH   7  13
ENDBRANCH   6   7
ENDBRANCH   1   6
BRANCH   4  22
ATOM     22  C   UNL     1      -4.715  -5.984   1.761  0.00  0.00    +0.174 C 
BRANCH  22  23
ATOM     23  C   UNL     1      -5.800  -5.836   0.726  0.00  0.00    -0.004 A 
ATOM     24  C   UNL     1      -7.082  -6.275   1.003  0.00  0.00    +0.011 A 
ATOM     25  C   UNL     1      -8.078  -6.141   0.056  0.00  0.00    +0.046 A 
ATOM     26  C   UNL     1      -7.792  -5.566  -1.174  0.00  0.00    +0.120 A 
ATOM     27  C   UNL     1      -6.506  -5.126  -1.449  0.00  0.00    +0.046 A 
ATOM     28  C   UNL     1      -5.514  -5.257  -0.496  0.00  0.00    +0.011 A 
BRANCH  26  29
ATOM     29  O   UNL     1      -8.771  -5.434  -2.108  0.00  0.00    -0.495 OA
ATOM     30  C   UNL     1      -8.404  -4.832  -3.351  0.00  0.00    +0.277 C 
ENDBRANCH  26  29
ENDBRANCH  22  23
BRANCH  22  31
ATOM     31  C   UNL     1      -3.601  -6.832   1.204  0.00  0.00    -0.004 A 
ATOM     32  C   UNL     1      -2.740  -6.305   0.259  0.00  0.00    +0.011 A 
ATOM     33  C   UNL     1      -1.718  -7.081  -0.255  0.00  0.00    +0.046 A 
ATOM     34  C   UNL     1      -1.556  -8.388   0.180  0.00  0.00    +0.120 A 
ATOM     35  C   UNL     1      -2.421  -8.914   1.129  0.00  0.00    +0.046 A 
ATOM     36  C   UNL     1      -3.438  -8.133   1.642  0.00  0.00    +0.011 A 
BRANCH  34  37
ATOM     37  O   UNL     1      -0.552  -9.153  -0.324  0.00  0.00    -0.495 OA
ATOM     38  C   UNL     1      -0.445 -10.490   0.170  0.00  0.00    +0.277 C 
ENDBRANCH  34  37
ENDBRANCH  22  31
BRANCH  22  39
ATOM     39  O   UNL     1      -5.251  -6.609   2.929  0.00  0.00    -0.372 OA
ATOM     40  H   UNL     1      -4.607  -6.737   3.638  0.00  0.00    +0.212 HD
ENDBRANCH  22  39
ENDBRANCH   4  22
TORSDOF 13
