REMARK  Name = ZINC42959001
REMARK  7 active torsions:
REMARK  status: ('A' for Active; 'I' for Inactive)
REMARK    1  A    between atoms: C_1  and  C_2
REMARK    2  A    between atoms: C_2  and  C_4
REMARK    3  A    between atoms: C_2  and  N_22
REMARK    4  A    between atoms: C_4  and  C_6
REMARK    5  A    between atoms: C_4  and  S_13
REMARK    6  A    between atoms: S_13  and  C_14
REMARK    7  A    between atoms: N_18  and  C_19
REMARK                            x       y       z     vdW  Elec       q    Type
REMARK                         _______ _______ _______ _____ _____    ______ ____
ROOT
ATOM      1  C   UNL     1       0.691  -0.423   1.208  0.00  0.00    +0.069 C 
ENDROOT
BRANCH   1   2
ATOM      2  C   UNL     1      -0.204  -0.087   2.373  0.00  0.00    -0.036 A 
ATOM      3  C   UNL     1      -1.509  -0.544   2.396  0.00  0.00    +0.006 A 
ATOM      4  C   UNL     1      -2.330  -0.236   3.464  0.00  0.00    +0.015 A 
ATOM      5  C   UNL     1      -1.847   0.530   4.510  0.00  0.00    +0.018 A 
ATOM      6  C   UNL     1      -0.541   0.987   4.486  0.00  0.00    +0.015 A 
ATOM      7  C   UNL     1       0.281   0.674   3.420  0.00  0.00    +0.006 A 
ATOM      8 BR   UNL     1      -2.970   0.952   5.971  0.00  0.00    -0.050 Br
ENDBRANCH   1   2
BRANCH   1  10
ATOM      9  C   UNL     1      -1.109   0.123  -0.435  0.00  0.00    -0.013 C 
ATOM     10  C   UNL     1       0.318   0.450   0.009  0.00  0.00    -0.060 C 
BRANCH  10  11
ATOM     11  N   UNL     1       0.400   1.866   0.390  0.00  0.00    +0.381 N 
ATOM     12  H   UNL     1      -0.190   2.034   1.191  0.00  0.00    -0.090 HD
ATOM     13  H   UNL     1       1.355   2.098   0.621  0.00  0.00    -0.090 HD
ATOM     14  H   UNL     1       0.092   2.441  -0.381  0.00  0.00    -0.090 HD
ENDBRANCH  10  11
ENDBRANCH   1  10
BRANCH   1  15
ATOM     15  S   UNL     1       0.483  -2.172   0.771  0.00  0.00    -0.078 S 
BRANCH  15  16
ATOM     16  C   UNL     1       1.744  -2.465  -0.424  0.00  0.00    +0.210 A 
ATOM     17  N   UNL     1       2.680  -1.619  -0.797  0.00  0.00    -0.101 NA
ATOM     18  N   UNL     1       3.438  -2.150  -1.687  0.00  0.00    -0.022 NA
ATOM     19  N   UNL     1       3.052  -3.352  -1.945  0.00  0.00    -0.043 NA
ATOM     20  N   UNL     1       1.936  -3.606  -1.127  0.00  0.00    -0.217 N 
BRANCH  20  21
ATOM     21  C   UNL     1       1.149  -4.839  -1.054  0.00  0.00    +0.112 C 
ATOM     22  C   UNL     1       1.437  -5.924  -2.094  0.00  0.00    +0.029 C 
ATOM     23  C   UNL     1       1.879  -6.119  -0.642  0.00  0.00    +0.029 C 
ENDBRANCH  20  21
ENDBRANCH  15  16
ENDBRANCH   1  15
TORSDOF 6
