REMARK  Name = ZINC20532140
REMARK  12 active torsions:
REMARK  status: ('A' for Active; 'I' for Inactive)
REMARK    1  A    between atoms: C_1  and  C_2
REMARK    2  A    between atoms: C_2  and  C_3
REMARK    3  A    between atoms: C_2  and  C_4
REMARK    4  A    between atoms: C_4  and  C_5
REMARK    5  A    between atoms: C_5  and  C_6
REMARK    6  A    between atoms: C_6  and  C_8
REMARK    7  A    between atoms: C_6  and  N_23
REMARK    8  A    between atoms: C_12  and  N_13
REMARK    9  A    between atoms: N_19  and  C_22
REMARK   10  A    between atoms: N_26  and  C_27
REMARK   11  A    between atoms: C_32  and  O_33
REMARK   12  A    between atoms: O_33  and  C_34
REMARK                            x       y       z     vdW  Elec       q    Type
REMARK                         _______ _______ _______ _____ _____    ______ ____
ROOT
ATOM      1  C   UNL     1      -1.460   2.834  -0.278  0.00  0.00    +0.108 C 
ENDROOT
BRANCH   1   2
ATOM      2  C   UNL     1      -1.168   1.469  -0.844  0.00  0.00    +0.007 A 
ATOM      3  C   UNL     1      -1.040   1.296  -2.220  0.00  0.00    -0.034 A 
ATOM      4  C   UNL     1      -0.779   0.032  -2.656  0.00  0.00    -0.021 A 
ATOM      5  S   UNL     1      -0.704  -0.924  -1.167  0.00  0.00    -0.077 S 
ATOM      6  C   UNL     1      -1.028   0.401  -0.013  0.00  0.00    +0.090 A 
ATOM      7  C   UNL     1      -0.603  -0.409  -4.072  0.00  0.00    -0.036 C 
ATOM      8  N   UNL     1      -1.101   0.665  -4.954  0.00  0.00    +0.381 N 
ATOM      9  C   UNL     1      -0.545   1.964  -4.553  0.00  0.00    -0.074 C 
ATOM     10  C   UNL     1      -1.175   2.426  -3.236  0.00  0.00    +0.018 C 
ATOM     11  C   UNL     1      -0.796   0.374  -6.361  0.00  0.00    -0.096 C 
ATOM     12  H   UNL     1      -2.195   0.717  -4.854  0.00  0.00    -0.082 HD
BRANCH   6  13
ATOM     13  N   UNL     1      -1.116   0.353   1.383  0.00  0.00    -0.317 N 
ATOM     14  C   UNL     1      -0.161  -0.142   2.224  0.00  0.00    +0.092 A 
ATOM     15  C   UNL     1      -0.607  -0.012   3.491  0.00  0.00    +0.019 A 
ATOM     16  C   UNL     1      -1.886   0.575   3.430  0.00  0.00    +0.019 A 
ATOM     17  C   UNL     1      -2.173   0.788   2.130  0.00  0.00    +0.092 A 
ENDBRANCH   6  13
ENDBRANCH   1   2
BRANCH   1  18
ATOM     18  N   UNL     1      -2.605   3.419  -0.980  0.00  0.00    -0.292 N 
ATOM     19  C   UNL     1      -3.637   3.928  -0.279  0.00  0.00    +0.304 C 
ATOM     20  O   UNL     1      -3.618   3.902   0.936  0.00  0.00    -0.252 OA
ATOM     21  N   UNL     1      -4.690   4.466  -0.925  0.00  0.00    -0.266 N 
ATOM     22  H   UNL     1      -2.622   3.443  -2.080  0.00  0.00    +0.151 HD
ATOM     23  H   UNL     1      -4.741   4.426  -2.023  0.00  0.00    +0.156 HD
BRANCH  21  24
ATOM     24  C   UNL     1      -5.721   5.077  -0.198  0.00  0.00    +0.077 A 
ATOM     25  C   UNL     1      -5.991   4.671   1.101  0.00  0.00    +0.027 A 
ATOM     26  C   UNL     1      -7.005   5.278   1.817  0.00  0.00    +0.002 A 
ATOM     27  C   UNL     1      -7.759   6.283   1.240  0.00  0.00    +0.004 A 
ATOM     28  C   UNL     1      -7.499   6.689  -0.056  0.00  0.00    +0.047 A 
ATOM     29  C   UNL     1      -6.481   6.089  -0.779  0.00  0.00    +0.141 A 
BRANCH  29  30
ATOM     30  O   UNL     1      -6.225   6.487  -2.054  0.00  0.00    -0.493 OA
ATOM     31  C   UNL     1      -7.045   7.530  -2.586  0.00  0.00    +0.277 C 
ENDBRANCH  29  30
ENDBRANCH  21  24
ENDBRANCH   1  18
BRANCH   1  32
ATOM     32  C   UNL     1      -0.236   3.734  -0.460  0.00  0.00    +0.027 C 
BRANCH  32  33
ATOM     33  C   UNL     1      -0.486   5.080   0.225  0.00  0.00    +0.005 C 
BRANCH  33  35
ATOM     34  C   UNL     1       0.914   6.307  -1.441  0.00  0.00    +0.007 C 
ATOM     35  C   UNL     1       0.738   5.979   0.043  0.00  0.00    -0.017 C 
ATOM     36  C   UNL     1       0.539   7.276   0.831  0.00  0.00    +0.007 C 
ENDBRANCH  33  35
ENDBRANCH  32  33
ENDBRANCH   1  32
TORSDOF 8
