REMARK  Name = ZINC00988367
REMARK  7 active torsions:
REMARK  status: ('A' for Active; 'I' for Inactive)
REMARK    1  A    between atoms: C_1  and  O_2
REMARK    2  A    between atoms: O_2  and  C_3
REMARK    3  A    between atoms: C_6  and  C_9
REMARK    4  A    between atoms: N_10  and  N_11
REMARK    5  A    between atoms: C_12  and  C_14
REMARK    6  A    between atoms: C_18  and  N_31
REMARK    7  A    between atoms: N_22  and  C_24
REMARK                            x       y       z     vdW  Elec       q    Type
REMARK                         _______ _______ _______ _____ _____    ______ ____
ROOT
ATOM      1  C   UNL     1      -7.607  -6.606  -0.087  0.00  0.00    +0.156 A 
ATOM      2  C   UNL     1      -7.664  -8.089   0.047  0.00  0.00    +0.028 A 
ATOM      3  C   UNL     1      -6.614  -8.964   0.054  0.00  0.00    +0.058 A 
ATOM      4  S   UNL     1      -7.387 -10.551   0.244  0.00  0.00    -0.081 S 
ATOM      5  C   UNL     1      -8.996 -10.098   0.311  0.00  0.00    +0.076 A 
ATOM      6  C   UNL     1      -8.987  -8.707   0.189  0.00  0.00    +0.078 A 
ATOM      7  C   UNL     1     -10.123  -7.836   0.187  0.00  0.00    +0.282 A 
ATOM      8  O   UNL     1     -11.242  -8.302   0.302  0.00  0.00    -0.265 OA
ATOM      9  N   UNL     1      -9.964  -6.512   0.061  0.00  0.00    -0.196 N 
ATOM     10  N   UNL     1      -8.713  -5.912  -0.069  0.00  0.00    -0.158 NA
ENDROOT
BRANCH   9  11
ATOM     11  C   UNL     1     -11.101  -5.697   0.065  0.00  0.00    +0.069 A 
ATOM     12  C   UNL     1     -12.060  -5.846   1.059  0.00  0.00    +0.029 A 
ATOM     13  C   UNL     1     -13.181  -5.040   1.060  0.00  0.00    +0.022 A 
ATOM     14  C   UNL     1     -13.350  -4.085   0.073  0.00  0.00    +0.041 A 
ATOM     15  C   UNL     1     -12.396  -3.934  -0.918  0.00  0.00    +0.022 A 
ATOM     16  C   UNL     1     -11.270  -4.733  -0.921  0.00  0.00    +0.029 A 
ATOM     17 CL   UNL     1     -14.762  -3.074   0.077  0.00  0.00    -0.084 Cl
ENDBRANCH   9  11
BRANCH   1  19
ATOM     18  N   UNL     1      -6.259  -4.583  -0.348  0.00  0.00    -0.202 N 
ATOM     19  C   UNL     1      -6.308  -5.925  -0.233  0.00  0.00    +0.284 C 
ATOM     20  O   UNL     1      -5.279  -6.574  -0.249  0.00  0.00    -0.267 OA
ATOM     21  H   UNL     1      -7.079  -4.065  -0.335  0.00  0.00    +0.178 HD
BRANCH  18  23
ATOM     22  C   UNL     1      -4.978  -2.643  -0.598  0.00  0.00    +0.138 C 
ATOM     23  N   UNL     1      -5.024  -3.936  -0.487  0.00  0.00    -0.187 NA
BRANCH  22  27
ATOM     24  C   UNL     1      -1.236  -0.682  -1.016  0.00  0.00    +0.120 A 
ATOM     25  C   UNL     1      -2.409   0.061  -0.999  0.00  0.00    +0.046 A 
ATOM     26  C   UNL     1      -3.626  -0.571  -0.863  0.00  0.00    +0.013 A 
ATOM     27  C   UNL     1      -3.679  -1.962  -0.743  0.00  0.00    -0.005 A 
ATOM     28  C   UNL     1      -2.495  -2.706  -0.762  0.00  0.00    +0.013 A 
ATOM     29  C   UNL     1      -1.284  -2.066  -0.903  0.00  0.00    +0.046 A 
BRANCH  24  31
ATOM     30  C   UNL     1      -0.061   1.370  -1.262  0.00  0.00    +0.277 C 
ATOM     31  O   UNL     1      -0.038  -0.055  -1.151  0.00  0.00    -0.495 OA
ENDBRANCH  24  31
ENDBRANCH  22  27
ENDBRANCH  18  23
ENDBRANCH   1  19
BRANCH   5  32
ATOM     32  N   UNL     1     -10.098 -10.922   0.456  0.00  0.00    -0.352 N 
ATOM     33  H   UNL     1      -9.979 -11.882   0.531  0.00  0.00    +0.143 HD
ATOM     34  H   UNL     1     -10.990 -10.541   0.481  0.00  0.00    +0.143 HD
ENDBRANCH   5  32
TORSDOF 6
