REMARK  Name = ZINC44972359
REMARK  4 active torsions:
REMARK  status: ('A' for Active; 'I' for Inactive)
REMARK    1  A    between atoms: C_1  and  C_2
REMARK    2  A    between atoms: C_2  and  C_4
REMARK    3  A    between atoms: C_2  and  N_12
REMARK    4  A    between atoms: N_12  and  C_13
REMARK                            x       y       z     vdW  Elec       q    Type
REMARK                         _______ _______ _______ _____ _____    ______ ____
ROOT
ATOM      1  N   UNL     1      -1.407  -0.394   0.099  0.00  0.00    -0.281 N 
ATOM      2  C   UNL     1      -2.248   0.159   1.163  0.00  0.00    +0.134 C 
ATOM      3  C   UNL     1      -1.929  -1.259  -0.793  0.00  0.00    +0.308 C 
ATOM      4  O   UNL     1      -1.230  -1.718  -1.676  0.00  0.00    -0.252 OA
ATOM      5  N   UNL     1      -3.226  -1.615  -0.706  0.00  0.00    -0.247 N 
ATOM      6  C   UNL     1      -3.765  -2.508  -1.627  0.00  0.00    +0.189 A 
ATOM      7  N   UNL     1      -3.178  -3.113  -2.640  0.00  0.00    -0.126 NA
ATOM      8  N   UNL     1      -3.804  -3.907  -3.398  0.00  0.00    -0.148 NA
ATOM      9  C   UNL     1      -5.082  -4.138  -3.169  0.00  0.00    +0.183 A 
ATOM     10  S   UNL     1      -5.338  -3.104  -1.733  0.00  0.00    -0.039 S 
ATOM     11  H   UNL     1      -3.783  -1.249  -0.002  0.00  0.00    +0.158 HD
ENDROOT
BRANCH   1  13
ATOM     12  C   UNL     1       0.109   1.517  -0.077  0.00  0.00    +0.033 C 
ATOM     13  C   UNL     1       0.003  -0.007   0.004  0.00  0.00    +0.107 C 
BRANCH  13  14
ATOM     14  C   UNL     1       0.741  -0.497   1.223  0.00  0.00    +0.011 A 
ATOM     15  C   UNL     1       1.085   0.390   2.226  0.00  0.00    +0.046 A 
ATOM     16  C   UNL     1       1.763  -0.061   3.346  0.00  0.00    +0.124 A 
ATOM     17  C   UNL     1       2.096  -1.400   3.462  0.00  0.00    +0.041 A 
ATOM     18  C   UNL     1       1.753  -2.286   2.459  0.00  0.00    +0.041 A 
ATOM     19  C   UNL     1       1.070  -1.837   1.341  0.00  0.00    +0.128 A 
ATOM     20  F   UNL     1       0.730  -2.704   0.363  0.00  0.00    -0.205 F 
ATOM     21  F   UNL     1       2.099   0.806   4.326  0.00  0.00    -0.205 F 
ENDBRANCH  13  14
ENDBRANCH   1  13
TORSDOF 2
