REMARK  Name = ZINC09831566
REMARK  14 active torsions:
REMARK  status: ('A' for Active; 'I' for Inactive)
REMARK    1  A    between atoms: C_1  and  C_2
REMARK    2  A    between atoms: C_2  and  C_3
REMARK    3  A    between atoms: C_2  and  N_73
REMARK    4  A    between atoms: C_4  and  C_5
REMARK    5  A    between atoms: C_4  and  N_73
REMARK    6  A    between atoms: C_5  and  N_6
REMARK    7  A    between atoms: C_7  and  C_9
REMARK    8  A    between atoms: C_9  and  C_10
REMARK    9  A    between atoms: C_10  and  C_11
REMARK   10  A    between atoms: N_24  and  C_25
REMARK   11  A    between atoms: C_25  and  C_26
REMARK   12  A    between atoms: C_26  and  C_27
REMARK   13  A    between atoms: C_33  and  C_34
REMARK   14  A    between atoms: C_33  and  N_73
REMARK                            x       y       z     vdW  Elec       q    Type
REMARK                         _______ _______ _______ _____ _____    ______ ____
ROOT
ATOM      1  C   UNL     1       4.992  -5.296  -3.028  0.00  0.00    +0.140 A 
ATOM      2  N   UNL     1       5.231  -4.016  -3.108  0.00  0.00    -0.132 NA
ATOM      3  N   UNL     1       4.139  -3.375  -3.329  0.00  0.00    -0.110 NA
ATOM      4  C   UNL     1       3.133  -4.218  -3.402  0.00  0.00    +0.239 A 
ATOM      5  N   UNL     1       3.650  -5.467  -3.213  0.00  0.00    -0.264 N 
ATOM      6  C   UNL     1       2.832  -6.589  -3.233  0.00  0.00    +0.063 A 
ATOM      7  C   UNL     1       3.350  -7.861  -3.042  0.00  0.00    +0.027 A 
ATOM      8  C   UNL     1       2.511  -8.957  -3.070  0.00  0.00    +0.002 A 
ATOM      9  C   UNL     1       1.151  -8.798  -3.287  0.00  0.00    +0.001 A 
ATOM     10  C   UNL     1       0.618  -7.541  -3.478  0.00  0.00    +0.015 A 
ATOM     11  C   UNL     1       1.455  -6.427  -3.453  0.00  0.00    +0.063 A 
ATOM     12  C   UNL     1       0.925  -5.065  -3.650  0.00  0.00    +0.263 A 
ATOM     13  O   UNL     1      -0.263  -4.885  -3.838  0.00  0.00    -0.267 OA
ATOM     14  N   UNL     1       1.782  -4.023  -3.621  0.00  0.00    -0.276 N 
ENDROOT
BRANCH   1  15
ATOM     15  C   UNL     1       6.007  -6.382  -2.779  0.00  0.00    +0.086 C 
BRANCH  15  16
ATOM     16  C   UNL     1       6.442  -6.989  -4.114  0.00  0.00    +0.103 C 
BRANCH  16  18
ATOM     17  N   UNL     1       7.985  -8.755  -4.901  0.00  0.00    -0.317 N 
ATOM     18  C   UNL     1       7.457  -8.075  -3.864  0.00  0.00    +0.213 C 
ATOM     19  O   UNL     1       7.798  -8.338  -2.730  0.00  0.00    -0.276 OA
ATOM     20  H   UNL     1       7.712  -8.545  -5.808  0.00  0.00    +0.149 HD
BRANCH  17  21
ATOM     21  C   UNL     1       8.971  -9.811  -4.659  0.00  0.00    +0.085 C 
BRANCH  21  22
ATOM     22  C   UNL     1       9.407 -10.418  -5.994  0.00  0.00    -0.059 C 
BRANCH  22  23
ATOM     23  N   UNL     1      10.385 -11.495  -5.732  0.00  0.00    +0.387 N 
ATOM     24  H   UNL     1       9.992 -12.140  -5.037  0.00  0.00    -0.081 HD
BRANCH  23  26
ATOM     25  C   UNL     1      12.399 -12.016  -4.449  0.00  0.00    -0.014 C 
ATOM     26  C   UNL     1      11.638 -10.920  -5.198  0.00  0.00    -0.074 C 
ATOM     27  C   UNL     1      12.508 -10.383  -6.337  0.00  0.00    -0.014 C 
ENDBRANCH  23  26
BRANCH  23  28
ATOM     28  C   UNL     1      10.661 -12.241  -6.977  0.00  0.00    -0.003 C 
BRANCH  28  29
ATOM     29  C   UNL     1      11.321 -13.548  -6.622  0.00  0.00    +0.089 A 
ATOM     30  C   UNL     1      10.692 -14.654  -6.186  0.00  0.00    +0.042 A 
ATOM     31  C   UNL     1      11.687 -15.636  -5.976  0.00  0.00    +0.041 A 
ATOM     32  C   UNL     1      12.865 -15.071  -6.295  0.00  0.00    +0.195 A 
ATOM     33  O   UNL     1      12.637 -13.808  -6.692  0.00  0.00    -0.470 OA
ENDBRANCH  28  29
ENDBRANCH  23  28
ENDBRANCH  22  23
ENDBRANCH  21  22
ENDBRANCH  17  21
ENDBRANCH  16  18
ENDBRANCH  15  16
ENDBRANCH   1  15
BRANCH  14  34
ATOM     34  C   UNL     1       1.272  -2.664  -3.819  0.00  0.00    +0.133 C 
BRANCH  34  35
ATOM     35  C   UNL     1       1.306  -2.319  -5.309  0.00  0.00    +0.057 C 
BRANCH  35  36
ATOM     36  C   UNL     1       0.782  -0.921  -5.513  0.00  0.00    -0.046 A 
ATOM     37  C   UNL     1       1.650   0.155  -5.481  0.00  0.00    +0.004 A 
ATOM     38  C   UNL     1       1.168   1.437  -5.668  0.00  0.00    +0.000 A 
ATOM     39  C   UNL     1      -0.181   1.644  -5.887  0.00  0.00    +0.000 A 
ATOM     40  C   UNL     1      -1.048   0.568  -5.920  0.00  0.00    +0.000 A 
ATOM     41  C   UNL     1      -0.567  -0.714  -5.734  0.00  0.00    +0.004 A 
ENDBRANCH  35  36
ENDBRANCH  34  35
ENDBRANCH  14  34
TORSDOF 12
