REMARK  Name = ZINC15969150
REMARK  7 active torsions:
REMARK  status: ('A' for Active; 'I' for Inactive)
REMARK    1  A    between atoms: C_1  and  C_2
REMARK    2  A    between atoms: C_16  and  C_19
REMARK    3  A    between atoms: C_19  and  C_20
REMARK    4  A    between atoms: C_23  and  O_26
REMARK    5  A    between atoms: N_29  and  C_32
REMARK    6  A    between atoms: C_32  and  C_33
REMARK    7  A    between atoms: C_33  and  C_34
REMARK                            x       y       z     vdW  Elec       q    Type
REMARK                         _______ _______ _______ _____ _____    ______ ____
ROOT
ATOM      1  C   UNL     1      -0.018   1.503   0.010  0.00  0.00    +0.046 C 
ATOM      2  C   UNL     1       0.002  -0.004   0.002  0.00  0.00    -0.028 A 
ATOM      3  C   UNL     1       0.006  -0.685  -1.198  0.00  0.00    +0.025 A 
ATOM      4  C   UNL     1       0.024  -2.068  -1.216  0.00  0.00    +0.042 A 
ATOM      5  C   UNL     1       0.040  -2.772  -0.023  0.00  0.00    +0.027 A 
ATOM      6  C   UNL     1       0.036  -2.096   1.176  0.00  0.00    +0.005 A 
ATOM      7  C   UNL     1       0.023  -0.704   1.205  0.00  0.00    +0.042 A 
ATOM      8  N   UNL     1       0.029  -0.249   2.526  0.00  0.00    -0.283 N 
ATOM      9  C   UNL     1       0.052  -1.263   3.413  0.00  0.00    +0.243 C 
ATOM     10  O   UNL     1       0.061  -1.168   4.622  0.00  0.00    -0.273 OA
ATOM     11  C   UNL     1       0.051  -2.537   2.612  0.00  0.00    +0.136 C 
ATOM     12  C   UNL     1      -1.157  -3.421   2.942  0.00  0.00    +0.122 C 
ATOM     13  C   UNL     1      -0.613  -4.468   3.954  0.00  0.00    +0.107 C 
ATOM     14  C   UNL     1       0.876  -4.103   4.137  0.00  0.00    +0.072 C 
ATOM     15  N   UNL     1       1.243  -3.350   2.916  0.00  0.00    -0.295 NA
ATOM     16  C   UNL     1      -1.374  -4.155   5.223  0.00  0.00    +0.227 C 
ATOM     17  O   UNL     1      -1.254  -4.745   6.275  0.00  0.00    -0.275 OA
ATOM     18  N   UNL     1      -2.200  -3.126   5.003  0.00  0.00    -0.241 N 
ATOM     19  C   UNL     1      -2.166  -2.631   3.745  0.00  0.00    +0.228 C 
ATOM     20  O   UNL     1      -2.829  -1.708   3.322  0.00  0.00    -0.275 OA
ATOM     21 CL   UNL     1       0.028  -2.919  -2.729  0.00  0.00    -0.084 Cl
ATOM     22  H   UNL     1       0.018   0.688   2.776  0.00  0.00    +0.155 HD
ATOM     23  H   UNL     1       1.450  -3.985   2.160  0.00  0.00    +0.124 HD
ENDROOT
BRANCH  14  24
ATOM     24  C   UNL     1       1.722  -5.370   4.277  0.00  0.00    +0.054 C 
BRANCH  24  25
ATOM     25  C   UNL     1       3.149  -4.991   4.576  0.00  0.00    -0.046 A 
ATOM     26  C   UNL     1       4.040  -4.783   3.539  0.00  0.00    +0.007 A 
ATOM     27  C   UNL     1       5.349  -4.436   3.811  0.00  0.00    +0.045 A 
ATOM     28  C   UNL     1       5.770  -4.296   5.126  0.00  0.00    +0.117 A 
ATOM     29  C   UNL     1       4.874  -4.505   6.164  0.00  0.00    +0.045 A 
ATOM     30  C   UNL     1       3.565  -4.847   5.887  0.00  0.00    +0.007 A 
BRANCH  28  31
ATOM     31  O   UNL     1       7.058  -3.955   5.396  0.00  0.00    -0.507 OA
ATOM     32  H   UNL     1       7.208  -3.002   5.454  0.00  0.00    +0.292 HD
ENDBRANCH  28  31
ENDBRANCH  24  25
ENDBRANCH  14  24
BRANCH  18  33
ATOM     33  C   UNL     1      -3.079  -2.579   6.041  0.00  0.00    +0.121 C 
BRANCH  33  34
ATOM     34  C   UNL     1      -2.345  -1.470   6.798  0.00  0.00    +0.054 C 
BRANCH  34  35
ATOM     35  C   UNL     1      -3.249  -0.909   7.865  0.00  0.00    -0.046 A 
ATOM     36  C   UNL     1      -4.085   0.153   7.574  0.00  0.00    +0.004 A 
ATOM     37  C   UNL     1      -4.914   0.668   8.553  0.00  0.00    +0.000 A 
ATOM     38  C   UNL     1      -4.907   0.122   9.823  0.00  0.00    +0.000 A 
ATOM     39  C   UNL     1      -4.072  -0.941  10.113  0.00  0.00    +0.000 A 
ATOM     40  C   UNL     1      -3.246  -1.459   9.133  0.00  0.00    +0.004 A 
ENDBRANCH  34  35
ENDBRANCH  33  34
ENDBRANCH  18  33
TORSDOF 6
