REMARK  Name = ZINC36235283
REMARK  7 active torsions:
REMARK  status: ('A' for Active; 'I' for Inactive)
REMARK    1  A    between atoms: C_4  and  C_7
REMARK    2  A    between atoms: N_9  and  C_10
REMARK    3  A    between atoms: C_10  and  C_21
REMARK    4  A    between atoms: C_11  and  C_12
REMARK    5  A    between atoms: N_23  and  N_24
REMARK    6  A    between atoms: C_25  and  C_26
REMARK    7  A    between atoms: C_35  and  O_36
REMARK                            x       y       z     vdW  Elec       q    Type
REMARK                         _______ _______ _______ _____ _____    ______ ____
ROOT
ATOM      1  C   UNL     1       4.888  -2.685  -0.080  0.00  0.00    +0.098 C 
ATOM      2  C   UNL     1       4.873  -4.036   0.017  0.00  0.00    +0.036 C 
ENDROOT
BRANCH   2   3
ATOM      3  C   UNL     1       6.112  -4.766   0.318  0.00  0.00    -0.019 A 
ATOM      4  C   UNL     1       7.100  -4.173   1.114  0.00  0.00    +0.012 A 
ATOM      5  C   UNL     1       8.261  -4.860   1.395  0.00  0.00    +0.050 A 
ATOM      6  C   UNL     1       8.456  -6.139   0.892  0.00  0.00    +0.166 A 
ATOM      7  C   UNL     1       7.476  -6.736   0.097  0.00  0.00    +0.167 A 
ATOM      8  C   UNL     1       6.307  -6.057  -0.185  0.00  0.00    +0.057 A 
ATOM      9  O   UNL     1       7.908  -7.980  -0.266  0.00  0.00    -0.453 OA
ATOM     10  C   UNL     1       9.328  -7.977  -0.029  0.00  0.00    +0.466 C 
ATOM     11  O   UNL     1       9.498  -7.010   1.024  0.00  0.00    -0.453 OA
ENDBRANCH   2   3
BRANCH   1  14
ATOM     12  C   UNL     1       3.710  -0.647  -0.424  0.00  0.00    +0.248 C 
ATOM     13  O   UNL     1       4.765  -0.044  -0.385  0.00  0.00    -0.270 OA
ATOM     14  N   UNL     1       3.689  -1.981  -0.227  0.00  0.00    -0.277 N 
ATOM     15  H   UNL     1       2.842  -2.452  -0.188  0.00  0.00    +0.155 HD
BRANCH  12  19
ATOM     16  C   UNL     1       0.092   1.446  -1.179  0.00  0.00    +0.000 A 
ATOM     17  C   UNL     1       1.291   2.136  -1.135  0.00  0.00    +0.001 A 
ATOM     18  C   UNL     1       2.470   1.462  -0.890  0.00  0.00    +0.013 A 
ATOM     19  C   UNL     1       2.451   0.081  -0.686  0.00  0.00    +0.037 A 
ATOM     20  C   UNL     1       1.238  -0.609  -0.732  0.00  0.00    +0.013 A 
ATOM     21  C   UNL     1       0.067   0.077  -0.977  0.00  0.00    +0.001 A 
ENDBRANCH  12  19
ENDBRANCH   1  14
BRANCH   1  22
ATOM     22  C   UNL     1       6.164  -1.960  -0.030  0.00  0.00    +0.277 C 
ATOM     23  O   UNL     1       6.428  -1.260   0.930  0.00  0.00    -0.267 OA
ATOM     24  N   UNL     1       7.042  -2.070  -1.046  0.00  0.00    -0.202 N 
ATOM     25  H   UNL     1       6.802  -2.569  -1.843  0.00  0.00    +0.178 HD
BRANCH  24  26
ATOM     26  N   UNL     1       8.302  -1.464  -0.952  0.00  0.00    -0.187 NA
ATOM     27  C   UNL     1       9.149  -1.570  -1.933  0.00  0.00    +0.142 C 
BRANCH  27  28
ATOM     28  C   UNL     1      10.470  -0.934  -1.834  0.00  0.00    +0.044 A 
ATOM     29  C   UNL     1      11.432  -1.039  -2.930  0.00  0.00    -0.006 A 
ATOM     30  C   UNL     1      11.131  -1.742  -4.102  0.00  0.00    +0.009 A 
ATOM     31  C   UNL     1      12.057  -1.815  -5.101  0.00  0.00    +0.001 A 
ATOM     32  C   UNL     1      13.299  -1.199  -4.970  0.00  0.00    +0.001 A 
ATOM     33  C   UNL     1      13.625  -0.508  -3.843  0.00  0.00    +0.008 A 
ATOM     34  C   UNL     1      12.694  -0.411  -2.794  0.00  0.00    -0.017 A 
ATOM     35  C   UNL     1      12.995   0.296  -1.616  0.00  0.00    +0.012 A 
ATOM     36  C   UNL     1      12.088   0.383  -0.607  0.00  0.00    +0.046 A 
ATOM     37  C   UNL     1      10.831  -0.213  -0.696  0.00  0.00    +0.126 A 
BRANCH  37  38
ATOM     38  O   UNL     1       9.954  -0.096   0.334  0.00  0.00    -0.506 OA
ATOM     39  H   UNL     1      10.027  -0.798   0.995  0.00  0.00    +0.292 HD
ENDBRANCH  37  38
ENDBRANCH  27  28
ENDBRANCH  24  26
ENDBRANCH   1  22
TORSDOF 7
