REMARK  Name = ZINC53554977
REMARK  8 active torsions:
REMARK  status: ('A' for Active; 'I' for Inactive)
REMARK    1  A    between atoms: C_1  and  C_2
REMARK    2  A    between atoms: C_2  and  C_4
REMARK    3  A    between atoms: C_2  and  N_13
REMARK    4  A    between atoms: C_7  and  C_10
REMARK    5  A    between atoms: C_10  and  C_11
REMARK    6  A    between atoms: C_10  and  C_12
REMARK    7  A    between atoms: N_18  and  C_19
REMARK    8  A    between atoms: N_26  and  C_27
REMARK                            x       y       z     vdW  Elec       q    Type
REMARK                         _______ _______ _______ _____ _____    ______ ____
ROOT
ATOM      1  N   UNL     1      -1.372  -0.511   0.012  0.00  0.00    -0.308 N 
ATOM      2  C   UNL     1      -2.065  -0.645  -1.169  0.00  0.00    +0.198 A 
ATOM      3  N   UNL     1      -1.594  -0.356  -2.365  0.00  0.00    -0.196 NA
ATOM      4  C   UNL     1      -2.522  -0.601  -3.291  0.00  0.00    +0.170 A 
ATOM      5  C   UNL     1      -3.653  -1.076  -2.637  0.00  0.00    +0.152 A 
ATOM      6  N   UNL     1      -3.340  -1.103  -1.284  0.00  0.00    -0.309 N 
ATOM      7  C   UNL     1      -4.215  -1.537  -0.193  0.00  0.00    +0.152 C 
ATOM      8  C   UNL     1      -4.791  -1.415  -3.390  0.00  0.00    +0.280 A 
ATOM      9  O   UNL     1      -5.794  -1.833  -2.837  0.00  0.00    -0.265 OA
ATOM     10  N   UNL     1      -4.762  -1.271  -4.731  0.00  0.00    -0.273 N 
ATOM     11  H   UNL     1      -5.545  -1.503  -5.254  0.00  0.00    +0.173 HD
ATOM     12  C   UNL     1      -3.663  -0.811  -5.354  0.00  0.00    +0.331 A 
ATOM     13  O   UNL     1      -3.673  -0.694  -6.565  0.00  0.00    -0.246 OA
ATOM     14  N   UNL     1      -2.553  -0.476  -4.671  0.00  0.00    -0.280 N 
ATOM     15  C   UNL     1      -1.375   0.023  -5.387  0.00  0.00    +0.155 C 
ATOM     16  H   UNL     1      -1.794  -0.752   0.852  0.00  0.00    +0.149 HD
ENDROOT
BRANCH   1  18
ATOM     17  C   UNL     1      -0.019   1.526   0.010  0.00  0.00    +0.033 C 
ATOM     18  C   UNL     1       0.002  -0.004   0.002  0.00  0.00    +0.100 C 
BRANCH  18  19
ATOM     19  C   UNL     1       0.731  -0.503   1.223  0.00  0.00    -0.027 A 
ATOM     20  C   UNL     1       0.081  -0.558   2.442  0.00  0.00    +0.006 A 
ATOM     21  C   UNL     1       0.749  -1.016   3.562  0.00  0.00    +0.004 A 
ATOM     22  C   UNL     1       2.068  -1.420   3.463  0.00  0.00    -0.045 A 
ATOM     23  C   UNL     1       2.718  -1.365   2.244  0.00  0.00    +0.004 A 
ATOM     24  C   UNL     1       2.048  -0.911   1.123  0.00  0.00    +0.006 A 
BRANCH  22  25
ATOM     25  C   UNL     1       2.797  -1.918   4.684  0.00  0.00    +0.013 C 
ATOM     26  C   UNL     1       3.262  -3.357   4.449  0.00  0.00    +0.012 C 
ATOM     27  C   UNL     1       4.012  -1.027   4.951  0.00  0.00    +0.012 C 
ENDBRANCH  22  25
ENDBRANCH  18  19
ENDBRANCH   1  18
TORSDOF 3
