REMARK  Name = ZINC15674284
REMARK  7 active torsions:
REMARK  status: ('A' for Active; 'I' for Inactive)
REMARK    1  A    between atoms: C_3  and  O_23
REMARK    2  A    between atoms: C_6  and  C_7
REMARK    3  A    between atoms: C_9  and  C_12
REMARK    4  A    between atoms: C_15  and  O_22
REMARK    5  A    between atoms: C_18  and  C_19
REMARK    6  A    between atoms: C_18  and  N_44
REMARK    7  A    between atoms: O_23  and  C_24
REMARK                            x       y       z     vdW  Elec       q    Type
REMARK                         _______ _______ _______ _____ _____    ______ ____
ROOT
ATOM      1  C   UNL     1      -2.842  -4.720  -0.524  0.00  0.00    +0.202 A 
ATOM      2  N   UNL     1      -2.920  -3.681   0.337  0.00  0.00    -0.193 NA
ATOM      3  C   UNL     1      -1.789  -3.033   0.210  0.00  0.00    +0.214 A 
ATOM      4  O   UNL     1      -1.061  -3.686  -0.702  0.00  0.00    -0.339 OA
ATOM      5  N   UNL     1      -1.675  -4.648  -1.112  0.00  0.00    -0.056 NA
ENDROOT
BRANCH   1  11
ATOM      6  C   UNL     1      -5.081  -5.707  -0.047  0.00  0.00    +0.015 A 
ATOM      7  C   UNL     1      -6.048  -6.665  -0.266  0.00  0.00    +0.046 A 
ATOM      8  C   UNL     1      -5.822  -7.683  -1.184  0.00  0.00    +0.130 A 
ATOM      9  C   UNL     1      -4.625  -7.735  -1.886  0.00  0.00    +0.046 A 
ATOM     10  C   UNL     1      -3.658  -6.776  -1.675  0.00  0.00    +0.015 A 
ATOM     11  C   UNL     1      -3.881  -5.753  -0.754  0.00  0.00    +0.023 A 
BRANCH   8  12
ATOM     12  O   UNL     1      -6.773  -8.629  -1.394  0.00  0.00    -0.406 OA
BRANCH  12  13
ATOM     13  C   UNL     1      -7.981  -8.515  -0.638  0.00  0.00    +0.575 C 
ATOM     14  F   UNL     1      -8.597  -7.292  -0.925  0.00  0.00    -0.133 F 
ATOM     15  F   UNL     1      -8.844  -9.562  -0.976  0.00  0.00    -0.133 F 
ATOM     16  F   UNL     1      -7.683  -8.578   0.728  0.00  0.00    -0.133 F 
ENDBRANCH  12  13
ENDBRANCH   8  12
ENDBRANCH   1  11
BRANCH   3  17
ATOM     17  C   UNL     1      -1.382  -1.788   0.955  0.00  0.00    +0.025 C 
ATOM     18  C   UNL     1      -1.436  -0.571   0.013  0.00  0.00    +0.023 C 
ATOM     19  C   UNL     1       0.002  -0.004   0.002  0.00  0.00    +0.097 C 
ATOM     20  C   UNL     1       0.600  -0.552   1.322  0.00  0.00    -0.046 C 
ATOM     21  N   UNL     1       0.012  -1.894   1.402  0.00  0.00    +0.389 N 
ATOM     22  H   UNL     1       0.526  -2.534   0.786  0.00  0.00    -0.081 HD
BRANCH  19  23
ATOM     23  O   UNL     1      -0.017   1.425   0.010  0.00  0.00    -0.394 OA
ATOM     24  H   UNL     1       0.861   1.830   0.004  0.00  0.00    +0.210 HD
ENDBRANCH  19  23
BRANCH  21  25
ATOM     25  C   UNL     1       0.068  -2.410   2.803  0.00  0.00    -0.074 C 
BRANCH  25  26
ATOM     26  C   UNL     1       1.512  -2.763   3.164  0.00  0.00    -0.028 C 
ATOM     27  C   UNL     1       1.823  -4.228   3.481  0.00  0.00    +0.002 C 
ATOM     28  C   UNL     1       1.795  -3.190   4.605  0.00  0.00    +0.002 C 
ENDBRANCH  25  26
ENDBRANCH  21  25
ENDBRANCH   3  17
TORSDOF 7
