REMARK  Name = ZINC39984331
REMARK  3 active torsions:
REMARK  status: ('A' for Active; 'I' for Inactive)
REMARK    1  A    between atoms: C_3  and  C_6
REMARK    2  A    between atoms: C_9  and  C_12
REMARK    3  A    between atoms: C_15  and  C_18
REMARK                            x       y       z     vdW  Elec       q    Type
REMARK                         _______ _______ _______ _____ _____    ______ ____
ROOT
ATOM      1  C   UNL     1       3.733   1.823  -0.024  0.00  0.00    +0.175 C 
ATOM      2  N   UNL     1       4.065   3.076  -0.015  0.00  0.00    -0.066 NA
ATOM      3  O   UNL     1       5.472   3.226  -0.030  0.00  0.00    -0.367 OA
ATOM      4  C   UNL     1       6.025   1.901  -0.050  0.00  0.00    +0.322 C 
ATOM      5  N   UNL     1       4.854   1.010  -0.039  0.00  0.00    -0.287 N 
ATOM      6  H   UNL     1       4.865   0.041  -0.044  0.00  0.00    +0.151 HD
ENDROOT
BRANCH   1   9
ATOM      7  C   UNL     1      -0.016   1.355   0.009  0.00  0.00    +0.008 A 
ATOM      8  C   UNL     1       1.175   2.042   0.002  0.00  0.00    +0.019 A 
ATOM      9  C   UNL     1       2.347   1.329  -0.013  0.00  0.00    +0.055 A 
ATOM     10  S   UNL     1       1.752  -0.355  -0.017  0.00  0.00    -0.094 S 
ATOM     11  C   UNL     1       0.002  -0.004   0.002  0.00  0.00    +0.046 A 
ENDBRANCH   1   9
BRANCH   4  12
ATOM     12  C   UNL     1       6.885   1.663   1.194  0.00  0.00    +0.214 C 
ATOM     13  C   UNL     1       8.016   2.674   1.266  0.00  0.00    +0.032 C 
ATOM     14  C   UNL     1       7.784   3.335   2.402  0.00  0.00    +0.065 C 
ATOM     15  N   UNL     1       6.676   2.862   3.015  0.00  0.00    -0.158 NA
ATOM     16  N   UNL     1       6.114   1.935   2.419  0.00  0.00    -0.174 NA
BRANCH  14  17
ATOM     17  C   UNL     1       8.640   4.457   2.929  0.00  0.00    +0.039 C 
ATOM     18  C   UNL     1       8.345   4.968   4.341  0.00  0.00    +0.010 C 
ATOM     19  C   UNL     1       7.975   5.821   3.126  0.00  0.00    +0.010 C 
ENDBRANCH  14  17
ENDBRANCH   4  12
TORSDOF 3
