REMARK  Name = ZINC15970409
REMARK  10 active torsions:
REMARK  status: ('A' for Active; 'I' for Inactive)
REMARK    1  A    between atoms: C_1  and  C_2
REMARK    2  A    between atoms: C_2  and  C_3
REMARK    3  A    between atoms: C_3  and  C_4
REMARK    4  A    between atoms: C_4  and  C_5
REMARK    5  A    between atoms: C_5  and  C_6
REMARK    6  A    between atoms: C_6  and  N_7
REMARK    7  A    between atoms: C_8  and  C_10
REMARK    8  A    between atoms: C_10  and  C_12
REMARK    9  A    between atoms: C_10  and  N_13
REMARK   10  A    between atoms: C_14  and  C_16
REMARK                            x       y       z     vdW  Elec       q    Type
REMARK                         _______ _______ _______ _____ _____    ______ ____
ROOT
ATOM      1  C   UNL     1      -0.102   0.563  12.242  0.00  0.00    +0.167 C 
ATOM      2  C   UNL     1       1.123   1.448  12.515  0.00  0.00    +0.069 C 
ATOM      3  C   UNL     1       1.557   1.311  13.952  0.00  0.00    -0.015 A 
ATOM      4  C   UNL     1       2.820   1.732  14.531  0.00  0.00    +0.003 A 
ATOM      5  C   UNL     1       3.953   2.341  13.981  0.00  0.00    +0.010 A 
ATOM      6  C   UNL     1       4.992   2.605  14.839  0.00  0.00    +0.001 A 
ATOM      7  C   UNL     1       4.932   2.286  16.186  0.00  0.00    +0.002 A 
ATOM      8  C   UNL     1       3.825   1.683  16.756  0.00  0.00    +0.026 A 
ATOM      9  C   UNL     1       2.754   1.403  15.908  0.00  0.00    +0.047 A 
ATOM     10  N   UNL     1       1.536   0.829  16.130  0.00  0.00    -0.356 N 
ATOM     11  H   UNL     1       1.217   0.510  16.989  0.00  0.00    +0.166 HD
ATOM     12  C   UNL     1       0.832   0.771  14.958  0.00  0.00    +0.046 A 
ATOM     13  C   UNL     1      -0.549   0.196  14.758  0.00  0.00    +0.155 C 
ATOM     14  N   UNL     1      -0.982   0.642  13.413  0.00  0.00    -0.273 N 
ATOM     15  C   UNL     1      -2.226   1.128  13.505  0.00  0.00    +0.248 C 
ATOM     16  O   UNL     1      -2.947   1.391  12.562  0.00  0.00    -0.270 OA
ATOM     17  C   UNL     1      -2.585   1.298  14.917  0.00  0.00    +0.042 A 
ATOM     18  C   UNL     1      -1.550   0.759  15.707  0.00  0.00    -0.009 A 
ATOM     19  C   UNL     1      -1.592   0.813  17.082  0.00  0.00    +0.006 A 
ATOM     20  C   UNL     1      -2.708   1.411  17.659  0.00  0.00    +0.000 A 
ATOM     21  C   UNL     1      -3.733   1.929  16.894  0.00  0.00    +0.001 A 
ATOM     22  C   UNL     1      -3.704   1.890  15.508  0.00  0.00    +0.013 A 
ENDROOT
BRANCH   1  24
ATOM     23  N   UNL     1      -0.827   0.332   9.889  0.00  0.00    -0.303 N 
ATOM     24  C   UNL     1      -0.831   1.062  11.021  0.00  0.00    +0.235 C 
ATOM     25  O   UNL     1      -1.420   2.121  11.058  0.00  0.00    -0.274 OA
ATOM     26  H   UNL     1      -0.355  -0.516   9.859  0.00  0.00    +0.149 HD
BRANCH  23  27
ATOM     27  C   UNL     1      -1.536   0.817   8.702  0.00  0.00    +0.156 C 
ATOM     28  C   UNL     1      -0.627   1.766   7.918  0.00  0.00    +0.038 C 
BRANCH  27  30
ATOM     29  N   UNL     1      -2.577  -0.145   6.675  0.00  0.00    -0.314 N 
ATOM     30  C   UNL     1      -1.913  -0.352   7.829  0.00  0.00    +0.233 C 
ATOM     31  O   UNL     1      -1.619  -1.480   8.165  0.00  0.00    -0.274 OA
ATOM     32  H   UNL     1      -2.812   0.757   6.406  0.00  0.00    +0.149 HD
BRANCH  29  33
ATOM     33  C   UNL     1      -2.944  -1.281   5.826  0.00  0.00    +0.104 C 
BRANCH  33  34
ATOM     34  C   UNL     1      -3.684  -0.774   4.587  0.00  0.00    +0.019 C 
BRANCH  34  35
ATOM     35  C   UNL     1      -4.067  -1.961   3.700  0.00  0.00    +0.002 C 
BRANCH  35  36
ATOM     36  C   UNL     1      -4.807  -1.455   2.461  0.00  0.00    -0.000 C 
BRANCH  36  38
ATOM     37  C   UNL     1      -5.929  -2.135   0.335  0.00  0.00    +0.004 C 
ATOM     38  C   UNL     1      -5.189  -2.642   1.575  0.00  0.00    -0.003 C 
ENDBRANCH  36  38
ENDBRANCH  35  36
ENDBRANCH  34  35
ENDBRANCH  33  34
ENDBRANCH  29  33
ENDBRANCH  27  30
ENDBRANCH  23  27
ENDBRANCH   1  24
TORSDOF 8
