REMARK  Name = ZINC31487277
REMARK  8 active torsions:
REMARK  status: ('A' for Active; 'I' for Inactive)
REMARK    1  A    between atoms: C_1  and  C_2
REMARK    2  A    between atoms: N_5  and  C_8
REMARK    3  A    between atoms: C_8  and  C_10
REMARK    4  A    between atoms: C_8  and  C_28
REMARK    5  A    between atoms: C_10  and  N_11
REMARK    6  A    between atoms: C_12  and  C_14
REMARK    7  A    between atoms: C_14  and  N_15
REMARK    8  A    between atoms: C_16  and  C_18
REMARK                            x       y       z     vdW  Elec       q    Type
REMARK                         _______ _______ _______ _____ _____    ______ ____
ROOT
ATOM      1  N   UNL     1      -0.175   1.285   0.709  0.00  0.00    -0.315 N 
ATOM      2  C   UNL     1       0.800   2.105   1.148  0.00  0.00    +0.230 C 
ATOM      3  O   UNL     1       0.550   3.266   1.395  0.00  0.00    -0.274 OA
ATOM      4  H   UNL     1       0.051   0.231   0.489  0.00  0.00    +0.149 HD
ENDROOT
BRANCH   1   5
ATOM      5  C   UNL     1      -1.535   1.796   0.525  0.00  0.00    +0.094 C 
BRANCH   5   6
ATOM      6  C   UNL     1      -2.439   0.671   0.017  0.00  0.00    -0.013 C 
BRANCH   6  11
ATOM      7  C   UNL     1      -3.034  -3.541   3.835  0.00  0.00    +0.007 C 
ATOM      8  C   UNL     1      -3.297  -2.325   2.945  0.00  0.00    -0.018 C 
ATOM      9  C   UNL     1      -3.155  -2.727   1.474  0.00  0.00    -0.015 C 
ATOM     10  C   UNL     1      -3.359  -1.493   0.591  0.00  0.00    -0.078 C 
ATOM     11  N   UNL     1      -2.362  -0.472   0.937  0.00  0.00    +0.386 N 
ATOM     12  C   UNL     1      -2.510  -0.036   2.332  0.00  0.00    -0.078 C 
ATOM     13  C   UNL     1      -2.281  -1.226   3.266  0.00  0.00    -0.015 C 
ATOM     14  H   UNL     1      -1.366  -0.926   0.832  0.00  0.00    -0.081 HD
ENDBRANCH   6  11
BRANCH   6  15
ATOM     15  C   UNL     1      -3.861   1.163  -0.055  0.00  0.00    -0.022 A 
ATOM     16  C   UNL     1      -4.610   1.454  -1.147  0.00  0.00    +0.009 A 
ATOM     17  C   UNL     1      -5.908   1.895  -0.972  0.00  0.00    +0.008 A 
ATOM     18  C   UNL     1      -6.394   2.024   0.286  0.00  0.00    +0.045 A 
ATOM     19  S   UNL     1      -5.001   1.508   1.276  0.00  0.00    -0.103 S 
ENDBRANCH   6  15
ENDBRANCH   5   6
ENDBRANCH   1   5
BRANCH   2  20
ATOM     20  C   UNL     1       2.201   1.581   1.331  0.00  0.00    +0.200 C 
BRANCH  20  21
ATOM     21  N   UNL     1       3.068   2.659   1.812  0.00  0.00    -0.306 N 
ATOM     22  C   UNL     1       4.373   2.420   2.049  0.00  0.00    +0.220 C 
ATOM     23  O   UNL     1       4.830   1.313   1.863  0.00  0.00    -0.275 OA
ATOM     24  H   UNL     1       2.653   3.664   1.981  0.00  0.00    +0.149 HD
BRANCH  22  25
ATOM     25  C   UNL     1       5.264   3.530   2.544  0.00  0.00    +0.048 C 
ATOM     26  C   UNL     1       5.276   4.669   1.522  0.00  0.00    +0.019 C 
ATOM     27  C   UNL     1       6.181   5.796   2.025  0.00  0.00    -0.009 C 
ATOM     28  C   UNL     1       7.603   5.263   2.211  0.00  0.00    +0.007 C 
ATOM     29  C   UNL     1       7.591   4.124   3.232  0.00  0.00    -0.009 C 
ATOM     30  C   UNL     1       6.686   2.997   2.730  0.00  0.00    +0.019 C 
ATOM     31  C   UNL     1       7.062   4.644   4.571  0.00  0.00    +0.007 C 
ATOM     32  C   UNL     1       5.640   5.177   4.385  0.00  0.00    -0.009 C 
ATOM     33  C   UNL     1       5.652   6.316   3.363  0.00  0.00    +0.007 C 
ATOM     34  C   UNL     1       4.735   4.050   3.882  0.00  0.00    +0.019 C 
ENDBRANCH  22  25
ENDBRANCH  20  21
ENDBRANCH   2  20
TORSDOF 7
