REMARK  Name = ZINC64793957
REMARK  7 active torsions:
REMARK  status: ('A' for Active; 'I' for Inactive)
REMARK    1  A    between atoms: C_4  and  N_32
REMARK    2  A    between atoms: C_5  and  C_10
REMARK    3  A    between atoms: C_13  and  S_22
REMARK    4  A    between atoms: N_14  and  C_15
REMARK    5  A    between atoms: S_22  and  C_23
REMARK    6  A    between atoms: C_23  and  C_24
REMARK    7  A    between atoms: N_26  and  C_27
REMARK                            x       y       z     vdW  Elec       q    Type
REMARK                         _______ _______ _______ _____ _____    ______ ____
ROOT
ATOM      1  C   UNL     1       6.225   1.346  -0.049  0.00  0.00    +0.178 A 
ATOM      2  N   UNL     1       6.776   2.542  -0.043  0.00  0.00    -0.127 NA
ATOM      3  N   UNL     1       8.056   2.436  -0.057  0.00  0.00    -0.122 NA
ATOM      4  C   UNL     1       8.408   1.171  -0.074  0.00  0.00    +0.197 A 
ATOM      5  N   UNL     1       7.256   0.429  -0.064  0.00  0.00    -0.270 N 
ENDROOT
BRANCH   1  10
ATOM      6  C   UNL     1      -0.017   1.382   0.010  0.00  0.00    +0.020 A 
ATOM      7  C   UNL     1       1.160   2.094   0.002  0.00  0.00    +0.014 A 
ATOM      8  C   UNL     1       2.389   1.389  -0.013  0.00  0.00    +0.029 A 
ATOM      9  C   UNL     1       3.743   1.919  -0.023  0.00  0.00    +0.052 A 
ATOM     10  C   UNL     1       4.788   1.045  -0.037  0.00  0.00    +0.080 A 
ATOM     11  S   UNL     1       3.994  -0.551  -0.038  0.00  0.00    -0.064 S 
ATOM     12  C   UNL     1       2.299  -0.022  -0.020  0.00  0.00    +0.111 A 
ATOM     13  N   UNL     1       1.149  -0.657  -0.013  0.00  0.00    -0.248 NA
ATOM     14  C   UNL     1       0.002  -0.004   0.002  0.00  0.00    +0.112 A 
BRANCH   9  15
ATOM     15  N   UNL     1       3.969   3.301  -0.018  0.00  0.00    -0.356 N 
ATOM     16  H   UNL     1       3.219   3.916  -0.008  0.00  0.00    +0.142 HD
ATOM     17  H   UNL     1       4.877   3.644  -0.025  0.00  0.00    +0.142 HD
ENDBRANCH   9  15
ENDBRANCH   1  10
BRANCH   5  18
ATOM     18  C   UNL     1       7.148  -0.970  -0.069  0.00  0.00    +0.051 A 
ATOM     19  C   UNL     1       6.593  -1.628   1.020  0.00  0.00    +0.029 A 
ATOM     20  C   UNL     1       6.487  -3.005   1.012  0.00  0.00    +0.040 A 
ATOM     21  C   UNL     1       6.934  -3.729  -0.081  0.00  0.00    +0.124 A 
ATOM     22  C   UNL     1       7.488  -3.074  -1.167  0.00  0.00    +0.040 A 
ATOM     23  C   UNL     1       7.590  -1.696  -1.166  0.00  0.00    +0.029 A 
ATOM     24  F   UNL     1       6.830  -5.076  -0.086  0.00  0.00    -0.205 F 
ENDBRANCH   5  18
BRANCH   4  25
ATOM     25  S   UNL     1      10.055   0.545  -0.098  0.00  0.00    -0.076 S 
BRANCH  25  26
ATOM     26  C   UNL     1      11.091   2.034  -0.092  0.00  0.00    +0.173 C 
BRANCH  26  27
ATOM     27  C   UNL     1      12.544   1.635  -0.112  0.00  0.00    +0.224 C 
ATOM     28  O   UNL     1      12.850   0.462  -0.128  0.00  0.00    -0.275 OA
ATOM     29  N   UNL     1      13.502   2.582  -0.112  0.00  0.00    -0.312 N 
ATOM     30  H   UNL     1      13.257   3.521  -0.099  0.00  0.00    +0.149 HD
BRANCH  29  31
ATOM     31  C   UNL     1      14.915   2.195  -0.131  0.00  0.00    +0.073 C 
ATOM     32  C   UNL     1      15.395   2.017  -1.586  0.00  0.00    +0.022 C 
ATOM     33  C   UNL     1      16.044   3.379  -1.940  0.00  0.00    +0.002 C 
ATOM     34  C   UNL     1      16.750   3.775  -0.620  0.00  0.00    +0.002 C 
ATOM     35  C   UNL     1      15.777   3.312   0.484  0.00  0.00    +0.022 C 
ENDBRANCH  29  31
ENDBRANCH  26  27
ENDBRANCH  25  26
ENDBRANCH   4  25
TORSDOF 7
