REMARK  Name = ZINC12479624
REMARK  13 active torsions:
REMARK  status: ('A' for Active; 'I' for Inactive)
REMARK    1  A    between atoms: C_1  and  C_2
REMARK    2  A    between atoms: C_5  and  C_8
REMARK    3  A    between atoms: C_8  and  C_10
REMARK    4  A    between atoms: C_8  and  N_18
REMARK    5  A    between atoms: N_12  and  C_13
REMARK    6  A    between atoms: C_13  and  C_14
REMARK    7  A    between atoms: C_14  and  C_15
REMARK    8  A    between atoms: C_15  and  C_16
REMARK    9  A    between atoms: C_15  and  C_17
REMARK   10  A    between atoms: N_18  and  C_19
REMARK   11  A    between atoms: C_26  and  C_28
REMARK   12  A    between atoms: C_29  and  N_36
REMARK   13  A    between atoms: C_30  and  C_33
REMARK                            x       y       z     vdW  Elec       q    Type
REMARK                         _______ _______ _______ _____ _____    ______ ____
ROOT
ATOM      1  N   UNL     1      -1.343   3.427   0.922  0.00  0.00    -0.251 N 
ATOM      2  C   UNL     1      -2.546   3.688   1.471  0.00  0.00    +0.262 C 
ATOM      3  O   UNL     1      -3.539   3.120   1.056  0.00  0.00    -0.269 OA
ENDROOT
BRANCH   1   4
ATOM      4  C   UNL     1      -0.186   3.994   1.470  0.00  0.00    +0.038 A 
ATOM      5  C   UNL     1       0.652   3.227   2.268  0.00  0.00    +0.025 A 
ATOM      6  C   UNL     1       1.795   3.787   2.804  0.00  0.00    +0.022 A 
ATOM      7  C   UNL     1       2.100   5.114   2.554  0.00  0.00    +0.041 A 
ATOM      8  C   UNL     1       1.263   5.881   1.763  0.00  0.00    +0.022 A 
ATOM      9  C   UNL     1       0.121   5.325   1.220  0.00  0.00    +0.025 A 
ATOM     10 CL   UNL     1       3.534   5.816   3.234  0.00  0.00    -0.084 Cl
ENDBRANCH   1   4
BRANCH   2  11
ATOM     11  C   UNL     1      -2.657   4.653   2.566  0.00  0.00    +0.116 A 
ATOM     12  C   UNL     1      -3.801   5.158   3.188  0.00  0.00    +0.076 A 
ATOM     13  C   UNL     1      -3.500   6.065   4.204  0.00  0.00    +0.155 A 
ATOM     14  N   UNL     1      -2.243   6.352   4.458  0.00  0.00    -0.203 NA
ATOM     15  S   UNL     1      -1.371   5.505   3.455  0.00  0.00    +0.019 S 
BRANCH  13  16
ATOM     16  C   UNL     1      -4.581   6.701   4.979  0.00  0.00    +0.262 C 
ATOM     17  O   UNL     1      -5.742   6.431   4.737  0.00  0.00    -0.269 OA
ATOM     18  N   UNL     1      -4.283   7.581   5.955  0.00  0.00    -0.324 N 
ATOM     19  H   UNL     1      -3.357   7.796   6.147  0.00  0.00    +0.145 HD
ATOM     20  H   UNL     1      -4.994   7.999   6.465  0.00  0.00    +0.145 HD
ENDBRANCH  13  16
BRANCH  12  21
ATOM     21  N   UNL     1      -5.094   4.795   2.836  0.00  0.00    -0.355 N 
ATOM     22  H   UNL     1      -5.241   4.156   2.121  0.00  0.00    +0.142 HD
ATOM     23  H   UNL     1      -5.851   5.179   3.305  0.00  0.00    +0.142 HD
ENDBRANCH  12  21
ENDBRANCH   2  11
BRANCH   1  24
ATOM     24  C   UNL     1      -1.246   2.551  -0.248  0.00  0.00    +0.197 C 
BRANCH  24  29
ATOM     25  C   UNL     1       4.313   1.545  -1.465  0.00  0.00    +0.044 C 
ATOM     26  C   UNL     1       2.864   1.808  -1.146  0.00  0.00    -0.050 A 
ATOM     27  C   UNL     1       2.014   0.752  -0.874  0.00  0.00    +0.004 A 
ATOM     28  C   UNL     1       0.685   0.993  -0.581  0.00  0.00    +0.006 A 
ATOM     29  C   UNL     1       0.205   2.289  -0.561  0.00  0.00    -0.018 A 
ATOM     30  C   UNL     1       1.056   3.345  -0.832  0.00  0.00    +0.006 A 
ATOM     31  C   UNL     1       2.385   3.104  -1.125  0.00  0.00    +0.004 A 
ENDBRANCH  24  29
BRANCH  24  32
ATOM     32  C   UNL     1      -1.901   3.218  -1.430  0.00  0.00    +0.238 C 
ATOM     33  O   UNL     1      -2.401   4.316  -1.307  0.00  0.00    -0.273 OA
ATOM     34  N   UNL     1      -1.933   2.593  -2.624  0.00  0.00    -0.313 N 
ATOM     35  H   UNL     1      -1.534   1.714  -2.722  0.00  0.00    +0.149 HD
BRANCH  34  36
ATOM     36  C   UNL     1      -2.571   3.240  -3.773  0.00  0.00    +0.104 C 
BRANCH  36  37
ATOM     37  C   UNL     1      -2.469   2.326  -4.995  0.00  0.00    +0.022 C 
BRANCH  37  38
ATOM     38  C   UNL     1      -3.135   3.002  -6.195  0.00  0.00    -0.016 C 
ATOM     39  C   UNL     1      -2.925   2.145  -7.445  0.00  0.00    +0.007 C 
ATOM     40  C   UNL     1      -4.634   3.155  -5.927  0.00  0.00    +0.007 C 
ENDBRANCH  37  38
ENDBRANCH  36  37
ENDBRANCH  34  36
ENDBRANCH  24  32
ENDBRANCH   1  24
TORSDOF 10
