REMARK  Name = ZINC12032473
REMARK  6 active torsions:
REMARK  status: ('A' for Active; 'I' for Inactive)
REMARK    1  A    between atoms: C_1  and  C_2
REMARK    2  A    between atoms: C_2  and  C_10
REMARK    3  A    between atoms: C_3  and  C_4
REMARK    4  A    between atoms: N_14  and  N_18
REMARK    5  A    between atoms: C_19  and  C_21
REMARK    6  A    between atoms: C_26  and  O_27
REMARK                            x       y       z     vdW  Elec       q    Type
REMARK                         _______ _______ _______ _____ _____    ______ ____
ROOT
ATOM      1  C   UNL     1       0.023  -0.429   1.383  0.00  0.00    +0.023 C 
ATOM      2  C   UNL     1       0.039   0.270   2.555  0.00  0.00    +0.081 C 
ATOM      3  C   UNL     1       0.111   1.725   2.780  0.00  0.00    +0.277 C 
ATOM      4  O   UNL     1       0.169   2.513   1.853  0.00  0.00    -0.267 OA
ATOM      5  N   UNL     1       0.110   2.132   4.038  0.00  0.00    -0.141 N 
ATOM      6  C   UNL     1       0.045   1.256   5.061  0.00  0.00    +0.303 C 
ATOM      7  O   UNL     1       0.035   1.489   6.255  0.00  0.00    -0.260 OA
ATOM      8  S   UNL     1      -0.030  -0.327   4.239  0.00  0.00    -0.024 S 
ENDROOT
BRANCH   5   9
ATOM      9  N   UNL     1       0.177   3.504   4.314  0.00  0.00    -0.220 N 
ATOM     10  C   UNL     1      -0.925   4.164   4.722  0.00  0.00    +0.264 C 
ATOM     11  O   UNL     1      -1.977   3.569   4.851  0.00  0.00    -0.269 OA
ATOM     12  H   UNL     1       1.016   3.979   4.211  0.00  0.00    +0.174 HD
BRANCH  10  13
ATOM     13  C   UNL     1      -0.855   5.609   5.013  0.00  0.00    +0.079 A 
ATOM     14  C   UNL     1       0.354   6.296   4.872  0.00  0.00    +0.017 A 
ATOM     15  C   UNL     1       0.412   7.646   5.140  0.00  0.00    +0.001 A 
ATOM     16  C   UNL     1      -0.721   8.325   5.560  0.00  0.00    +0.004 A 
ATOM     17  C   UNL     1      -1.920   7.657   5.709  0.00  0.00    +0.046 A 
ATOM     18  C   UNL     1      -1.998   6.299   5.438  0.00  0.00    +0.129 A 
BRANCH  18  19
ATOM     19  O   UNL     1      -3.175   5.641   5.584  0.00  0.00    -0.506 OA
ATOM     20  H   UNL     1      -3.312   5.272   6.467  0.00  0.00    +0.292 HD
ENDBRANCH  18  19
ENDBRANCH  10  13
ENDBRANCH   5   9
BRANCH   1  22
ATOM     21  C   UNL     1      -0.812   0.133  -0.933  0.00  0.00    +0.044 C 
ATOM     22  C   UNL     1       0.220   0.241   0.160  0.00  0.00    -0.049 C 
ATOM     23  C   UNL     1       1.336   0.983  -0.034  0.00  0.00    +0.011 C 
BRANCH  23  24
ATOM     24  C   UNL     1       1.465   1.816  -1.239  0.00  0.00    -0.025 A 
ATOM     25  C   UNL     1       2.727   2.065  -1.789  0.00  0.00    +0.008 A 
ATOM     26  C   UNL     1       2.839   2.843  -2.922  0.00  0.00    +0.001 A 
ATOM     27  C   UNL     1       1.709   3.386  -3.508  0.00  0.00    +0.000 A 
ATOM     28  C   UNL     1       0.457   3.148  -2.967  0.00  0.00    +0.001 A 
ATOM     29  C   UNL     1       0.327   2.368  -1.838  0.00  0.00    +0.008 A 
ENDBRANCH  23  24
ENDBRANCH   1  22
TORSDOF 5
