REMARK  Name = ZINC04515858
REMARK  4 active torsions:
REMARK  status: ('A' for Active; 'I' for Inactive)
REMARK    1  A    between atoms: C_1  and  C_2
REMARK    2  A    between atoms: N_11  and  C_15
REMARK    3  A    between atoms: C_15  and  C_16
REMARK    4  A    between atoms: N_18  and  C_19
REMARK                            x       y       z     vdW  Elec       q    Type
REMARK                         _______ _______ _______ _____ _____    ______ ____
ROOT
ATOM      1  C   UNL     1      -0.735   2.020   1.269  0.00  0.00    +0.010 C 
ATOM      2  C   UNL     1      -0.019   1.527   0.010  0.00  0.00    +0.018 C 
ATOM      3  C   UNL     1       0.002  -0.004   0.002  0.00  0.00    +0.006 C 
ATOM      4  C   UNL     1       0.737  -0.496  -1.247  0.00  0.00    +0.000 C 
ATOM      5  C   UNL     1       2.175   0.025  -1.234  0.00  0.00    +0.003 C 
ATOM      6  C   UNL     1       2.162   1.556  -1.230  0.00  0.00    +0.035 C 
ATOM      7  C   UNL     1       1.411   2.056  -0.000  0.00  0.00    +0.115 C 
ATOM      8  C   UNL     1       2.134   1.645   1.262  0.00  0.00    +0.247 C 
ATOM      9  O   UNL     1       2.365   0.517   1.641  0.00  0.00    -0.273 OA
ATOM     10  N   UNL     1       2.469   2.798   1.877  0.00  0.00    -0.215 N 
ATOM     11  C   UNL     1       2.059   3.865   1.180  0.00  0.00    +0.310 C 
ATOM     12  O   UNL     1       2.244   5.014   1.532  0.00  0.00    -0.252 OA
ATOM     13  N   UNL     1       1.418   3.523   0.046  0.00  0.00    -0.285 N 
ATOM     14  H   UNL     1       1.037   4.127  -0.611  0.00  0.00    +0.151 HD
ENDROOT
BRANCH  10  15
ATOM     15  C   UNL     1       3.191   2.873   3.149  0.00  0.00    +0.213 C 
BRANCH  15  16
ATOM     16  C   UNL     1       4.674   2.915   2.884  0.00  0.00    +0.231 C 
ATOM     17  O   UNL     1       5.087   2.885   1.744  0.00  0.00    -0.274 OA
ATOM     18  N   UNL     1       5.541   2.986   3.913  0.00  0.00    -0.311 N 
ATOM     19  H   UNL     1       5.210   3.010   4.825  0.00  0.00    +0.149 HD
BRANCH  18  20
ATOM     20  C   UNL     1       6.982   3.027   3.655  0.00  0.00    +0.073 C 
ATOM     21  C   UNL     1       7.490   1.588   3.427  0.00  0.00    +0.022 C 
ATOM     22  C   UNL     1       8.794   1.655   2.680  0.00  0.00    +0.002 C 
ATOM     23  C   UNL     1      10.014   1.630   3.622  0.00  0.00    +0.000 C 
ATOM     24  C   UNL     1       9.820   2.506   4.874  0.00  0.00    +0.000 C 
ATOM     25  C   UNL     1       9.164   3.823   4.559  0.00  0.00    +0.002 C 
ATOM     26  C   UNL     1       7.644   3.677   4.777  0.00  0.00    +0.022 C 
ENDBRANCH  18  20
ENDBRANCH  15  16
ENDBRANCH  10  15
TORSDOF 3
