REMARK  Name = ZINC22426886
REMARK  9 active torsions:
REMARK  status: ('A' for Active; 'I' for Inactive)
REMARK    1  A    between atoms: C_1  and  C_2
REMARK    2  A    between atoms: N_7  and  C_9
REMARK    3  A    between atoms: C_12  and  C_15
REMARK    4  A    between atoms: C_15  and  N_16
REMARK    5  A    between atoms: C_17  and  C_19
REMARK    6  A    between atoms: C_19  and  N_20
REMARK    7  A    between atoms: N_20  and  C_21
REMARK    8  A    between atoms: N_20  and  S_28
REMARK    9  A    between atoms: S_28  and  C_31
REMARK                            x       y       z     vdW  Elec       q    Type
REMARK                         _______ _______ _______ _____ _____    ______ ____
ROOT
ATOM      1  N   UNL     1      -1.191   1.867   0.018  0.00  0.00    -0.310 N 
ATOM      2  C   UNL     1      -0.014   1.209   0.009  0.00  0.00    +0.232 C 
ATOM      3  O   UNL     1       0.002  -0.004   0.002  0.00  0.00    -0.274 OA
ATOM      4  H   UNL     1      -1.206   2.966   0.024  0.00  0.00    +0.149 HD
ENDROOT
BRANCH   1   5
ATOM      5  C   UNL     1      -2.449   1.117   0.020  0.00  0.00    +0.139 C 
BRANCH   5   9
ATOM      6  C   UNL     1      -5.735   3.850   0.050  0.00  0.00    +0.030 A 
ATOM      7  C   UNL     1      -5.206   3.411  -1.157  0.00  0.00    +0.023 A 
ATOM      8  C   UNL     1      -4.144   2.528  -1.163  0.00  0.00    +0.007 A 
ATOM      9  C   UNL     1      -3.608   2.080   0.030  0.00  0.00    -0.030 A 
ATOM     10  C   UNL     1      -4.136   2.511   1.234  0.00  0.00    +0.007 A 
ATOM     11  C   UNL     1      -5.194   3.398   1.247  0.00  0.00    +0.023 A 
BRANCH   6  17
ATOM     12  C   UNL     1      -8.707   6.495   2.840  0.00  0.00    +0.009 C 
ATOM     13  C   UNL     1      -8.281   6.163   1.408  0.00  0.00    +0.003 C 
ATOM     14  C   UNL     1      -9.491   5.655   0.620  0.00  0.00    +0.006 C 
ATOM     15  C   UNL     1      -9.044   5.269  -0.793  0.00  0.00    +0.019 C 
ATOM     16  C   UNL     1      -7.945   4.208  -0.703  0.00  0.00    +0.105 C 
ATOM     17  N   UNL     1      -6.809   4.743   0.060  0.00  0.00    -0.330 N 
ATOM     18  C   UNL     1      -7.203   5.076   1.435  0.00  0.00    +0.108 C 
ENDBRANCH   6  17
ENDBRANCH   5   9
ENDBRANCH   1   5
BRANCH   2  19
ATOM     19  C   UNL     1       1.280   1.980   0.001  0.00  0.00    +0.227 C 
BRANCH  19  20
ATOM     20  N   UNL     1       2.407   1.043  -0.015  0.00  0.00    -0.194 N 
BRANCH  20  21
ATOM     21  C   UNL     1       2.865   0.521  -1.229  0.00  0.00    +0.052 A 
ATOM     22  C   UNL     1       3.536  -0.694  -1.254  0.00  0.00    +0.027 A 
ATOM     23  C   UNL     1       3.984  -1.210  -2.455  0.00  0.00    +0.040 A 
ATOM     24  C   UNL     1       3.773  -0.511  -3.631  0.00  0.00    +0.124 A 
ATOM     25  C   UNL     1       3.110   0.704  -3.608  0.00  0.00    +0.040 A 
ATOM     26  C   UNL     1       2.655   1.221  -2.410  0.00  0.00    +0.027 A 
ATOM     27  F   UNL     1       4.216  -1.015  -4.804  0.00  0.00    -0.205 F 
ENDBRANCH  20  21
BRANCH  20  28
ATOM     28  S   UNL     1       3.137   0.602   1.404  0.00  0.00    +0.081 S 
ATOM     29  O   UNL     1       4.496   0.326   1.093  0.00  0.00    -0.149 OA
ATOM     30  O   UNL     1       2.758   1.570   2.373  0.00  0.00    -0.149 OA
BRANCH  28  31
ATOM     31  C   UNL     1       2.416  -0.924   1.909  0.00  0.00    +0.146 A 
ATOM     32  C   UNL     1       2.801  -2.190   1.612  0.00  0.00    +0.036 A 
ATOM     33  C   UNL     1       2.077  -3.249   2.126  0.00  0.00    +0.010 A 
ATOM     34  C   UNL     1       1.002  -2.991   2.911  0.00  0.00    +0.047 A 
ATOM     35  S   UNL     1       0.993  -1.206   2.949  0.00  0.00    -0.077 S 
ENDBRANCH  28  31
ENDBRANCH  20  28
ENDBRANCH  19  20
ENDBRANCH   2  19
TORSDOF 8
