REMARK  Name = ZINC13070843
REMARK  5 active torsions:
REMARK  status: ('A' for Active; 'I' for Inactive)
REMARK    1  A    between atoms: C_1  and  C_2
REMARK    2  A    between atoms: C_5  and  S_8
REMARK    3  A    between atoms: S_8  and  N_11
REMARK    4  A    between atoms: C_14  and  C_17
REMARK    5  A    between atoms: C_23  and  C_26
REMARK                            x       y       z     vdW  Elec       q    Type
REMARK                         _______ _______ _______ _____ _____    ______ ____
ROOT
ATOM      1  N   UNL     1       3.500   4.463  -1.620  0.00  0.00    -0.177 NA
ATOM      2  C   UNL     1       3.312   3.850  -2.942  0.00  0.00    +0.110 C 
ATOM      3  C   UNL     1       1.830   3.506  -3.119  0.00  0.00    +0.030 C 
ATOM      4  C   UNL     1       1.371   2.631  -1.950  0.00  0.00    +0.078 C 
ATOM      5  C   UNL     1       1.534   3.402  -0.639  0.00  0.00    +0.030 C 
ATOM      6  C   UNL     1       3.013   3.746  -0.434  0.00  0.00    +0.110 C 
ENDROOT
BRANCH   4   7
ATOM      7  C   UNL     1      -0.078   2.261  -2.138  0.00  0.00    +0.219 C 
ATOM      8  O   UNL     1      -0.791   2.942  -2.845  0.00  0.00    -0.275 OA
ATOM      9  N   UNL     1      -0.582   1.174  -1.521  0.00  0.00    -0.301 N 
ATOM     10  C   UNL     1      -2.013   0.855  -1.616  0.00  0.00    +0.108 C 
ATOM     11  C   UNL     1      -2.168  -0.585  -2.115  0.00  0.00    +0.020 C 
ATOM     12  C   UNL     1      -1.371  -1.522  -1.199  0.00  0.00    +0.016 C 
ATOM     13  C   UNL     1       0.112  -1.149  -1.246  0.00  0.00    +0.092 C 
ATOM     14  C   UNL     1       0.289   0.286  -0.740  0.00  0.00    +0.120 C 
BRANCH  13  15
ATOM     15  C   UNL     1       0.896  -2.092  -0.371  0.00  0.00    +0.215 C 
ATOM     16  O   UNL     1       1.535  -1.661   0.566  0.00  0.00    -0.276 OA
ATOM     17  N   UNL     1       0.888  -3.415  -0.629  0.00  0.00    -0.329 N 
ATOM     18  H   UNL     1       0.378  -3.760  -1.378  0.00  0.00    +0.145 HD
ATOM     19  H   UNL     1       1.393  -4.022  -0.066  0.00  0.00    +0.145 HD
ENDBRANCH  13  15
ENDBRANCH   4   7
BRANCH   1  20
ATOM     20  S   UNL     1       4.248   5.933  -1.470  0.00  0.00    +0.061 S 
ATOM     21  O   UNL     1       4.771   5.989  -0.150  0.00  0.00    -0.153 OA
ATOM     22  O   UNL     1       5.066   6.092  -2.621  0.00  0.00    -0.153 OA
BRANCH  20  27
ATOM     23  C   UNL     1      -0.045  10.159  -1.805  0.00  0.00    +0.044 C 
ATOM     24  C   UNL     1       1.028   9.104  -1.721  0.00  0.00    -0.050 A 
ATOM     25  C   UNL     1       1.378   8.570  -0.495  0.00  0.00    +0.005 A 
ATOM     26  C   UNL     1       2.361   7.602  -0.418  0.00  0.00    +0.029 A 
ATOM     27  C   UNL     1       2.994   7.167  -1.568  0.00  0.00    +0.105 A 
ATOM     28  C   UNL     1       2.648   7.705  -2.793  0.00  0.00    +0.029 A 
ATOM     29  C   UNL     1       1.661   8.670  -2.871  0.00  0.00    +0.005 A 
ENDBRANCH  20  27
ENDBRANCH   1  20
TORSDOF 4
