REMARK  Name = ZINC40596344
REMARK  5 active torsions:
REMARK  status: ('A' for Active; 'I' for Inactive)
REMARK    1  A    between atoms: C_1  and  C_2
REMARK    2  A    between atoms: C_2  and  N_3
REMARK    3  A    between atoms: C_5  and  N_18
REMARK    4  A    between atoms: C_6  and  N_10
REMARK    5  A    between atoms: N_10  and  C_11
REMARK                            x       y       z     vdW  Elec       q    Type
REMARK                         _______ _______ _______ _____ _____    ______ ____
ROOT
ATOM      1  N   UNL     1       0.340  -0.514  -1.383  0.00  0.00    -0.327 N 
ATOM      2  C   UNL     1       0.674  -1.854  -1.512  0.00  0.00    +0.154 A 
ATOM      3  C   UNL     1       1.304  -2.316  -2.664  0.00  0.00    +0.205 A 
ATOM      4  C   UNL     1       1.618  -3.669  -2.745  0.00  0.00    +0.159 A 
ATOM      5  N   UNL     1       1.307  -4.467  -1.725  0.00  0.00    -0.218 NA
ATOM      6  C   UNL     1       0.711  -3.991  -0.651  0.00  0.00    +0.225 A 
ATOM      7  N   UNL     1       0.402  -2.715  -0.534  0.00  0.00    -0.218 NA
ATOM      8  H   UNL     1       0.542   0.107  -2.099  0.00  0.00    +0.148 HD
ENDROOT
BRANCH   3   9
ATOM      9  N   UNL     1       1.631  -1.393  -3.774  0.00  0.00    +0.063 N 
ATOM     10  O   UNL     1       2.698  -0.825  -3.793  0.00  0.00    -0.126 OA
ATOM     11  O   UNL     1       0.831  -1.207  -4.661  0.00  0.00    -0.126 OA
ENDBRANCH   3   9
BRANCH   1  13
ATOM     12  C   UNL     1      -0.573   1.466  -0.276  0.00  0.00    +0.024 C 
ATOM     13  C   UNL     1      -0.317  -0.038  -0.163  0.00  0.00    +0.099 C 
ENDBRANCH   1  13
BRANCH   4  14
ATOM     14  N   UNL     1       2.246  -4.179  -3.872  0.00  0.00    -0.297 N 
ATOM     15  H   UNL     1       2.543  -3.580  -4.575  0.00  0.00    +0.154 HD
BRANCH  14  16
ATOM     16  C   UNL     1       2.450  -5.557  -3.995  0.00  0.00    +0.032 A 
ATOM     17  C   UNL     1       3.606  -6.038  -4.597  0.00  0.00    +0.024 A 
ATOM     18  C   UNL     1       3.806  -7.399  -4.716  0.00  0.00    +0.017 A 
ATOM     19  C   UNL     1       2.856  -8.284  -4.237  0.00  0.00    +0.018 A 
ATOM     20  C   UNL     1       1.704  -7.808  -3.637  0.00  0.00    +0.017 A 
ATOM     21  C   UNL     1       1.501  -6.447  -3.510  0.00  0.00    +0.024 A 
ATOM     22 BR   UNL     1       3.133 -10.147  -4.402  0.00  0.00    -0.050 Br
ENDBRANCH  14  16
ENDBRANCH   4  14
TORSDOF 4
