REMARK  Name = ZINC09647387
REMARK  9 active torsions:
REMARK  status: ('A' for Active; 'I' for Inactive)
REMARK    1  A    between atoms: C_1  and  C_2
REMARK    2  A    between atoms: C_2  and  N_3
REMARK    3  A    between atoms: C_4  and  C_26
REMARK    4  A    between atoms: C_7  and  S_8
REMARK    5  A    between atoms: S_8  and  C_9
REMARK    6  A    between atoms: C_9  and  C_10
REMARK    7  A    between atoms: C_23  and  C_25
REMARK    8  A    between atoms: C_26  and  C_27
REMARK    9  A    between atoms: C_27  and  C_28
REMARK                            x       y       z     vdW  Elec       q    Type
REMARK                         _______ _______ _______ _____ _____    ______ ____
ROOT
ATOM      1  C   UNL     1      -2.726   2.947  -2.299  0.00  0.00    +0.173 C 
ENDROOT
BRANCH   1   2
ATOM      2  C   UNL     1      -2.003   2.453  -1.073  0.00  0.00    +0.230 C 
ATOM      3  O   UNL     1      -2.563   2.454   0.003  0.00  0.00    -0.274 OA
ATOM      4  N   UNL     1      -0.734   2.009  -1.171  0.00  0.00    -0.266 N 
ATOM      5  C   UNL     1      -0.075   2.001  -2.407  0.00  0.00    +0.058 A 
ATOM      6  C   UNL     1      -0.411   1.073  -3.380  0.00  0.00    +0.025 A 
ATOM      7  C   UNL     1       0.277   1.053  -4.579  0.00  0.00    +0.002 A 
ATOM      8  C   UNL     1       1.299   1.955  -4.811  0.00  0.00    +0.002 A 
ATOM      9  C   UNL     1       1.633   2.892  -3.850  0.00  0.00    +0.025 A 
ATOM     10  C   UNL     1       0.941   2.925  -2.651  0.00  0.00    +0.055 A 
ATOM     11  N   UNL     1       1.242   3.880  -1.673  0.00  0.00    -0.284 N 
ATOM     12  C   UNL     1       1.431   3.509  -0.386  0.00  0.00    +0.219 C 
ATOM     13  O   UNL     1       1.613   4.356   0.463  0.00  0.00    -0.275 OA
ATOM     14  C   UNL     1       1.417   2.054  -0.000  0.00  0.00    +0.118 C 
ATOM     15  C   UNL     1      -0.019   1.526   0.010  0.00  0.00    +0.087 C 
ATOM     16  C   UNL     1       0.002  -0.004   0.002  0.00  0.00    +0.029 C 
ATOM     17  H   UNL     1       1.315   4.815  -1.919  0.00  0.00    +0.155 HD
ENDBRANCH   1   2
BRANCH   1  18
ATOM     18  S   UNL     1      -4.398   3.471  -1.844  0.00  0.00    -0.077 S 
BRANCH  18  23
ATOM     19  N   UNL     1      -6.236   4.489  -3.691  0.00  0.00    -0.306 N 
ATOM     20  C   UNL     1      -6.245   4.746  -5.035  0.00  0.00    +0.135 A 
ATOM     21  N   UNL     1      -5.076   4.408  -5.501  0.00  0.00    -0.134 NA
ATOM     22  N   UNL     1      -4.333   3.963  -4.552  0.00  0.00    -0.122 NA
ATOM     23  C   UNL     1      -4.997   3.986  -3.419  0.00  0.00    +0.192 A 
BRANCH  19  25
ATOM     24  C   UNL     1      -7.225   6.119  -2.159  0.00  0.00    +0.027 C 
ATOM     25  C   UNL     1      -7.330   4.708  -2.742  0.00  0.00    +0.122 C 
ENDBRANCH  19  25
BRANCH  20  26
ATOM     26  C   UNL     1      -7.393   5.314  -5.828  0.00  0.00    +0.085 C 
BRANCH  26  27
ATOM     27  C   UNL     1      -7.296   6.841  -5.844  0.00  0.00    +0.103 C 
BRANCH  27  28
ATOM     28  C   UNL     1      -8.444   7.409  -6.637  0.00  0.00    +0.211 C 
ATOM     29  O   UNL     1      -9.260   6.666  -7.140  0.00  0.00    -0.276 OA
ATOM     30  N   UNL     1      -8.564   8.743  -6.788  0.00  0.00    -0.329 N 
ATOM     31  H   UNL     1      -7.911   9.337  -6.386  0.00  0.00    +0.145 HD
ATOM     32  H   UNL     1      -9.303   9.109  -7.298  0.00  0.00    +0.145 HD
ENDBRANCH  27  28
ENDBRANCH  26  27
ENDBRANCH  20  26
ENDBRANCH  18  23
ENDBRANCH   1  18
TORSDOF 7
