REMARK  Name = ZINC08743805
REMARK  2 active torsions:
REMARK  status: ('A' for Active; 'I' for Inactive)
REMARK    1  A    between atoms: C_6  and  N_7
REMARK    2  A    between atoms: C_13  and  C_15
REMARK                            x       y       z     vdW  Elec       q    Type
REMARK                         _______ _______ _______ _____ _____    ______ ____
ROOT
ATOM      1  N   UNL     1      -1.166  -0.657  -0.209  0.00  0.00    -0.327 N 
ATOM      2  C   UNL     1      -2.449   0.049  -0.088  0.00  0.00    +0.124 C 
ATOM      3  C   UNL     1      -3.375  -0.422  -1.217  0.00  0.00    +0.127 C 
ATOM      4  N   UNL     1      -3.374  -1.892  -1.243  0.00  0.00    -0.293 N 
ATOM      5  C   UNL     1      -2.090  -2.597  -1.363  0.00  0.00    +0.127 C 
ATOM      6  C   UNL     1      -1.165  -2.126  -0.240  0.00  0.00    +0.124 C 
ATOM      7  C   UNL     1      -4.529  -2.580  -1.157  0.00  0.00    +0.265 C 
ATOM      8  O   UNL     1      -4.510  -3.794  -1.089  0.00  0.00    -0.268 OA
ENDROOT
BRANCH   7   9
ATOM      9  C   UNL     1      -5.814  -1.863  -1.147  0.00  0.00    +0.124 A 
ATOM     10  C   UNL     1      -6.454  -1.298  -2.220  0.00  0.00    +0.005 A 
ATOM     11  C   UNL     1      -7.632  -0.735  -1.712  0.00  0.00    +0.067 A 
ATOM     12  N   UNL     1      -7.662  -0.967  -0.432  0.00  0.00    -0.178 NA
ATOM     13  N   UNL     1      -6.619  -1.628  -0.063  0.00  0.00    -0.272 N 
ATOM     14  H   UNL     1      -6.431  -1.914   0.845  0.00  0.00    +0.189 HD
ATOM     15  C   UNL     1      -8.634  -0.001  -2.568  0.00  0.00    +0.057 C 
ATOM     16  C   UNL     1      -7.954   0.367  -3.893  0.00  0.00    +0.007 C 
ATOM     17  C   UNL     1      -7.287  -0.872  -4.496  0.00  0.00    +0.005 C 
ATOM     18  C   UNL     1      -6.050  -1.248  -3.668  0.00  0.00    +0.039 C 
ENDBRANCH   7   9
BRANCH   1  24
ATOM     19  C   UNL     1       1.247  -0.617  -0.293  0.00  0.00    +0.026 A 
ATOM     20  C   UNL     1       2.430   0.090  -0.382  0.00  0.00    +0.040 A 
ATOM     21  C   UNL     1       2.406   1.472  -0.474  0.00  0.00    +0.124 A 
ATOM     22  C   UNL     1       1.197   2.147  -0.477  0.00  0.00    +0.040 A 
ATOM     23  C   UNL     1       0.012   1.443  -0.389  0.00  0.00    +0.026 A 
ATOM     24  C   UNL     1       0.033   0.058  -0.297  0.00  0.00    +0.030 A 
ATOM     25  F   UNL     1       3.564   2.162  -0.560  0.00  0.00    -0.205 F 
ENDBRANCH   1  24
TORSDOF 2
