REMARK  Name = ZINC62427781
REMARK  6 active torsions:
REMARK  status: ('A' for Active; 'I' for Inactive)
REMARK    1  A    between atoms: C_1  and  C_2
REMARK    2  A    between atoms: C_7  and  C_8
REMARK    3  A    between atoms: C_9  and  C_20
REMARK    4  A    between atoms: C_15  and  C_19
REMARK    5  A    between atoms: C_16  and  C_18
REMARK    6  A    between atoms: C_20  and  O_21
REMARK                            x       y       z     vdW  Elec       q    Type
REMARK                         _______ _______ _______ _____ _____    ______ ____
ROOT
ATOM      1  C   UNL     1       0.025   0.019   2.493  0.00  0.00    +0.102 A 
ATOM      2  C   UNL     1      -1.066   0.400   3.217  0.00  0.00    +0.116 A 
ATOM      3  N   UNL     1      -0.654   1.031   4.314  0.00  0.00    -0.131 NA
ATOM      4  N   UNL     1       0.631   1.080   4.344  0.00  0.00    -0.058 NA
ATOM      5  N   UNL     1       1.124   0.438   3.198  0.00  0.00    -0.188 N 
ATOM      6  C   UNL     1       2.461   0.264   2.846  0.00  0.00    +0.196 A 
ATOM      7  N   UNL     1       2.954  -0.325   1.778  0.00  0.00    -0.226 NA
ATOM      8  C   UNL     1       4.256  -0.410   1.586  0.00  0.00    +0.051 A 
ATOM      9  C   UNL     1       5.057   0.135   2.537  0.00  0.00    +0.011 A 
ATOM     10  S   UNL     1       3.836   0.761   3.679  0.00  0.00    -0.053 S 
ATOM     11  C   UNL     1       6.561   0.199   2.607  0.00  0.00    +0.053 C 
ATOM     12  C   UNL     1       4.830  -1.083   0.366  0.00  0.00    +0.066 C 
ENDROOT
BRANCH   1  19
ATOM     13  C   UNL     1      -0.018   1.503   0.010  0.00  0.00    +0.044 C 
ATOM     14  C   UNL     1       0.002  -0.004   0.002  0.00  0.00    -0.041 A 
ATOM     15  C   UNL     1       0.006  -0.689  -1.196  0.00  0.00    +0.004 A 
ATOM     16  C   UNL     1       0.025  -2.072  -1.205  0.00  0.00    +0.000 A 
ATOM     17  C   UNL     1       0.041  -2.778  -0.015  0.00  0.00    +0.001 A 
ATOM     18  C   UNL     1       0.037  -2.105   1.189  0.00  0.00    +0.010 A 
ATOM     19  C   UNL     1       0.023  -0.709   1.205  0.00  0.00    +0.005 A 
ENDBRANCH   1  19
BRANCH   2  20
ATOM     20  C   UNL     1      -2.502   0.149   2.837  0.00  0.00    +0.215 C 
BRANCH  20  21
ATOM     21  O   UNL     1      -2.926  -1.103   3.379  0.00  0.00    -0.389 OA
ATOM     22  H   UNL     1      -3.844  -1.330   3.173  0.00  0.00    +0.210 HD
ENDBRANCH  20  21
ENDBRANCH   2  20
TORSDOF 3
