REMARK  Name = ZINC40925432
REMARK  10 active torsions:
REMARK  status: ('A' for Active; 'I' for Inactive)
REMARK    1  A    between atoms: C_1  and  C_2
REMARK    2  A    between atoms: C_5  and  C_9
REMARK    3  A    between atoms: C_6  and  C_8
REMARK    4  A    between atoms: C_18  and  C_21
REMARK    5  A    between atoms: N_23  and  C_24
REMARK    6  A    between atoms: C_30  and  O_32
REMARK    7  A    between atoms: O_32  and  C_33
REMARK    8  A    between atoms: C_33  and  C_34
REMARK    9  A    between atoms: C_33  and  C_35
REMARK   10  A    between atoms: C_33  and  C_36
REMARK                            x       y       z     vdW  Elec       q    Type
REMARK                         _______ _______ _______ _____ _____    ______ ____
ROOT
ATOM      1  C   UNL     1       0.506  -4.205   0.205  0.00  0.00    +0.094 A 
ATOM      2  C   UNL     1       0.651  -4.979  -0.952  0.00  0.00    +0.033 A 
ATOM      3  C   UNL     1       0.885  -6.333  -0.801  0.00  0.00    +0.047 A 
ATOM      4  C   UNL     1       0.962  -6.845   0.496  0.00  0.00    +0.144 A 
ATOM      5  N   UNL     1       0.812  -6.036   1.535  0.00  0.00    -0.134 NA
ATOM      6  N   UNL     1       0.600  -4.778   1.397  0.00  0.00    -0.147 NA
ATOM      7  N   UNL     1       1.195  -8.200   0.697  0.00  0.00    -0.314 N 
ATOM      8  C   UNL     1       1.072  -8.790   2.037  0.00  0.00    +0.107 C 
ATOM      9  C   UNL     1       2.369  -9.536   2.368  0.00  0.00    +0.031 C 
ATOM     10  C   UNL     1       2.667 -10.549   1.260  0.00  0.00    +0.078 C 
ATOM     11  C   UNL     1       2.859  -9.813  -0.069  0.00  0.00    +0.031 C 
ATOM     12  C   UNL     1       1.562  -9.072  -0.428  0.00  0.00    +0.107 C 
ENDROOT
BRANCH   1  17
ATOM     13  C   UNL     1      -0.471   1.455  -0.211  0.00  0.00    +0.044 C 
ATOM     14  C   UNL     1      -0.215  -0.026  -0.102  0.00  0.00    -0.050 A 
ATOM     15  C   UNL     1       0.777  -0.612  -0.867  0.00  0.00    +0.004 A 
ATOM     16  C   UNL     1       1.016  -1.968  -0.771  0.00  0.00    +0.010 A 
ATOM     17  C   UNL     1       0.255  -2.747   0.098  0.00  0.00    +0.005 A 
ATOM     18  C   UNL     1      -0.744  -2.152   0.866  0.00  0.00    -0.041 A 
ATOM     19  C   UNL     1      -0.970  -0.793   0.766  0.00  0.00    +0.007 A 
ATOM     20  C   UNL     1      -1.572  -2.988   1.808  0.00  0.00    +0.044 C 
ENDBRANCH   1  17
BRANCH  10  21
ATOM     21  C   UNL     1       3.924 -11.308   1.599  0.00  0.00    +0.216 C 
ATOM     22  O   UNL     1       4.522 -11.063   2.625  0.00  0.00    -0.276 OA
ATOM     23  N   UNL     1       4.384 -12.258   0.761  0.00  0.00    -0.312 N 
ATOM     24  H   UNL     1       3.905 -12.454  -0.059  0.00  0.00    +0.149 HD
BRANCH  23  25
ATOM     25  C   UNL     1       5.606 -12.996   1.091  0.00  0.00    +0.076 C 
ATOM     26  C   UNL     1       6.825 -12.199   0.622  0.00  0.00    +0.041 C 
ATOM     27  C   UNL     1       8.102 -12.957   0.999  0.00  0.00    +0.113 C 
ATOM     28  N   UNL     1       8.023 -14.318   0.450  0.00  0.00    -0.267 N 
ATOM     29  C   UNL     1       6.847 -15.140   0.765  0.00  0.00    +0.113 C 
ATOM     30  C   UNL     1       5.584 -14.357   0.391  0.00  0.00    +0.041 C 
ATOM     31  C   UNL     1       9.011 -14.803  -0.327  0.00  0.00    +0.403 C 
ATOM     32  O   UNL     1       9.979 -14.113  -0.581  0.00  0.00    -0.226 OA
BRANCH  31  33
ATOM     33  O   UNL     1       8.926 -16.052  -0.823  0.00  0.00    -0.445 OA
BRANCH  33  34
ATOM     34  C   UNL     1      10.010 -16.501  -1.640  0.00  0.00    +0.107 C 
ATOM     35  C   UNL     1      11.307 -16.468  -0.830  0.00  0.00    +0.055 C 
ATOM     36  C   UNL     1       9.737 -17.932  -2.108  0.00  0.00    +0.055 C 
ATOM     37  C   UNL     1      10.145 -15.583  -2.857  0.00  0.00    +0.055 C 
ENDBRANCH  33  34
ENDBRANCH  31  33
ENDBRANCH  23  25
ENDBRANCH  10  21
TORSDOF 5
