REMARK  Name = ZINC39912618
REMARK  15 active torsions:
REMARK  status: ('A' for Active; 'I' for Inactive)
REMARK    1  A    between atoms: C_1  and  C_2
REMARK    2  A    between atoms: C_2  and  O_3
REMARK    3  A    between atoms: O_3  and  C_4
REMARK    4  A    between atoms: C_8  and  C_10
REMARK    5  A    between atoms: C_13  and  C_33
REMARK    6  A    between atoms: N_20  and  C_21
REMARK    7  A    between atoms: C_21  and  C_22
REMARK    8  A    between atoms: C_22  and  C_23
REMARK    9  A    between atoms: C_26  and  O_31
REMARK   10  A    between atoms: C_27  and  O_29
REMARK   11  A    between atoms: O_29  and  C_30
REMARK   12  A    between atoms: O_31  and  C_32
REMARK   13  A    between atoms: C_35  and  C_41
REMARK   14  A    between atoms: C_37  and  C_40
REMARK   15  A    between atoms: C_38  and  O_39
REMARK                            x       y       z     vdW  Elec       q    Type
REMARK                         _______ _______ _______ _____ _____    ______ ____
ROOT
ATOM      1  C   UNL     1       2.193  -4.267  -3.790  0.00  0.00    +0.141 C 
ATOM      2  C   UNL     1       1.204  -4.856  -4.758  0.00  0.00    +0.035 A 
ATOM      3  C   UNL     1       0.099  -4.644  -5.590  0.00  0.00    +0.102 A 
ATOM      4  N   UNL     1      -0.194  -5.798  -6.158  0.00  0.00    -0.173 NA
ATOM      5  N   UNL     1       0.617  -6.716  -5.767  0.00  0.00    -0.272 N 
ATOM      6  H   UNL     1       0.590  -7.642  -6.055  0.00  0.00    +0.189 HD
ATOM      7  C   UNL     1       1.521  -6.194  -4.886  0.00  0.00    +0.126 A 
ATOM      8  C   UNL     1       2.680  -6.483  -4.034  0.00  0.00    +0.265 C 
ATOM      9  O   UNL     1       3.205  -7.574  -3.923  0.00  0.00    -0.268 OA
ATOM     10  N   UNL     1       3.079  -5.368  -3.392  0.00  0.00    -0.285 N 
ENDROOT
BRANCH   3  11
ATOM     11  C   UNL     1      -0.613  -3.358  -5.795  0.00  0.00    +0.044 A 
ATOM     12  C   UNL     1      -0.117  -2.186  -5.231  0.00  0.00    +0.017 A 
ATOM     13  C   UNL     1      -0.782  -0.993  -5.424  0.00  0.00    -0.049 A 
ATOM     14  C   UNL     1      -1.943  -0.956  -6.177  0.00  0.00    +0.010 A 
ATOM     15  C   UNL     1      -2.445  -2.114  -6.741  0.00  0.00    -0.008 A 
ATOM     16  C   UNL     1      -1.782  -3.318  -6.560  0.00  0.00    +0.129 A 
ATOM     17  C   UNL     1      -3.709  -2.066  -7.559  0.00  0.00    +0.047 C 
ATOM     18  C   UNL     1      -0.244   0.275  -4.813  0.00  0.00    +0.044 C 
BRANCH  16  19
ATOM     19  O   UNL     1      -2.271  -4.456  -7.119  0.00  0.00    -0.506 OA
ATOM     20  H   UNL     1      -2.893  -4.936  -6.555  0.00  0.00    +0.292 HD
ENDBRANCH  16  19
ENDBRANCH   3  11
BRANCH   1  25
ATOM     21  C   UNL     1       0.802  -1.851  -1.240  0.00  0.00    +0.121 A 
ATOM     22  C   UNL     1       0.154  -2.714  -0.368  0.00  0.00    +0.045 A 
ATOM     23  C   UNL     1       0.169  -4.075  -0.607  0.00  0.00    +0.004 A 
ATOM     24  C   UNL     1       0.829  -4.576  -1.715  0.00  0.00    +0.006 A 
ATOM     25  C   UNL     1       1.475  -3.717  -2.584  0.00  0.00    -0.019 A 
ATOM     26  C   UNL     1       1.458  -2.355  -2.353  0.00  0.00    +0.051 A 
BRANCH  21  27
ATOM     27  O   UNL     1       0.788  -0.512  -1.006  0.00  0.00    -0.492 OA
BRANCH  27  29
ATOM     28  C   UNL     1       0.186   1.461   0.253  0.00  0.00    +0.048 C 
ATOM     29  C   UNL     1       0.093  -0.063   0.159  0.00  0.00    +0.225 C 
ENDBRANCH  27  29
ENDBRANCH  21  27
ENDBRANCH   1  25
BRANCH  10  30
ATOM     30  C   UNL     1       4.203  -5.271  -2.457  0.00  0.00    +0.114 C 
BRANCH  30  31
ATOM     31  C   UNL     1       3.711  -5.551  -1.036  0.00  0.00    +0.054 C 
BRANCH  31  32
ATOM     32  C   UNL     1       4.867  -5.451  -0.075  0.00  0.00    -0.042 A 
ATOM     33  C   UNL     1       5.628  -6.570   0.209  0.00  0.00    +0.007 A 
ATOM     34  C   UNL     1       6.689  -6.483   1.090  0.00  0.00    +0.049 A 
ATOM     35  C   UNL     1       6.994  -5.272   1.691  0.00  0.00    +0.161 A 
ATOM     36  C   UNL     1       6.229  -4.145   1.405  0.00  0.00    +0.162 A 
ATOM     37  C   UNL     1       5.169  -4.238   0.517  0.00  0.00    +0.053 A 
BRANCH  36  38
ATOM     38  O   UNL     1       6.523  -2.954   1.991  0.00  0.00    -0.491 OA
ATOM     39  C   UNL     1       5.695  -1.841   1.651  0.00  0.00    +0.277 C 
ENDBRANCH  36  38
BRANCH  35  40
ATOM     40  O   UNL     1       8.037  -5.185   2.558  0.00  0.00    -0.491 OA
ATOM     41  C   UNL     1       8.778  -6.382   2.804  0.00  0.00    +0.277 C 
ENDBRANCH  35  40
ENDBRANCH  31  32
ENDBRANCH  30  31
ENDBRANCH  10  30
TORSDOF 10
