REMARK  Name = ZINC30979310
REMARK  5 active torsions:
REMARK  status: ('A' for Active; 'I' for Inactive)
REMARK    1  A    between atoms: C_6  and  C_7
REMARK    2  A    between atoms: C_9  and  C_12
REMARK    3  A    between atoms: C_12  and  N_13
REMARK    4  A    between atoms: C_16  and  C_19
REMARK    5  A    between atoms: C_24  and  C_27
REMARK                            x       y       z     vdW  Elec       q    Type
REMARK                         _______ _______ _______ _____ _____    ______ ____
ROOT
ATOM      1  N   UNL     1       0.322  -0.474  -0.867  0.00  0.00    +0.386 N 
ATOM      2  C   UNL     1       0.059   0.015   0.493  0.00  0.00    -0.077 C 
ATOM      3  C   UNL     1       0.060   1.546   0.495  0.00  0.00    -0.006 C 
ATOM      4  C   UNL     1       1.419   2.051   0.004  0.00  0.00    +0.072 C 
ATOM      5  C   UNL     1       1.690   1.489  -1.394  0.00  0.00    -0.006 C 
ATOM      6  C   UNL     1       1.642  -0.040  -1.341  0.00  0.00    -0.077 C 
ATOM      7  H   UNL     1      -0.435  -0.034  -1.533  0.00  0.00    -0.081 HD
ENDROOT
BRANCH   4   8
ATOM      8  C   UNL     1       1.405   3.557  -0.053  0.00  0.00    +0.219 C 
ATOM      9  O   UNL     1       0.354   4.150  -0.174  0.00  0.00    -0.275 OA
ATOM     10  N   UNL     1       2.561   4.245   0.031  0.00  0.00    -0.301 N 
ATOM     11  C   UNL     1       2.556   5.714   0.085  0.00  0.00    +0.108 C 
ATOM     12  C   UNL     1       3.358   6.160   1.317  0.00  0.00    +0.032 C 
ATOM     13  C   UNL     1       4.755   5.538   1.262  0.00  0.00    +0.078 C 
ATOM     14  C   UNL     1       4.638   4.012   1.290  0.00  0.00    +0.032 C 
ATOM     15  C   UNL     1       3.851   3.542   0.064  0.00  0.00    +0.108 C 
BRANCH  13  16
ATOM     16  C   UNL     1       5.559   6.002   2.450  0.00  0.00    +0.214 C 
ATOM     17  O   UNL     1       5.995   5.193   3.240  0.00  0.00    -0.276 OA
ATOM     18  N   UNL     1       5.793   7.317   2.633  0.00  0.00    -0.329 N 
ATOM     19  H   UNL     1       6.379   7.655   3.499  0.00  0.00    +0.145 HD
ATOM     20  H   UNL     1       5.397   8.051   1.915  0.00  0.00    +0.145 HD
ENDBRANCH  13  16
ENDBRANCH   4   8
BRANCH   1  21
ATOM     21  C   UNL     1       0.192  -1.935  -0.935  0.00  0.00    +0.022 C 
BRANCH  21  24
ATOM     22  C   UNL     1       0.835  -3.025  -4.299  0.00  0.00    +0.202 A 
ATOM     23  N   UNL     1       1.288  -2.699  -3.067  0.00  0.00    -0.193 NA
ATOM     24  C   UNL     1       0.224  -2.376  -2.376  0.00  0.00    +0.211 A 
ATOM     25  O   UNL     1      -0.830  -2.516  -3.186  0.00  0.00    -0.340 OA
ATOM     26  N   UNL     1      -0.464  -2.883  -4.283  0.00  0.00    -0.056 NA
BRANCH  22  32
ATOM     27  C   UNL     1       3.043  -3.563  -5.326  0.00  0.00    +0.013 A 
ATOM     28  C   UNL     1       3.805  -3.974  -6.401  0.00  0.00    +0.016 A 
ATOM     29  C   UNL     1       3.197  -4.277  -7.607  0.00  0.00    +0.018 A 
ATOM     30  C   UNL     1       1.823  -4.174  -7.740  0.00  0.00    +0.016 A 
ATOM     31  C   UNL     1       1.053  -3.768  -6.670  0.00  0.00    +0.013 A 
ATOM     32  C   UNL     1       1.660  -3.462  -5.453  0.00  0.00    +0.023 A 
ATOM     33 BR   UNL     1       4.248  -4.833  -9.078  0.00  0.00    -0.050 Br
ENDBRANCH  22  32
ENDBRANCH  21  24
ENDBRANCH   1  21
TORSDOF 5
