REMARK  Name = ZINC34830343
REMARK  10 active torsions:
REMARK  status: ('A' for Active; 'I' for Inactive)
REMARK    1  A    between atoms: C_1  and  C_2
REMARK    2  A    between atoms: C_7  and  C_8
REMARK    3  A    between atoms: N_17  and  C_18
REMARK    4  A    between atoms: C_18  and  C_20
REMARK    5  A    between atoms: C_18  and  C_21
REMARK    6  A    between atoms: C_29  and  C_31
REMARK    7  A    between atoms: C_33  and  O_39
REMARK    8  A    between atoms: C_35  and  O_37
REMARK    9  A    between atoms: O_37  and  C_38
REMARK   10  A    between atoms: O_39  and  C_40
REMARK                            x       y       z     vdW  Elec       q    Type
REMARK                         _______ _______ _______ _____ _____    ______ ____
ROOT
ATOM      1  C   UNL     1       2.042  -1.200   1.502  0.00  0.00    +0.202 C 
ATOM      2  O   UNL     1       1.006  -1.461   0.928  0.00  0.00    -0.277 OA
ATOM      3  N   UNL     1       3.225  -1.456   0.908  0.00  0.00    -0.300 N 
ATOM      4  C   UNL     1       4.486  -1.255   1.636  0.00  0.00    +0.126 C 
ATOM      5  C   UNL     1       5.284  -2.564   1.605  0.00  0.00    +0.127 C 
ATOM      6  N   UNL     1       5.335  -3.050   0.219  0.00  0.00    -0.295 N 
ATOM      7  C   UNL     1       4.074  -3.251  -0.509  0.00  0.00    +0.127 C 
ATOM      8  C   UNL     1       3.276  -1.947  -0.476  0.00  0.00    +0.126 C 
ATOM      9  C   UNL     1       6.518  -3.306  -0.375  0.00  0.00    +0.247 C 
ATOM     10  O   UNL     1       6.554  -3.614  -1.550  0.00  0.00    -0.270 OA
ENDROOT
BRANCH   9  11
ATOM     11  C   UNL     1       7.772  -3.212   0.404  0.00  0.00    +0.044 A 
ATOM     12  C   UNL     1       7.811  -3.666   1.722  0.00  0.00    +0.059 A 
ATOM     13  C   UNL     1       8.988  -3.577   2.448  0.00  0.00    +0.124 A 
ATOM     14  C   UNL     1      10.126  -3.038   1.865  0.00  0.00    +0.091 A 
ATOM     15  C   UNL     1      10.090  -2.586   0.554  0.00  0.00    +0.124 A 
ATOM     16  C   UNL     1       8.919  -2.676  -0.180  0.00  0.00    +0.059 A 
BRANCH  15  17
ATOM     17  O   UNL     1      11.208  -2.058  -0.012  0.00  0.00    -0.495 OA
ATOM     18  C   UNL     1      12.382  -2.000   0.801  0.00  0.00    +0.277 C 
ENDBRANCH  15  17
BRANCH  13  19
ATOM     19  O   UNL     1       9.028  -4.018   3.733  0.00  0.00    -0.495 OA
ATOM     20  C   UNL     1      10.274  -3.896   4.422  0.00  0.00    +0.277 C 
ENDBRANCH  13  19
ENDBRANCH   9  11
BRANCH   1  21
ATOM     21  C   UNL     1       2.007  -0.590   2.880  0.00  0.00    +0.018 C 
ATOM     22  C   UNL     1       2.174  -1.690   3.929  0.00  0.00    -0.004 C 
BRANCH  21  31
ATOM     23  C   UNL     1       0.773   0.863   4.328  0.00  0.00    -0.005 C 
ATOM     24  C   UNL     1      -0.599   1.480   4.584  0.00  0.00    -0.047 A 
ATOM     25  C   UNL     1      -0.820   2.563   5.430  0.00  0.00    +0.010 A 
ATOM     26  C   UNL     1      -2.073   3.048   5.595  0.00  0.00    +0.045 A 
ATOM     27  S   UNL     1      -3.028   1.971   4.536  0.00  0.00    -0.101 S 
ATOM     28  C   UNL     1      -1.694   0.962   3.959  0.00  0.00    -0.010 A 
ATOM     29  C   UNL     1      -1.712  -0.195   3.015  0.00  0.00    +0.024 C 
ATOM     30  C   UNL     1      -0.355  -0.911   3.134  0.00  0.00    -0.071 C 
ATOM     31  N   UNL     1       0.720   0.089   3.082  0.00  0.00    +0.395 N 
ATOM     32  H   UNL     1       0.551   0.716   2.309  0.00  0.00    -0.079 HD
BRANCH  23  39
ATOM     33  C   UNL     1       2.136   1.841   6.680  0.00  0.00    +0.044 C 
ATOM     34  C   UNL     1       2.456   2.423   5.327  0.00  0.00    -0.049 A 
ATOM     35  C   UNL     1       3.405   3.421   5.211  0.00  0.00    +0.003 A 
ATOM     36  C   UNL     1       3.698   3.955   3.970  0.00  0.00    +0.000 A 
ATOM     37  C   UNL     1       3.042   3.490   2.845  0.00  0.00    +0.000 A 
ATOM     38  C   UNL     1       2.093   2.492   2.961  0.00  0.00    +0.002 A 
ATOM     39  C   UNL     1       1.803   1.955   4.202  0.00  0.00    -0.054 A 
ENDBRANCH  23  39
ENDBRANCH  21  31
ENDBRANCH   1  21
TORSDOF 6
