REMARK  Name = ZINC43757662
REMARK  8 active torsions:
REMARK  status: ('A' for Active; 'I' for Inactive)
REMARK    1  A    between atoms: C_1  and  C_2
REMARK    2  A    between atoms: C_16  and  O_36
REMARK    3  A    between atoms: C_19  and  C_35
REMARK    4  A    between atoms: C_25  and  C_31
REMARK    5  A    between atoms: C_27  and  C_29
REMARK    6  A    between atoms: C_27  and  C_30
REMARK    7  A    between atoms: C_31  and  C_33
REMARK    8  A    between atoms: C_33  and  O_34
REMARK                            x       y       z     vdW  Elec       q    Type
REMARK                         _______ _______ _______ _____ _____    ______ ____
ROOT
ATOM      1  C   UNL     1       0.389   1.456   0.457  0.00  0.00    +0.016 C 
ATOM      2  C   UNL     1       0.340  -0.080   0.344  0.00  0.00    -0.002 C 
ATOM      3  C   UNL     1      -1.087  -0.416   0.566  0.00  0.00    +0.019 C 
ATOM      4  C   UNL     1      -1.345  -1.740   1.273  0.00  0.00    +0.080 C 
ATOM      5  C   UNL     1      -0.578  -1.716   2.578  0.00  0.00    +0.156 C 
ATOM      6  O   UNL     1      -1.067  -2.109   3.561  0.00  0.00    -0.293 OA
ATOM      7  C   UNL     1       0.796  -1.316   2.488  0.00  0.00    +0.049 C 
ATOM      8  C   UNL     1       1.214  -0.532   1.496  0.00  0.00    -0.027 C 
ATOM      9  C   UNL     1       2.694  -0.183   1.388  0.00  0.00    +0.193 C 
ATOM     10  C   UNL     1       3.296  -0.702   0.044  0.00  0.00    +0.045 C 
ATOM     11  C   UNL     1       2.146  -1.325  -0.679  0.00  0.00    +0.002 C 
ATOM     12  C   UNL     1       0.960  -0.365  -0.976  0.00  0.00    +0.031 C 
ATOM     13  C   UNL     1       0.054  -0.944  -1.958  0.00  0.00    +0.119 C 
ATOM     14  C   UNL     1       0.676  -1.109  -3.371  0.00  0.00    +0.042 C 
ATOM     15  C   UNL     1       2.200  -1.188  -3.204  0.00  0.00    +0.012 C 
ATOM     16  C   UNL     1       2.520  -2.083  -1.962  0.00  0.00    +0.004 C 
ATOM     17  C   UNL     1       3.993  -2.450  -2.175  0.00  0.00    +0.039 C 
ATOM     18  C   UNL     1       4.318  -2.155  -3.614  0.00  0.00    +0.162 C 
ATOM     19  C   UNL     1       2.896  -2.040  -4.282  0.00  0.00    +0.164 C 
ATOM     20  O   UNL     1       3.329  -1.518  -5.513  0.00  0.00    -0.332 OA
ATOM     21  C   UNL     1       4.528  -2.270  -5.765  0.00  0.00    +0.166 C 
ATOM     22  O   UNL     1       4.918  -2.972  -4.555  0.00  0.00    -0.343 OA
ATOM     23  C   UNL     1       5.737  -1.237  -6.087  0.00  0.00    +0.074 C 
ATOM     24  C   UNL     1       4.396  -3.233  -6.927  0.00  0.00    +0.074 C 
ATOM     25  C   UNL     1       2.833   0.170  -3.168  0.00  0.00    +0.015 C 
ATOM     26  F   UNL     1       3.416  -0.795   2.503  0.00  0.00    -0.241 F 
ENDROOT
BRANCH  19  27
ATOM     27  C   UNL     1       2.229  -3.389  -4.459  0.00  0.00    +0.193 C 
ATOM     28  O   UNL     1       2.563  -4.322  -3.769  0.00  0.00    -0.292 OA
BRANCH  27  29
ATOM     29  C   UNL     1       1.151  -3.566  -5.496  0.00  0.00    +0.233 C 
BRANCH  29  30
ATOM     30  O   UNL     1       0.769  -4.942  -5.556  0.00  0.00    -0.387 OA
ATOM     31  H   UNL     1       0.076  -5.130  -6.204  0.00  0.00    +0.210 HD
ENDBRANCH  29  30
ENDBRANCH  27  29
ENDBRANCH  19  27
BRANCH  13  32
ATOM     32  O   UNL     1      -0.536  -2.196  -1.597  0.00  0.00    -0.391 OA
ATOM     33  H   UNL     1      -1.132  -2.557  -2.267  0.00  0.00    +0.210 HD
ENDBRANCH  13  32
TORSDOF 4
