REMARK  Name = ZINC65369151
REMARK  4 active torsions:
REMARK  status: ('A' for Active; 'I' for Inactive)
REMARK    1  A    between atoms: C_4  and  N_13
REMARK    2  A    between atoms: C_6  and  N_7
REMARK    3  A    between atoms: C_20  and  C_22
REMARK    4  A    between atoms: N_24  and  C_25
REMARK                            x       y       z     vdW  Elec       q    Type
REMARK                         _______ _______ _______ _____ _____    ______ ____
ROOT
ATOM      1  N   UNL     1       3.607  -0.767  -0.106  0.00  0.00    -0.267 N 
ATOM      2  C   UNL     1       3.588  -2.111  -0.012  0.00  0.00    +0.307 C 
ATOM      3  O   UNL     1       2.528  -2.704   0.015  0.00  0.00    -0.252 OA
ATOM      4  N   UNL     1       4.747  -2.798   0.053  0.00  0.00    -0.285 N 
ATOM      5  C   UNL     1       6.036  -2.103  -0.058  0.00  0.00    +0.109 C 
ATOM      6  C   UNL     1       6.860  -2.766  -1.167  0.00  0.00    +0.020 C 
ATOM      7  C   UNL     1       6.976  -4.265  -0.883  0.00  0.00    +0.016 C 
ATOM      8  C   UNL     1       5.581  -4.894  -0.875  0.00  0.00    +0.092 C 
ATOM      9  C   UNL     1       4.743  -4.255   0.242  0.00  0.00    +0.122 C 
ATOM     10  H   UNL     1       4.453  -0.295  -0.153  0.00  0.00    +0.156 HD
ENDROOT
BRANCH   1  14
ATOM     11  C   UNL     1       0.025   1.374  -0.195  0.00  0.00    +0.026 A 
ATOM     12  C   UNL     1       1.196   2.002   0.186  0.00  0.00    +0.042 A 
ATOM     13  C   UNL     1       2.385   1.295   0.217  0.00  0.00    +0.145 A 
ATOM     14  C   UNL     1       2.403  -0.051  -0.136  0.00  0.00    +0.072 A 
ATOM     15  C   UNL     1       1.229  -0.682  -0.518  0.00  0.00    +0.049 A 
ATOM     16  C   UNL     1       0.039   0.031  -0.548  0.00  0.00    +0.038 A 
ATOM     17  F   UNL     1       3.528   1.911   0.589  0.00  0.00    -0.204 F 
BRANCH  16  18
ATOM     18  N   UNL     1      -1.148  -0.603  -0.933  0.00  0.00    -0.271 N 
ATOM     19  C   UNL     1      -1.270  -2.041  -1.200  0.00  0.00    +0.114 C 
ATOM     20  C   UNL     1      -2.784  -2.343  -1.155  0.00  0.00    +0.029 C 
ATOM     21  C   UNL     1      -3.391  -0.966  -1.512  0.00  0.00    +0.098 C 
ATOM     22  C   UNL     1      -2.325   0.025  -1.101  0.00  0.00    +0.220 C 
ATOM     23  O   UNL     1      -2.505   1.215  -0.947  0.00  0.00    -0.275 OA
ENDBRANCH  16  18
ENDBRANCH   1  14
BRANCH   8  24
ATOM     24  C   UNL     1       5.699  -6.376  -0.627  0.00  0.00    +0.218 C 
ATOM     25  O   UNL     1       6.791  -6.880  -0.472  0.00  0.00    -0.275 OA
ATOM     26  N   UNL     1       4.591  -7.142  -0.578  0.00  0.00    -0.312 N 
ATOM     27  H   UNL     1       3.717  -6.739  -0.702  0.00  0.00    +0.149 HD
BRANCH  26  28
ATOM     28  C   UNL     1       4.706  -8.582  -0.338  0.00  0.00    +0.073 C 
ATOM     29  C   UNL     1       3.846  -9.513  -1.196  0.00  0.00    +0.024 C 
ATOM     30  C   UNL     1       3.499  -9.294   0.279  0.00  0.00    +0.024 C 
ENDBRANCH  26  28
ENDBRANCH   8  24
TORSDOF 4
