REMARK  Name = ZINC02965327
REMARK  10 active torsions:
REMARK  status: ('A' for Active; 'I' for Inactive)
REMARK    1  A    between atoms: C_1  and  N_2
REMARK    2  A    between atoms: N_2  and  C_3
REMARK    3  A    between atoms: C_3  and  N_5
REMARK    4  A    between atoms: N_5  and  C_6
REMARK    5  A    between atoms: N_5  and  C_18
REMARK    6  A    between atoms: C_6  and  C_7
REMARK    7  A    between atoms: C_7  and  C_8
REMARK    8  A    between atoms: C_11  and  S_14
REMARK    9  A    between atoms: S_14  and  N_17
REMARK   10  A    between atoms: N_23  and  C_26
REMARK                            x       y       z     vdW  Elec       q    Type
REMARK                         _______ _______ _______ _____ _____    ______ ____
ROOT
ATOM      1  N   UNL     1       0.551  -2.033   1.059  0.00  0.00    -0.300 N 
ENDROOT
BRANCH   1   2
ATOM      2  C   UNL     1      -0.094  -2.761  -0.036  0.00  0.00    +0.171 C 
ATOM      3  C   UNL     1       0.808  -3.910  -0.529  0.00  0.00    +0.128 C 
ATOM      4  C   UNL     1      -0.020  -5.149  -0.264  0.00  0.00    +0.228 C 
ATOM      5  O   UNL     1       0.321  -6.287  -0.508  0.00  0.00    -0.275 OA
ATOM      6  N   UNL     1      -1.188  -4.790   0.281  0.00  0.00    -0.209 N 
ATOM      7  C   UNL     1      -1.339  -3.467   0.454  0.00  0.00    +0.247 C 
ATOM      8  O   UNL     1      -2.314  -2.924   0.927  0.00  0.00    -0.273 OA
BRANCH   6   9
ATOM      9  C   UNL     1      -2.175  -5.718   0.641  0.00  0.00    +0.044 A 
ATOM     10  C   UNL     1      -3.459  -5.603   0.126  0.00  0.00    +0.024 A 
ATOM     11  C   UNL     1      -4.429  -6.519   0.483  0.00  0.00    +0.002 A 
ATOM     12  C   UNL     1      -4.122  -7.550   1.351  0.00  0.00    +0.000 A 
ATOM     13  C   UNL     1      -2.844  -7.668   1.866  0.00  0.00    +0.002 A 
ATOM     14  C   UNL     1      -1.869  -6.758   1.509  0.00  0.00    +0.024 A 
ENDBRANCH   6   9
ENDBRANCH   1   2
BRANCH   1  15
ATOM     15  C   UNL     1       0.622  -0.687   1.025  0.00  0.00    +0.133 C 
ATOM     16  S   UNL     1       1.496   0.155   2.231  0.00  0.00    -0.019 S 
BRANCH  15  18
ATOM     17  C   UNL     1      -0.011   1.460   0.061  0.00  0.00    +0.127 C 
ATOM     18  N   UNL     1       0.004  -0.005   0.040  0.00  0.00    -0.329 N 
ATOM     19  H   UNL     1      -0.430  -0.484  -0.683  0.00  0.00    +0.147 HD
ENDBRANCH  15  18
ENDBRANCH   1  15
BRANCH   1  20
ATOM     20  C   UNL     1       1.119  -2.767   2.193  0.00  0.00    +0.112 C 
BRANCH  20  21
ATOM     21  C   UNL     1       0.051  -2.938   3.276  0.00  0.00    +0.054 C 
BRANCH  21  22
ATOM     22  C   UNL     1       0.635  -3.694   4.441  0.00  0.00    -0.046 A 
ATOM     23  C   UNL     1       0.568  -5.074   4.474  0.00  0.00    +0.005 A 
ATOM     24  C   UNL     1       1.103  -5.767   5.544  0.00  0.00    +0.029 A 
ATOM     25  C   UNL     1       1.707  -5.080   6.580  0.00  0.00    +0.105 A 
ATOM     26  C   UNL     1       1.775  -3.699   6.547  0.00  0.00    +0.029 A 
ATOM     27  C   UNL     1       1.244  -3.007   5.475  0.00  0.00    +0.005 A 
BRANCH  25  28
ATOM     28  S   UNL     1       2.389  -5.963   7.944  0.00  0.00    +0.056 S 
ATOM     29  O   UNL     1       2.412  -5.061   9.041  0.00  0.00    -0.153 OA
ATOM     30  O   UNL     1       1.712  -7.211   7.998  0.00  0.00    -0.153 OA
BRANCH  28  31
ATOM     31  N   UNL     1       3.968  -6.296   7.572  0.00  0.00    -0.204 NA
ATOM     32  H   UNL     1       4.628  -6.367   8.278  0.00  0.00    +0.144 HD
ATOM     33  H   UNL     1       4.232  -6.420   6.646  0.00  0.00    +0.144 HD
ENDBRANCH  28  31
ENDBRANCH  25  28
ENDBRANCH  21  22
ENDBRANCH  20  21
ENDBRANCH   1  20
TORSDOF 9
