REMARK  Name = ZINC63328836
REMARK  8 active torsions:
REMARK  status: ('A' for Active; 'I' for Inactive)
REMARK    1  A    between atoms: C_1  and  O_2
REMARK    2  A    between atoms: O_2  and  C_3
REMARK    3  A    between atoms: C_10  and  C_18
REMARK    4  A    between atoms: C_21  and  O_33
REMARK    5  A    between atoms: C_22  and  C_24
REMARK    6  A    between atoms: C_24  and  N_25
REMARK    7  A    between atoms: C_27  and  N_30
REMARK    8  A    between atoms: O_33  and  C_34
REMARK                            x       y       z     vdW  Elec       q    Type
REMARK                         _______ _______ _______ _____ _____    ______ ____
ROOT
ATOM      1  C   UNL     1       4.112  -5.033   5.061  0.00  0.00    -0.028 A 
ATOM      2  C   UNL     1       3.607  -6.013   5.894  0.00  0.00    +0.009 A 
ATOM      3  C   UNL     1       4.168  -6.220   7.139  0.00  0.00    +0.046 A 
ATOM      4  C   UNL     1       5.240  -5.443   7.553  0.00  0.00    +0.125 A 
ATOM      5  C   UNL     1       5.746  -4.460   6.715  0.00  0.00    +0.010 A 
ATOM      6  C   UNL     1       5.184  -4.261   5.468  0.00  0.00    +0.013 A 
ENDROOT
BRANCH   1  13
ATOM      7  C   UNL     1       0.626  -0.619   1.042  0.00  0.00    +0.121 A 
ATOM      8  C   UNL     1       1.202   0.173   2.051  0.00  0.00    +0.047 A 
ATOM      9  C   UNL     1       1.834  -0.360   3.118  0.00  0.00    +0.029 A 
ATOM     10  C   UNL     1       1.938  -1.815   3.253  0.00  0.00    +0.043 A 
ATOM     11  N   UNL     1       2.509  -2.572   4.162  0.00  0.00    -0.376 N 
ATOM     12  C   UNL     1       2.226  -3.968   3.844  0.00  0.00    +0.128 C 
ATOM     13  C   UNL     1       3.498  -4.809   3.703  0.00  0.00    +0.111 C 
ATOM     14  N   UNL     1       3.133  -6.103   3.104  0.00  0.00    -0.307 NA
ATOM     15  C   UNL     1       2.669  -5.988   1.718  0.00  0.00    +0.086 C 
ATOM     16  C   UNL     1       1.347  -5.199   1.668  0.00  0.00    +0.048 C 
ATOM     17  C   UNL     1       1.553  -3.941   2.481  0.00  0.00    -0.035 C 
ATOM     18  C   UNL     1       1.340  -2.654   2.184  0.00  0.00    +0.003 A 
ATOM     19  C   UNL     1       0.666  -1.971   1.072  0.00  0.00    +0.055 A 
ATOM     20  H   UNL     1       3.893  -6.762   3.177  0.00  0.00    +0.123 HD
ATOM     21  H   UNL     1       3.030  -2.257   4.917  0.00  0.00    +0.160 HD
BRANCH   7  23
ATOM     22  C   UNL     1      -0.017   1.425   0.010  0.00  0.00    +0.277 C 
ATOM     23  O   UNL     1       0.002  -0.004   0.002  0.00  0.00    -0.495 OA
ENDBRANCH   7  23
ENDBRANCH   1  13
BRANCH   4  24
ATOM     24  O   UNL     1       5.794  -5.644   8.778  0.00  0.00    -0.495 OA
ATOM     25  C   UNL     1       5.221  -6.673   9.588  0.00  0.00    +0.277 C 
ENDBRANCH   4  24
BRANCH   5  26
ATOM     26  C   UNL     1       6.910  -3.614   7.161  0.00  0.00    +0.144 C 
BRANCH  26  27
ATOM     27  N   UNL     1       6.449  -2.628   8.148  0.00  0.00    -0.219 NA
ATOM     28  C   UNL     1       7.577  -1.821   8.656  0.00  0.00    +0.167 C 
ATOM     29  C   UNL     1       7.207  -0.397   8.299  0.00  0.00    +0.134 C 
ATOM     30  C   UNL     1       6.041  -0.448   7.687  0.00  0.00    +0.114 C 
ATOM     31  N   UNL     1       5.574  -1.744   7.584  0.00  0.00    -0.282 N 
ATOM     32  H   UNL     1       4.735  -1.993   7.166  0.00  0.00    +0.166 HD
BRANCH  29  33
ATOM     33  N   UNL     1       8.000   0.819   8.585  0.00  0.00    +0.055 N 
ATOM     34  O   UNL     1       7.588   1.904   8.245  0.00  0.00    -0.126 OA
ATOM     35  O   UNL     1       9.061   0.728   9.159  0.00  0.00    -0.126 OA
ENDBRANCH  29  33
ENDBRANCH  26  27
ENDBRANCH   5  26
TORSDOF 6
