REMARK  Name = ZINC64069772
REMARK  7 active torsions:
REMARK  status: ('A' for Active; 'I' for Inactive)
REMARK    1  A    between atoms: C_1  and  C_2
REMARK    2  A    between atoms: C_2  and  N_3
REMARK    3  A    between atoms: N_14  and  N_15
REMARK    4  A    between atoms: C_16  and  C_18
REMARK    5  A    between atoms: C_18  and  C_19
REMARK    6  A    between atoms: C_22  and  C_30
REMARK    7  A    between atoms: C_27  and  C_29
REMARK                            x       y       z     vdW  Elec       q    Type
REMARK                         _______ _______ _______ _____ _____    ______ ____
ROOT
ATOM      1  N   UNL     1      -2.109  -0.862   3.463  0.00  0.00    -0.234 N 
ATOM      2  C   UNL     1      -3.437  -0.632   3.482  0.00  0.00    +0.233 C 
ATOM      3  O   UNL     1      -4.011  -0.305   2.464  0.00  0.00    -0.274 OA
ATOM      4  H   UNL     1      -1.651  -1.123   4.277  0.00  0.00    +0.173 HD
ENDROOT
BRANCH   1  16
ATOM      5  N   UNL     1       0.628  -0.816   1.067  0.00  0.00    -0.280 N 
ATOM      6  C   UNL     1       1.963  -1.030   1.001  0.00  0.00    +0.263 A 
ATOM      7  O   UNL     1       2.572  -0.901  -0.045  0.00  0.00    -0.267 OA
ATOM      8  C   UNL     1       2.649  -1.425   2.239  0.00  0.00    +0.065 A 
ATOM      9  C   UNL     1       4.022  -1.669   2.275  0.00  0.00    +0.015 A 
ATOM     10  C   UNL     1       4.610  -2.033   3.454  0.00  0.00    +0.001 A 
ATOM     11  C   UNL     1       3.856  -2.163   4.613  0.00  0.00    +0.002 A 
ATOM     12  C   UNL     1       2.510  -1.930   4.606  0.00  0.00    +0.028 A 
ATOM     13  C   UNL     1       1.879  -1.556   3.416  0.00  0.00    +0.080 A 
ATOM     14  N   UNL     1       0.548  -1.315   3.363  0.00  0.00    -0.214 NA
ATOM     15  C   UNL     1      -0.040  -0.959   2.248  0.00  0.00    +0.216 A 
ATOM     16  N   UNL     1      -1.391  -0.725   2.268  0.00  0.00    -0.234 N 
ATOM     17  H   UNL     1      -1.850  -0.464   1.454  0.00  0.00    +0.173 HD
BRANCH   5  19
ATOM     18  C   UNL     1      -0.115   1.106  -0.251  0.00  0.00    +0.027 C 
ATOM     19  C   UNL     1      -0.104  -0.420  -0.138  0.00  0.00    +0.125 C 
ENDBRANCH   5  19
ENDBRANCH   1  16
BRANCH   2  20
ATOM     20  C   UNL     1      -4.209  -0.780   4.767  0.00  0.00    +0.130 C 
BRANCH  20  21
ATOM     21  C   UNL     1      -5.635  -0.344   4.550  0.00  0.00    -0.030 C 
ATOM     22  C   UNL     1      -6.157   0.880   4.792  0.00  0.00    -0.000 A 
ATOM     23  C   UNL     1      -5.576   2.124   5.311  0.00  0.00    +0.013 A 
ATOM     24  C   UNL     1      -6.369   3.212   5.447  0.00  0.00    -0.050 A 
ATOM     25  C   UNL     1      -7.728   3.181   5.104  0.00  0.00    +0.005 A 
ATOM     26  C   UNL     1      -8.333   2.075   4.621  0.00  0.00    +0.026 A 
ATOM     27  C   UNL     1      -7.595   0.874   4.437  0.00  0.00    +0.043 A 
ATOM     28  N   UNL     1      -7.947  -0.308   3.993  0.00  0.00    -0.378 N 
ATOM     29  C   UNL     1      -6.771  -1.185   4.010  0.00  0.00    +0.104 C 
ATOM     30  C   UNL     1      -7.023  -2.382   4.928  0.00  0.00    +0.035 C 
ATOM     31  C   UNL     1      -5.775   4.490   5.980  0.00  0.00    +0.044 C 
ATOM     32  H   UNL     1      -8.837  -0.560   3.699  0.00  0.00    +0.160 HD
ENDBRANCH  20  21
ENDBRANCH   2  20
TORSDOF 4
