REMARK  Name = ZINC28137848
REMARK  7 active torsions:
REMARK  status: ('A' for Active; 'I' for Inactive)
REMARK    1  A    between atoms: N_7  and  C_8
REMARK    2  A    between atoms: C_8  and  N_10
REMARK    3  A    between atoms: N_10  and  C_11
REMARK    4  A    between atoms: C_11  and  C_13
REMARK    5  A    between atoms: C_11  and  N_17
REMARK    6  A    between atoms: C_18  and  C_20
REMARK    7  A    between atoms: C_21  and  C_22
REMARK                            x       y       z     vdW  Elec       q    Type
REMARK                         _______ _______ _______ _____ _____    ______ ____
ROOT
ATOM      1  C   UNL     1      -0.013   1.089   0.017  0.00  0.00    +0.211 C 
ENDROOT
BRANCH   1   2
ATOM      2  C   UNL     1      -0.756   1.598  -1.219  0.00  0.00    +0.225 C 
ATOM      3 CL   UNL     1       0.083   1.019  -2.706  0.00  0.00    -0.080 Cl
ATOM      4 CL   UNL     1      -2.448   0.975  -1.203  0.00  0.00    -0.080 Cl
ATOM      5 CL   UNL     1      -0.780   3.401  -1.206  0.00  0.00    -0.080 Cl
ENDBRANCH   1   2
BRANCH   1   6
ATOM      6  N   UNL     1      -0.696   1.560   1.225  0.00  0.00    -0.290 N 
ATOM      7  C   UNL     1      -0.916   0.711   2.249  0.00  0.00    +0.238 C 
ATOM      8  O   UNL     1      -0.549  -0.447   2.170  0.00  0.00    -0.271 OA
ATOM      9  H   UNL     1      -1.028   2.606   1.297  0.00  0.00    +0.151 HD
BRANCH   7  10
ATOM     10  C   UNL     1      -1.598   1.181   3.456  0.00  0.00    +0.068 C 
ATOM     11  C   UNL     1      -1.819   0.332   4.480  0.00  0.00    +0.013 C 
BRANCH  11  12
ATOM     12  C   UNL     1      -2.504   0.805   5.693  0.00  0.00    -0.025 A 
ATOM     13  C   UNL     1      -2.923   2.136   5.790  0.00  0.00    +0.009 A 
ATOM     14  C   UNL     1      -3.568   2.571   6.928  0.00  0.00    +0.016 A 
ATOM     15  C   UNL     1      -3.793   1.696   7.978  0.00  0.00    +0.018 A 
ATOM     16  C   UNL     1      -3.377   0.378   7.891  0.00  0.00    +0.016 A 
ATOM     17  C   UNL     1      -2.735  -0.073   6.757  0.00  0.00    +0.009 A 
ATOM     18 BR   UNL     1      -4.672   2.304   9.538  0.00  0.00    -0.050 Br
ENDBRANCH  11  12
ENDBRANCH   7  10
ENDBRANCH   1   6
BRANCH   1  19
ATOM     19  N   UNL     1       1.361   1.595   0.004  0.00  0.00    -0.305 N 
ATOM     20  H   UNL     1       1.556   2.650  -0.237  0.00  0.00    +0.150 HD
BRANCH  19  21
ATOM     21  C   UNL     1       2.387   0.768   0.288  0.00  0.00    +0.137 C 
ATOM     22  S   UNL     1       2.083  -0.875   0.664  0.00  0.00    -0.018 S 
BRANCH  21  29
ATOM     23  C   UNL     1       7.022   0.096   1.159  0.00  0.00    +0.005 A 
ATOM     24  C   UNL     1       6.731  -1.229   1.455  0.00  0.00    +0.020 A 
ATOM     25  C   UNL     1       5.429  -1.675   1.347  0.00  0.00    +0.113 A 
ATOM     26  N   UNL     1       4.463  -0.859   0.971  0.00  0.00    -0.240 NA
ATOM     27  C   UNL     1       4.701   0.408   0.674  0.00  0.00    +0.124 A 
ATOM     28  C   UNL     1       5.989   0.926   0.762  0.00  0.00    +0.044 A 
ATOM     29  N   UNL     1       3.651   1.233   0.276  0.00  0.00    -0.282 N 
ATOM     30  H   UNL     1       3.855   2.264  -0.049  0.00  0.00    +0.155 HD
ENDBRANCH  21  29
ENDBRANCH  19  21
ENDBRANCH   1  19
TORSDOF 7
