REMARK  Name = ZINC40730123
REMARK  6 active torsions:
REMARK  status: ('A' for Active; 'I' for Inactive)
REMARK    1  A    between atoms: C_4  and  C_7
REMARK    2  A    between atoms: C_7  and  C_8
REMARK    3  A    between atoms: C_7  and  N_14
REMARK    4  A    between atoms: C_21  and  N_33
REMARK    5  A    between atoms: C_22  and  O_26
REMARK    6  A    between atoms: O_26  and  C_27
REMARK                            x       y       z     vdW  Elec       q    Type
REMARK                         _______ _______ _______ _____ _____    ______ ____
ROOT
ATOM      1  N   UNL     1       3.654  -1.889  -0.905  0.00  0.00    -0.289 NA
ATOM      2  C   UNL     1       3.186  -1.499  -2.242  0.00  0.00    +0.104 C 
ATOM      3  C   UNL     1       2.932  -2.758  -3.078  0.00  0.00    +0.122 C 
ATOM      4  N   UNL     1       4.148  -3.584  -3.061  0.00  0.00    -0.311 N 
ATOM      5  C   UNL     1       4.755  -3.902  -1.759  0.00  0.00    +0.122 C 
ATOM      6  C   UNL     1       4.938  -2.598  -0.976  0.00  0.00    +0.104 C 
ATOM      7  C   UNL     1       4.709  -4.051  -4.242  0.00  0.00    +0.149 A 
ATOM      8  C   UNL     1       4.361  -5.308  -4.745  0.00  0.00    +0.127 A 
ATOM      9  C   UNL     1       4.953  -5.728  -5.934  0.00  0.00    +0.241 A 
ATOM     10  N   UNL     1       5.821  -4.925  -6.542  0.00  0.00    -0.200 NA
ATOM     11  C   UNL     1       6.123  -3.747  -6.035  0.00  0.00    +0.227 A 
ATOM     12  N   UNL     1       5.583  -3.308  -4.916  0.00  0.00    -0.219 NA
ENDROOT
BRANCH   8  13
ATOM     13  N   UNL     1       3.439  -6.124  -4.071  0.00  0.00    -0.351 N 
ATOM     14  H   UNL     1       2.969  -5.785  -3.293  0.00  0.00    +0.143 HD
ATOM     15  H   UNL     1       3.272  -7.027  -4.382  0.00  0.00    +0.143 HD
ENDBRANCH   8  13
BRANCH   1  16
ATOM     16  C   UNL     1       3.745  -0.721  -0.018  0.00  0.00    +0.117 C 
BRANCH  16  20
ATOM     17  C   UNL     1      -0.035   1.265   0.113  0.00  0.00    +0.000 A 
ATOM     18  C   UNL     1       1.133   2.003   0.072  0.00  0.00    +0.000 A 
ATOM     19  C   UNL     1       2.356   1.361   0.030  0.00  0.00    +0.005 A 
ATOM     20  C   UNL     1       2.412  -0.020   0.029  0.00  0.00    -0.026 A 
ATOM     21  C   UNL     1       1.244  -0.759   0.071  0.00  0.00    +0.005 A 
ATOM     22  C   UNL     1       0.021  -0.116   0.111  0.00  0.00    +0.000 A 
ENDBRANCH  16  20
BRANCH  16  23
ATOM     23  C   UNL     1       4.125  -1.172   1.369  0.00  0.00    -0.026 A 
ATOM     24  C   UNL     1       3.580  -2.330   1.892  0.00  0.00    +0.005 A 
ATOM     25  C   UNL     1       3.928  -2.744   3.165  0.00  0.00    +0.000 A 
ATOM     26  C   UNL     1       4.822  -2.000   3.913  0.00  0.00    +0.000 A 
ATOM     27  C   UNL     1       5.367  -0.843   3.389  0.00  0.00    +0.000 A 
ATOM     28  C   UNL     1       5.022  -0.431   2.115  0.00  0.00    +0.005 A 
ENDBRANCH  16  23
ENDBRANCH   1  16
BRANCH   9  29
ATOM     29  O   UNL     1       4.648  -6.940  -6.464  0.00  0.00    -0.472 OA
BRANCH  29  30
ATOM     30  C   UNL     1       5.299  -7.296  -7.686  0.00  0.00    +0.175 C 
ATOM     31  C   UNL     1       4.453  -6.824  -8.870  0.00  0.00    +0.044 C 
ATOM     32  C   UNL     1       5.149  -7.205 -10.178  0.00  0.00    +0.004 C 
ATOM     33  C   UNL     1       5.316  -8.725 -10.243  0.00  0.00    +0.000 C 
ATOM     34  C   UNL     1       6.162  -9.196  -9.059  0.00  0.00    +0.004 C 
ATOM     35  C   UNL     1       5.466  -8.815  -7.751  0.00  0.00    +0.044 C 
ENDBRANCH  29  30
ENDBRANCH   9  29
TORSDOF 6
