REMARK  Name = ZINC66603955
REMARK  9 active torsions:
REMARK  status: ('A' for Active; 'I' for Inactive)
REMARK    1  A    between atoms: C_1  and  C_2
REMARK    2  A    between atoms: C_2  and  C_4
REMARK    3  A    between atoms: C_2  and  N_20
REMARK    4  A    between atoms: C_4  and  C_5
REMARK    5  A    between atoms: N_7  and  N_8
REMARK    6  A    between atoms: C_9  and  C_11
REMARK    7  A    between atoms: C_16  and  O_17
REMARK    8  A    between atoms: O_17  and  C_18
REMARK    9  A    between atoms: C_21  and  C_23
REMARK                            x       y       z     vdW  Elec       q    Type
REMARK                         _______ _______ _______ _____ _____    ______ ____
ROOT
ATOM      1  C   UNL     1      -1.416  -2.035  -0.119  0.00  0.00    +0.231 C 
ATOM      2  O   UNL     1      -0.359  -2.623  -0.213  0.00  0.00    -0.274 OA
ATOM      3  N   UNL     1      -2.574  -2.724  -0.133  0.00  0.00    -0.234 N 
ATOM      4  H   UNL     1      -3.419  -2.253  -0.058  0.00  0.00    +0.173 HD
ENDROOT
BRANCH   3   5
ATOM      5  N   UNL     1      -2.558  -4.119  -0.256  0.00  0.00    -0.230 N 
ATOM      6  C   UNL     1      -3.717  -4.808  -0.270  0.00  0.00    +0.264 C 
ATOM      7  O   UNL     1      -4.776  -4.218  -0.176  0.00  0.00    -0.269 OA
ATOM      8  H   UNL     1      -1.713  -4.590  -0.331  0.00  0.00    +0.173 HD
BRANCH   6   9
ATOM      9  C   UNL     1      -3.700  -6.277  -0.399  0.00  0.00    +0.080 A 
ATOM     10  C   UNL     1      -2.484  -6.959  -0.502  0.00  0.00    +0.018 A 
ATOM     11  C   UNL     1      -2.475  -8.331  -0.622  0.00  0.00    +0.021 A 
ATOM     12  C   UNL     1      -3.667  -9.040  -0.643  0.00  0.00    +0.044 A 
ATOM     13  C   UNL     1      -4.875  -8.377  -0.543  0.00  0.00    +0.066 A 
ATOM     14  C   UNL     1      -4.902  -6.997  -0.414  0.00  0.00    +0.134 A 
ATOM     15 CL   UNL     1      -3.640 -10.769  -0.795  0.00  0.00    -0.083 Cl
BRANCH  14  16
ATOM     16  O   UNL     1      -6.088  -6.345  -0.310  0.00  0.00    -0.494 OA
ATOM     17  C   UNL     1      -7.272  -7.145  -0.333  0.00  0.00    +0.277 C 
ENDBRANCH  14  16
ENDBRANCH   6   9
ENDBRANCH   3   5
BRANCH   1  18
ATOM     18  C   UNL     1      -1.433  -0.534   0.013  0.00  0.00    +0.119 C 
BRANCH  18  20
ATOM     19  C   UNL     1      -0.019   1.526   0.010  0.00  0.00    +0.028 C 
ATOM     20  C   UNL     1       0.002  -0.004   0.002  0.00  0.00    +0.079 C 
BRANCH  20  21
ATOM     21  N   UNL     1       0.711  -0.489   1.189  0.00  0.00    -0.312 N 
ATOM     22  C   UNL     1       2.054  -0.600   1.174  0.00  0.00    +0.216 C 
ATOM     23  O   UNL     1       2.676  -0.297   0.177  0.00  0.00    -0.276 OA
ATOM     24  H   UNL     1       0.213  -0.731   1.986  0.00  0.00    +0.149 HD
BRANCH  22  25
ATOM     25  C   UNL     1       2.783  -1.099   2.395  0.00  0.00    +0.075 C 
ATOM     26  C   UNL     1       2.502  -0.165   3.574  0.00  0.00    +0.013 C 
ATOM     27  C   UNL     1       3.242  -0.672   4.813  0.00  0.00    +0.001 C 
ATOM     28  C   UNL     1       4.746  -0.702   4.533  0.00  0.00    +0.000 C 
ATOM     29  C   UNL     1       5.026  -1.635   3.354  0.00  0.00    +0.001 C 
ATOM     30  C   UNL     1       4.287  -1.129   2.114  0.00  0.00    +0.013 C 
ENDBRANCH  22  25
ENDBRANCH  20  21
ENDBRANCH  18  20
ENDBRANCH   1  18
TORSDOF 7
