REMARK  Name = ZINC35780983
REMARK  14 active torsions:
REMARK  status: ('A' for Active; 'I' for Inactive)
REMARK    1  A    between atoms: C_1  and  C_2
REMARK    2  A    between atoms: C_2  and  C_3
REMARK    3  A    between atoms: C_2  and  C_4
REMARK    4  A    between atoms: C_4  and  N_5
REMARK    5  A    between atoms: N_5  and  C_6
REMARK    6  A    between atoms: N_5  and  C_21
REMARK    7  A    between atoms: C_6  and  C_7
REMARK    8  A    between atoms: C_14  and  C_18
REMARK    9  A    between atoms: C_18  and  C_19
REMARK   10  A    between atoms: C_18  and  C_20
REMARK   11  A    between atoms: C_21  and  C_22
REMARK   12  A    between atoms: C_22  and  C_24
REMARK   13  A    between atoms: C_22  and  O_31
REMARK   14  A    between atoms: C_24  and  C_25
REMARK                            x       y       z     vdW  Elec       q    Type
REMARK                         _______ _______ _______ _____ _____    ______ ____
ROOT
ATOM      1  N   UNL     1      -1.008  -2.240   0.068  0.00  0.00    +0.386 N 
ATOM      2  H   UNL     1      -0.444  -1.721  -0.588  0.00  0.00    -0.081 HD
ENDROOT
BRANCH   1   3
ATOM      3  C   UNL     1      -1.331  -1.386   1.219  0.00  0.00    -0.075 C 
BRANCH   3   5
ATOM      4  C   UNL     1      -2.486   0.719   1.911  0.00  0.00    +0.005 C 
ATOM      5  C   UNL     1      -1.927  -0.067   0.723  0.00  0.00    -0.034 C 
ATOM      6  C   UNL     1      -0.837   0.758   0.034  0.00  0.00    +0.005 C 
ENDBRANCH   3   5
ENDBRANCH   1   3
BRANCH   1   7
ATOM      7  C   UNL     1      -2.250  -2.670  -0.587  0.00  0.00    -0.003 C 
BRANCH   7   8
ATOM      8  C   UNL     1      -2.649  -1.653  -1.625  0.00  0.00    +0.094 A 
ATOM      9  N   UNL     1      -3.855  -1.764  -2.239  0.00  0.00    -0.312 N 
ATOM     10  H   UNL     1      -4.444  -2.497  -2.000  0.00  0.00    +0.170 HD
ATOM     11  C   UNL     1      -4.251  -0.877  -3.171  0.00  0.00    +0.260 A 
ATOM     12  O   UNL     1      -5.337  -0.991  -3.712  0.00  0.00    -0.267 OA
ATOM     13  C   UNL     1      -3.375   0.203  -3.516  0.00  0.00    +0.072 A 
ATOM     14  C   UNL     1      -3.568   1.274  -4.476  0.00  0.00    +0.027 A 
ATOM     15  C   UNL     1      -2.601   2.191  -4.639  0.00  0.00    -0.005 A 
ATOM     16  S   UNL     1      -1.340   1.668  -3.492  0.00  0.00    -0.073 S 
ATOM     17  C   UNL     1      -2.148   0.235  -2.829  0.00  0.00    +0.116 A 
ATOM     18  N   UNL     1      -1.831  -0.677  -1.914  0.00  0.00    -0.229 NA
BRANCH  15  19
ATOM     19  C   UNL     1      -2.585   3.377  -5.568  0.00  0.00    +0.020 C 
ATOM     20  C   UNL     1      -2.442   4.663  -4.751  0.00  0.00    +0.013 C 
ATOM     21  C   UNL     1      -1.405   3.252  -6.534  0.00  0.00    +0.013 C 
ENDBRANCH  15  19
ENDBRANCH   7   8
ENDBRANCH   1   7
BRANCH   1  22
ATOM     22  C   UNL     1      -0.263  -3.420   0.528  0.00  0.00    -0.046 C 
BRANCH  22  23
ATOM     23  C   UNL     1       1.103  -2.984   1.063  0.00  0.00    +0.102 C 
BRANCH  23  24
ATOM     24  O   UNL     1       1.853  -2.372   0.011  0.00  0.00    -0.393 OA
ATOM     25  H   UNL     1       2.014  -2.951  -0.746  0.00  0.00    +0.210 HD
ENDBRANCH  23  24
BRANCH  23  26
ATOM     26  C   UNL     1       1.861  -4.207   1.584  0.00  0.00    +0.064 C 
BRANCH  26  27
ATOM     27  C   UNL     1       3.152  -3.764   2.221  0.00  0.00    -0.045 A 
ATOM     28  C   UNL     1       4.300  -3.660   1.457  0.00  0.00    +0.004 A 
ATOM     29  C   UNL     1       5.485  -3.253   2.042  0.00  0.00    +0.000 A 
ATOM     30  C   UNL     1       5.522  -2.950   3.390  0.00  0.00    +0.000 A 
ATOM     31  C   UNL     1       4.374  -3.053   4.154  0.00  0.00    +0.000 A 
ATOM     32  C   UNL     1       3.188  -3.455   3.568  0.00  0.00    +0.004 A 
ENDBRANCH  26  27
ENDBRANCH  23  26
ENDBRANCH  22  23
ENDBRANCH   1  22
TORSDOF 10
