REMARK  Name = ZINC40815281
REMARK  7 active torsions:
REMARK  status: ('A' for Active; 'I' for Inactive)
REMARK    1  A    between atoms: C_1  and  C_2
REMARK    2  A    between atoms: C_5  and  S_8
REMARK    3  A    between atoms: S_8  and  N_11
REMARK    4  A    between atoms: N_11  and  N_12
REMARK    5  A    between atoms: C_19  and  C_32
REMARK    6  A    between atoms: C_20  and  C_22
REMARK    7  A    between atoms: N_24  and  C_25
REMARK                            x       y       z     vdW  Elec       q    Type
REMARK                         _______ _______ _______ _____ _____    ______ ____
ROOT
ATOM      1  N   UNL     1       2.495  -4.631   1.022  0.00  0.00    -0.170 NA
ATOM      2  C   UNL     1       3.737  -5.003   1.016  0.00  0.00    +0.071 C 
ATOM      3  C   UNL     1       4.330  -5.849  -0.102  0.00  0.00    +0.058 C 
ATOM      4  C   UNL     1       5.232  -6.914   0.530  0.00  0.00    +0.014 C 
ATOM      5  C   UNL     1       6.424  -6.263   1.237  0.00  0.00    +0.075 C 
ATOM      6  C   UNL     1       5.924  -5.216   2.199  0.00  0.00    +0.115 A 
ATOM      7  C   UNL     1       4.684  -4.632   2.093  0.00  0.00    +0.042 A 
ATOM      8  C   UNL     1       4.558  -3.713   3.141  0.00  0.00    +0.009 A 
ATOM      9  C   UNL     1       5.732  -3.767   3.840  0.00  0.00    +0.193 A 
ATOM     10  O   UNL     1       6.538  -4.686   3.256  0.00  0.00    -0.454 OA
ATOM     11  C   UNL     1       3.368  -2.838   3.439  0.00  0.00    +0.048 C 
ENDROOT
BRANCH   9  12
ATOM     12  C   UNL     1       6.059  -2.973   5.029  0.00  0.00    +0.284 C 
ATOM     13  O   UNL     1       5.249  -2.181   5.474  0.00  0.00    -0.266 OA
ATOM     14  N   UNL     1       7.257  -3.120   5.630  0.00  0.00    -0.279 N 
ATOM     15  H   UNL     1       7.876  -3.797   5.317  0.00  0.00    +0.155 HD
BRANCH  14  16
ATOM     16  C   UNL     1       7.606  -2.295   6.704  0.00  0.00    +0.034 A 
ATOM     17  C   UNL     1       8.923  -1.883   6.865  0.00  0.00    +0.026 A 
ATOM     18  C   UNL     1       9.266  -1.069   7.927  0.00  0.00    +0.040 A 
ATOM     19  C   UNL     1       8.299  -0.663   8.830  0.00  0.00    +0.124 A 
ATOM     20  C   UNL     1       6.985  -1.073   8.672  0.00  0.00    +0.040 A 
ATOM     21  C   UNL     1       6.637  -1.882   7.609  0.00  0.00    +0.026 A 
ATOM     22  F   UNL     1       8.636   0.133   9.868  0.00  0.00    -0.205 F 
ENDBRANCH  14  16
ENDBRANCH   9  12
BRANCH   1  23
ATOM     23  N   UNL     1       1.644  -5.011  -0.024  0.00  0.00    -0.136 N 
ATOM     24  H   UNL     1       1.984  -5.554  -0.753  0.00  0.00    +0.197 HD
BRANCH  23  25
ATOM     25  S   UNL     1       0.058  -4.535  -0.016  0.00  0.00    +0.086 S 
ATOM     26  O   UNL     1      -0.482  -4.945   1.233  0.00  0.00    -0.149 OA
ATOM     27  O   UNL     1      -0.496  -4.947  -1.258  0.00  0.00    -0.149 OA
BRANCH  25  32
ATOM     28  C   UNL     1       0.003   1.498  -0.021  0.00  0.00    +0.044 C 
ATOM     29  C   UNL     1       0.017  -0.009  -0.020  0.00  0.00    -0.050 A 
ATOM     30  C   UNL     1       0.018  -0.701  -1.216  0.00  0.00    +0.005 A 
ATOM     31  C   UNL     1       0.031  -2.083  -1.215  0.00  0.00    +0.029 A 
ATOM     32  C   UNL     1       0.043  -2.773  -0.017  0.00  0.00    +0.110 A 
ATOM     33  C   UNL     1       0.043  -2.081   1.179  0.00  0.00    +0.029 A 
ATOM     34  C   UNL     1       0.034  -0.699   1.178  0.00  0.00    +0.005 A 
ENDBRANCH  25  32
ENDBRANCH  23  25
ENDBRANCH   1  23
TORSDOF 5
