REMARK  Name = ZINC01241084
REMARK  4 active torsions:
REMARK  status: ('A' for Active; 'I' for Inactive)
REMARK    1  A    between atoms: C_1  and  O_2
REMARK    2  A    between atoms: O_2  and  C_3
REMARK    3  A    between atoms: C_8  and  C_9
REMARK    4  A    between atoms: C_12  and  C_19
REMARK                            x       y       z     vdW  Elec       q    Type
REMARK                         _______ _______ _______ _____ _____    ______ ____
ROOT
ATOM      1  C   UNL     1       0.018  -2.829  -0.013  0.00  0.00    +0.150 C 
ATOM      2  C   UNL     1       0.074  -3.735   1.223  0.00  0.00    +0.088 C 
ATOM      3  C   UNL     1       1.076  -4.840   1.038  0.00  0.00    +0.055 C 
ATOM      4  N   UNL     1       1.311  -5.390  -0.122  0.00  0.00    -0.215 NA
ATOM      5  C   UNL     1       0.677  -4.898  -1.220  0.00  0.00    +0.249 A 
ATOM      6  N   UNL     1       0.050  -3.681  -1.201  0.00  0.00    -0.222 N 
ATOM      7  N   UNL     1      -0.488  -3.490  -2.470  0.00  0.00    -0.156 NA
ATOM      8  C   UNL     1      -0.161  -4.543  -3.182  0.00  0.00    +0.247 A 
ATOM      9  N   UNL     1       0.545  -5.388  -2.427  0.00  0.00    -0.198 NA
ENDROOT
BRANCH   1  15
ATOM     10  C   UNL     1      -1.200  -0.637   0.010  0.00  0.00    +0.125 A 
ATOM     11  C   UNL     1      -2.375   0.101   0.019  0.00  0.00    +0.046 A 
ATOM     12  C   UNL     1      -3.596  -0.545   0.027  0.00  0.00    +0.004 A 
ATOM     13  C   UNL     1      -3.648  -1.927   0.026  0.00  0.00    +0.001 A 
ATOM     14  C   UNL     1      -2.479  -2.665   0.017  0.00  0.00    +0.009 A 
ATOM     15  C   UNL     1      -1.255  -2.023   0.003  0.00  0.00    +0.019 A 
BRANCH  10  17
ATOM     16  C   UNL     1      -0.017   1.425   0.010  0.00  0.00    +0.277 C 
ATOM     17  O   UNL     1       0.002  -0.004   0.002  0.00  0.00    -0.495 OA
ENDBRANCH  10  17
ENDBRANCH   1  15
BRANCH   3  18
ATOM     18  C   UNL     1       1.823  -5.319   2.212  0.00  0.00    -0.004 A 
ATOM     19  C   UNL     1       1.593  -4.754   3.470  0.00  0.00    +0.010 A 
ATOM     20  C   UNL     1       2.297  -5.209   4.565  0.00  0.00    +0.001 A 
ATOM     21  C   UNL     1       3.231  -6.221   4.421  0.00  0.00    +0.000 A 
ATOM     22  C   UNL     1       3.464  -6.784   3.179  0.00  0.00    +0.001 A 
ATOM     23  C   UNL     1       2.764  -6.345   2.075  0.00  0.00    +0.010 A 
ENDBRANCH   3  18
TORSDOF 3
