REMARK  Name = ZINC61950270
REMARK  8 active torsions:
REMARK  status: ('A' for Active; 'I' for Inactive)
REMARK    1  A    between atoms: C_1  and  C_2
REMARK    2  A    between atoms: C_2  and  C_4
REMARK    3  A    between atoms: C_2  and  N_22
REMARK    4  A    between atoms: C_4  and  C_6
REMARK    5  A    between atoms: C_4  and  N_12
REMARK    6  A    between atoms: N_12  and  C_13
REMARK    7  A    between atoms: N_12  and  C_14
REMARK    8  A    between atoms: C_18  and  C_20
REMARK                            x       y       z     vdW  Elec       q    Type
REMARK                         _______ _______ _______ _____ _____    ______ ____
ROOT
ATOM      1  C   UNL     1       0.746  -0.525   1.249  0.00  0.00    +0.095 C 
ENDROOT
BRANCH   1   2
ATOM      2  C   UNL     1       0.757  -2.031   1.253  0.00  0.00    +0.010 A 
ATOM      3  C   UNL     1       1.753  -2.878   0.896  0.00  0.00    +0.014 A 
ATOM      4  C   UNL     1       1.537  -4.241   0.981  0.00  0.00    +0.023 A 
ATOM      5  C   UNL     1       0.335  -4.690   1.419  0.00  0.00    +0.055 A 
ATOM      6  S   UNL     1      -0.536  -3.164   1.736  0.00  0.00    -0.085 S 
ATOM      7 BR   UNL     1      -0.262  -6.470   1.644  0.00  0.00    -0.043 Br
ENDBRANCH   1   2
BRANCH   1   9
ATOM      8  C   UNL     1       0.004   1.507  -0.002  0.00  0.00    -0.012 C 
ATOM      9  C   UNL     1       0.016  -0.023   0.002  0.00  0.00    -0.053 C 
BRANCH   9  10
ATOM     10  N   UNL     1       0.707  -0.510  -1.200  0.00  0.00    +0.381 N 
ATOM     11  H   UNL     1       1.656  -0.167  -1.204  0.00  0.00    -0.090 HD
ATOM     12  H   UNL     1       0.714  -1.520  -1.197  0.00  0.00    -0.090 HD
ATOM     13  H   UNL     1       0.225  -0.180  -2.022  0.00  0.00    -0.090 HD
ENDBRANCH   9  10
ENDBRANCH   1   9
BRANCH   1  14
ATOM     14  N   UNL     1       0.056  -0.038   2.447  0.00  0.00    -0.327 N 
ATOM     15  C   UNL     1      -1.372  -0.306   2.629  0.00  0.00    +0.130 C 
BRANCH  14  16
ATOM     16  C   UNL     1       0.761   0.681   3.415  0.00  0.00    +0.031 A 
ATOM     17  C   UNL     1       0.140   1.034   4.608  0.00  0.00    +0.023 A 
ATOM     18  C   UNL     1       0.833   1.746   5.569  0.00  0.00    +0.003 A 
ATOM     19  C   UNL     1       2.147   2.110   5.351  0.00  0.00    +0.019 A 
ATOM     20  C   UNL     1       2.780   1.760   4.157  0.00  0.00    +0.054 A 
ATOM     21  C   UNL     1       2.082   1.037   3.189  0.00  0.00    +0.042 A 
BRANCH  20  22
ATOM     22  C   UNL     1       4.142   2.138   3.929  0.00  0.00    +0.099 C 
ATOM     23  N   UNL     1       5.223   2.437   3.747  0.00  0.00    -0.191 NA
ENDBRANCH  20  22
ENDBRANCH  14  16
ENDBRANCH   1  14
TORSDOF 6
