REMARK  Name = ZINC01640521
REMARK  3 active torsions:
REMARK  status: ('A' for Active; 'I' for Inactive)
REMARK    1  A    between atoms: C_4  and  N_7
REMARK    2  A    between atoms: C_17  and  C_18
REMARK    3  A    between atoms: C_17  and  N_53
REMARK                            x       y       z     vdW  Elec       q    Type
REMARK                         _______ _______ _______ _____ _____    ______ ____
ROOT
ATOM      1  N   UNL     1       5.581   6.866   0.665  0.00  0.00    -0.248 N 
ATOM      2  C   UNL     1       5.405   8.195   0.699  0.00  0.00    +0.307 C 
ATOM      3  O   UNL     1       5.123   8.801   1.715  0.00  0.00    -0.252 OA
ATOM      4  N   UNL     1       5.567   8.794  -0.489  0.00  0.00    -0.297 N 
ATOM      5  C   UNL     1       5.901   7.779  -1.501  0.00  0.00    +0.132 C 
ATOM      6  C   UNL     1       5.909   6.464  -0.706  0.00  0.00    +0.056 C 
ATOM      7  C   UNL     1       7.290   5.820  -0.762  0.00  0.00    +0.009 C 
ATOM      8  C   UNL     1       7.263   4.495   0.005  0.00  0.00    -0.077 C 
ATOM      9  C   UNL     1       4.904   4.194  -0.470  0.00  0.00    -0.077 C 
ATOM     10  C   UNL     1       4.853   5.509  -1.253  0.00  0.00    +0.009 C 
ATOM     11  H   UNL     1       5.480   9.746  -0.655  0.00  0.00    +0.150 HD
ATOM     12  N   UNL     1       6.254   3.606  -0.611  0.00  0.00    +0.382 N 
ATOM     13  H   UNL     1       6.469   3.501  -1.610  0.00  0.00    -0.082 HD
ENDROOT
BRANCH   1  17
ATOM     14  C   UNL     1       5.253   4.297   3.928  0.00  0.00    +0.000 A 
ATOM     15  C   UNL     1       5.041   5.653   4.094  0.00  0.00    +0.002 A 
ATOM     16  C   UNL     1       5.149   6.508   3.014  0.00  0.00    +0.023 A 
ATOM     17  C   UNL     1       5.471   6.003   1.761  0.00  0.00    +0.038 A 
ATOM     18  C   UNL     1       5.678   4.640   1.597  0.00  0.00    +0.023 A 
ATOM     19  C   UNL     1       5.573   3.791   2.682  0.00  0.00    +0.002 A 
ENDBRANCH   1  17
BRANCH  12  20
ATOM     20  C   UNL     1       6.295   2.276   0.031  0.00  0.00    -0.030 C 
BRANCH  20  21
ATOM     21  C   UNL     1       7.620   1.599  -0.324  0.00  0.00    +0.194 C 
ATOM     22  C   UNL     1       7.644   0.176   0.252  0.00  0.00    +0.271 C 
ATOM     23  O   UNL     1       8.889  -0.432  -0.109  0.00  0.00    -0.485 OA
ATOM     24  C   UNL     1       9.286  -0.293  -1.403  0.00  0.00    +0.162 A 
ATOM     25  C   UNL     1      10.269  -1.131  -1.908  0.00  0.00    +0.049 A 
ATOM     26  C   UNL     1      10.685  -1.000  -3.219  0.00  0.00    +0.004 A 
ATOM     27  C   UNL     1      10.124  -0.032  -4.031  0.00  0.00    +0.004 A 
ATOM     28  C   UNL     1       9.144   0.806  -3.535  0.00  0.00    +0.049 A 
ATOM     29  C   UNL     1       8.720   0.678  -2.220  0.00  0.00    +0.162 A 
ATOM     30  O   UNL     1       7.751   1.508  -1.747  0.00  0.00    -0.484 OA
ENDBRANCH  20  21
ENDBRANCH  12  20
TORSDOF 3
