REMARK  Name = ZINC66131246
REMARK  7 active torsions:
REMARK  status: ('A' for Active; 'I' for Inactive)
REMARK    1  A    between atoms: C_1  and  C_2
REMARK    2  A    between atoms: C_2  and  C_3
REMARK    3  A    between atoms: C_3  and  C_14
REMARK    4  A    between atoms: C_17  and  O_20
REMARK    5  A    between atoms: O_20  and  C_21
REMARK    6  A    between atoms: C_21  and  C_22
REMARK    7  A    between atoms: C_21  and  C_23
REMARK                            x       y       z     vdW  Elec       q    Type
REMARK                         _______ _______ _______ _____ _____    ______ ____
ROOT
ATOM      1  C   UNL     1       0.746  -0.511   1.246  0.00  0.00    +0.125 C 
ATOM      2  N   UNL     1       2.100  -0.017   0.970  0.00  0.00    -0.319 N 
ATOM      3  C   UNL     1       3.049  -0.080   1.985  0.00  0.00    +0.041 A 
ATOM      4  C   UNL     1       4.399  -0.229   1.718  0.00  0.00    +0.024 A 
ATOM      5  C   UNL     1       5.300  -0.290   2.764  0.00  0.00    +0.002 A 
ATOM      6  C   UNL     1       4.863  -0.204   4.076  0.00  0.00    +0.001 A 
ATOM      7  C   UNL     1       3.521  -0.054   4.360  0.00  0.00    +0.015 A 
ATOM      8  C   UNL     1       2.602   0.011   3.315  0.00  0.00    +0.058 A 
ATOM      9  C   UNL     1       1.158   0.179   3.561  0.00  0.00    +0.248 C 
ATOM     10  O   UNL     1       0.756   0.509   4.660  0.00  0.00    -0.270 OA
ATOM     11  N   UNL     1       0.289  -0.037   2.552  0.00  0.00    -0.287 N 
ATOM     12  H   UNL     1       2.329   0.345   0.100  0.00  0.00    +0.148 HD
ATOM     13  H   UNL     1      -0.657   0.125   2.696  0.00  0.00    +0.151 HD
ENDROOT
BRANCH   1  14
ATOM     14  C   UNL     1       0.756  -2.018   1.237  0.00  0.00    -0.006 A 
ATOM     15  C   UNL     1      -0.145  -2.719   2.018  0.00  0.00    +0.011 A 
ATOM     16  C   UNL     1      -0.137  -4.100   2.012  0.00  0.00    +0.046 A 
ATOM     17  C   UNL     1       0.775  -4.784   1.223  0.00  0.00    +0.121 A 
ATOM     18  C   UNL     1       1.678  -4.079   0.440  0.00  0.00    +0.046 A 
ATOM     19  C   UNL     1       1.663  -2.697   0.445  0.00  0.00    +0.011 A 
BRANCH  17  20
ATOM     20  O   UNL     1       0.785  -6.143   1.216  0.00  0.00    -0.489 OA
BRANCH  20  21
ATOM     21  C   UNL     1      -0.247  -6.803   1.951  0.00  0.00    +0.167 C 
ATOM     22  C   UNL     1      -0.476  -8.199   1.367  0.00  0.00    +0.051 C 
ATOM     23  C   UNL     1       0.170  -6.926   3.418  0.00  0.00    +0.051 C 
ENDBRANCH  20  21
ENDBRANCH  17  20
ENDBRANCH   1  14
BRANCH   1  25
ATOM     24  C   UNL     1      -0.227   1.525   0.172  0.00  0.00    +0.008 C 
ATOM     25  C   UNL     1      -0.208  -0.005   0.161  0.00  0.00    +0.047 C 
ENDBRANCH   1  25
TORSDOF 4
