REMARK  Name = ZINC32102984
REMARK  5 active torsions:
REMARK  status: ('A' for Active; 'I' for Inactive)
REMARK    1  A    between atoms: C_1  and  C_2
REMARK    2  A    between atoms: C_2  and  C_3
REMARK    3  A    between atoms: C_8  and  N_9
REMARK    4  A    between atoms: C_16  and  O_18
REMARK    5  A    between atoms: N_25  and  C_28
REMARK                            x       y       z     vdW  Elec       q    Type
REMARK                         _______ _______ _______ _____ _____    ______ ____
ROOT
ATOM      1  N   UNL     1      -1.682  -0.212  -2.443  0.00  0.00    -0.214 N 
ATOM      2  C   UNL     1      -2.365  -0.142  -3.607  0.00  0.00    +0.164 A 
ATOM      3  C   UNL     1      -1.474   0.307  -4.577  0.00  0.00    +0.036 A 
ATOM      4  C   UNL     1      -0.247   0.494  -3.970  0.00  0.00    +0.142 A 
ATOM      5  N   UNL     1      -0.361   0.192  -2.697  0.00  0.00    -0.173 NA
ATOM      6  C   UNL     1      -1.911   0.514  -6.000  0.00  0.00    +0.112 C 
ATOM      7  C   UNL     1      -3.063  -0.443  -6.303  0.00  0.00    +0.121 C 
ATOM      8  C   UNL     1      -4.026  -0.523  -5.152  0.00  0.00    +0.191 C 
ATOM      9  N   UNL     1      -3.669  -0.403  -3.909  0.00  0.00    -0.197 NA
ATOM     10  C   UNL     1      -2.306   1.933  -6.249  0.00  0.00    -0.006 A 
ATOM     11  C   UNL     1      -3.288   2.722  -5.690  0.00  0.00    +0.007 A 
ATOM     12  C   UNL     1      -3.390   4.029  -6.157  0.00  0.00    +0.000 A 
ATOM     13  C   UNL     1      -2.544   4.510  -7.135  0.00  0.00    +0.002 A 
ATOM     14  C   UNL     1      -1.554   3.723  -7.702  0.00  0.00    +0.024 A 
ATOM     15  C   UNL     1      -1.441   2.410  -7.243  0.00  0.00    +0.040 A 
ATOM     16  N   UNL     1      -0.556   1.417  -7.627  0.00  0.00    -0.273 N 
ATOM     17  C   UNL     1      -0.760   0.268  -6.949  0.00  0.00    +0.235 C 
ATOM     18  O   UNL     1      -0.137  -0.765  -7.076  0.00  0.00    -0.274 OA
ATOM     19  C   UNL     1       0.479   1.594  -8.648  0.00  0.00    +0.138 C 
ENDROOT
BRANCH   1  25
ATOM     20  C   UNL     1      -1.972   0.163  -0.073  0.00  0.00    -0.022 A 
ATOM     21  C   UNL     1      -2.489  -0.230   1.146  0.00  0.00    +0.006 A 
ATOM     22  C   UNL     1      -3.227  -1.395   1.243  0.00  0.00    +0.000 A 
ATOM     23  C   UNL     1      -3.450  -2.171   0.119  0.00  0.00    +0.002 A 
ATOM     24  C   UNL     1      -2.937  -1.783  -1.102  0.00  0.00    +0.028 A 
ATOM     25  C   UNL     1      -2.200  -0.610  -1.204  0.00  0.00    +0.071 A 
BRANCH  20  27
ATOM     26  C   UNL     1      -2.056   2.556  -0.720  0.00  0.00    +0.009 C 
ATOM     27  C   UNL     1      -1.169   1.434  -0.178  0.00  0.00    +0.034 C 
ENDBRANCH  20  27
ENDBRANCH   1  25
BRANCH   8  28
ATOM     28  O   UNL     1      -5.330  -0.731  -5.425  0.00  0.00    -0.495 OA
ATOM     29  H   UNL     1      -5.894  -0.772  -4.640  0.00  0.00    +0.293 HD
ENDBRANCH   8  28
TORSDOF 3
