REMARK  Name = ZINC16973676
REMARK  6 active torsions:
REMARK  status: ('A' for Active; 'I' for Inactive)
REMARK    1  A    between atoms: C_1  and  O_2
REMARK    2  A    between atoms: O_2  and  C_3
REMARK    3  A    between atoms: C_8  and  N_9
REMARK    4  A    between atoms: N_13  and  N_14
REMARK    5  A    between atoms: N_14  and  C_15
REMARK    6  A    between atoms: N_23  and  C_26
REMARK                            x       y       z     vdW  Elec       q    Type
REMARK                         _______ _______ _______ _____ _____    ______ ____
ROOT
ATOM      1  N   UNL     1       1.470  -1.752   0.156  0.00  0.00    -0.212 N 
ATOM      2  C   UNL     1       1.137  -2.384  -0.988  0.00  0.00    +0.282 C 
ATOM      3  O   UNL     1       1.301  -1.850  -2.068  0.00  0.00    -0.267 OA
ATOM      4  C   UNL     1       0.569  -3.744  -0.892  0.00  0.00    +0.206 C 
ATOM      5  N   UNL     1       0.220  -4.422  -1.968  0.00  0.00    -0.172 NA
ATOM      6  C   UNL     1       0.408  -4.310   0.462  0.00  0.00    +0.282 C 
ATOM      7  O   UNL     1      -0.053  -5.424   0.623  0.00  0.00    -0.267 OA
ATOM      8  N   UNL     1       0.786  -3.557   1.516  0.00  0.00    -0.216 N 
ATOM      9  C   UNL     1       1.301  -2.330   1.353  0.00  0.00    +0.158 C 
ATOM     10  S   UNL     1       1.759  -1.452   2.749  0.00  0.00    -0.017 S 
ENDROOT
BRANCH   1  16
ATOM     11  C   UNL     1       3.391  -0.284  -0.005  0.00  0.00    +0.142 A 
ATOM     12  C   UNL     1       3.921   0.994  -0.070  0.00  0.00    +0.047 A 
ATOM     13  C   UNL     1       3.082   2.093  -0.038  0.00  0.00    +0.004 A 
ATOM     14  C   UNL     1       1.713   1.919   0.058  0.00  0.00    +0.002 A 
ATOM     15  C   UNL     1       1.177   0.647   0.122  0.00  0.00    +0.027 A 
ATOM     16  C   UNL     1       2.012  -0.460   0.091  0.00  0.00    +0.085 A 
BRANCH  11  18
ATOM     17  C   UNL     1       5.617  -1.110  -0.136  0.00  0.00    +0.277 C 
ATOM     18  O   UNL     1       4.215  -1.366  -0.036  0.00  0.00    -0.493 OA
ENDBRANCH  11  18
ENDBRANCH   1  16
BRANCH   8  19
ATOM     19  C   UNL     1       0.643  -4.072   2.811  0.00  0.00    +0.043 A 
ATOM     20  C   UNL     1       1.693  -4.758   3.407  0.00  0.00    +0.024 A 
ATOM     21  C   UNL     1       1.550  -5.261   4.686  0.00  0.00    +0.002 A 
ATOM     22  C   UNL     1       0.360  -5.090   5.368  0.00  0.00    +0.000 A 
ATOM     23  C   UNL     1      -0.690  -4.413   4.775  0.00  0.00    +0.002 A 
ATOM     24  C   UNL     1      -0.551  -3.903   3.499  0.00  0.00    +0.024 A 
ENDBRANCH   8  19
BRANCH   5  25
ATOM     25  N   UNL     1      -0.187  -5.641  -1.858  0.00  0.00    -0.237 N 
ATOM     26  H   UNL     1      -0.149  -6.090  -0.999  0.00  0.00    +0.174 HD
BRANCH  25  27
ATOM     27  C   UNL     1      -0.681  -6.315  -2.976  0.00  0.00    +0.048 A 
ATOM     28  C   UNL     1      -0.741  -5.673  -4.207  0.00  0.00    +0.025 A 
ATOM     29  C   UNL     1      -1.226  -6.344  -5.311  0.00  0.00    +0.002 A 
ATOM     30  C   UNL     1      -1.661  -7.652  -5.192  0.00  0.00    +0.000 A 
ATOM     31  C   UNL     1      -1.608  -8.293  -3.967  0.00  0.00    +0.002 A 
ATOM     32  C   UNL     1      -1.120  -7.629  -2.859  0.00  0.00    +0.025 A 
ENDBRANCH  25  27
ENDBRANCH   5  25
TORSDOF 5
