REMARK  Name = ZINC08845560
REMARK  13 active torsions:
REMARK  status: ('A' for Active; 'I' for Inactive)
REMARK    1  A    between atoms: C_1  and  C_2
REMARK    2  A    between atoms: C_2  and  O_3
REMARK    3  A    between atoms: O_3  and  C_4
REMARK    4  A    between atoms: C_7  and  C_10
REMARK    5  A    between atoms: C_13  and  C_31
REMARK    6  A    between atoms: N_20  and  C_21
REMARK    7  A    between atoms: C_21  and  C_22
REMARK    8  A    between atoms: C_22  and  C_23
REMARK    9  A    between atoms: C_26  and  O_29
REMARK   10  A    between atoms: O_29  and  C_30
REMARK   11  A    between atoms: C_33  and  C_39
REMARK   12  A    between atoms: C_35  and  C_38
REMARK   13  A    between atoms: C_36  and  O_37
REMARK                            x       y       z     vdW  Elec       q    Type
REMARK                         _______ _______ _______ _____ _____    ______ ____
ROOT
ATOM      1  C   UNL     1      -2.022  -6.051  -0.018  0.00  0.00    +0.141 C 
ATOM      2  C   UNL     1      -2.495  -6.532  -1.362  0.00  0.00    +0.035 A 
ATOM      3  C   UNL     1      -2.242  -6.636  -2.734  0.00  0.00    +0.102 A 
ATOM      4  N   UNL     1      -3.263  -7.269  -3.277  0.00  0.00    -0.173 NA
ATOM      5  N   UNL     1      -4.136  -7.575  -2.384  0.00  0.00    -0.272 N 
ATOM      6  H   UNL     1      -4.967  -8.045  -2.556  0.00  0.00    +0.189 HD
ATOM      7  C   UNL     1      -3.718  -7.143  -1.158  0.00  0.00    +0.126 A 
ATOM      8  C   UNL     1      -4.044  -7.069   0.271  0.00  0.00    +0.265 C 
ATOM      9  O   UNL     1      -5.056  -7.516   0.776  0.00  0.00    -0.268 OA
ATOM     10  N   UNL     1      -3.064  -6.436   0.944  0.00  0.00    -0.285 N 
ENDROOT
BRANCH   3  11
ATOM     11  C   UNL     1      -1.044  -6.125  -3.447  0.00  0.00    +0.044 A 
ATOM     12  C   UNL     1       0.021  -5.589  -2.729  0.00  0.00    +0.017 A 
ATOM     13  C   UNL     1       1.133  -5.116  -3.397  0.00  0.00    -0.049 A 
ATOM     14  C   UNL     1       1.193  -5.173  -4.778  0.00  0.00    +0.010 A 
ATOM     15  C   UNL     1       0.140  -5.702  -5.500  0.00  0.00    -0.008 A 
ATOM     16  C   UNL     1      -0.979  -6.187  -4.842  0.00  0.00    +0.129 A 
ATOM     17  C   UNL     1       0.213  -5.760  -7.004  0.00  0.00    +0.047 C 
ATOM     18  C   UNL     1       2.286  -4.536  -2.618  0.00  0.00    +0.044 C 
BRANCH  16  19
ATOM     19  O   UNL     1      -2.012  -6.714  -5.550  0.00  0.00    -0.506 OA
ATOM     20  H   UNL     1      -2.683  -6.067  -5.808  0.00  0.00    +0.292 HD
ENDBRANCH  16  19
ENDBRANCH   3  11
BRANCH   1  24
ATOM     21  C   UNL     1      -1.556  -1.803  -0.059  0.00  0.00    +0.121 A 
ATOM     22  C   UNL     1      -0.444  -2.623   0.067  0.00  0.00    +0.046 A 
ATOM     23  C   UNL     1      -0.598  -3.995   0.081  0.00  0.00    +0.009 A 
ATOM     24  C   UNL     1      -1.858  -4.553  -0.032  0.00  0.00    -0.022 A 
ATOM     25  C   UNL     1      -2.968  -3.738  -0.158  0.00  0.00    +0.009 A 
ATOM     26  C   UNL     1      -2.821  -2.364  -0.166  0.00  0.00    +0.046 A 
BRANCH  21  27
ATOM     27  O   UNL     1      -1.408  -0.452  -0.072  0.00  0.00    -0.492 OA
BRANCH  27  29
ATOM     28  C   UNL     1      -0.111   1.585   0.009  0.00  0.00    +0.048 C 
ATOM     29  C   UNL     1      -0.077   0.056   0.043  0.00  0.00    +0.225 C 
ENDBRANCH  27  29
ENDBRANCH  21  27
ENDBRANCH   1  24
BRANCH  10  30
ATOM     30  C   UNL     1      -3.040  -6.176   2.385  0.00  0.00    +0.114 C 
BRANCH  30  31
ATOM     31  C   UNL     1      -3.698  -4.824   2.670  0.00  0.00    +0.054 C 
BRANCH  31  32
ATOM     32  C   UNL     1      -3.673  -4.556   4.153  0.00  0.00    -0.046 A 
ATOM     33  C   UNL     1      -4.722  -4.980   4.948  0.00  0.00    +0.007 A 
ATOM     34  C   UNL     1      -4.702  -4.736   6.308  0.00  0.00    +0.046 A 
ATOM     35  C   UNL     1      -3.628  -4.064   6.875  0.00  0.00    +0.120 A 
ATOM     36  C   UNL     1      -2.577  -3.641   6.075  0.00  0.00    +0.046 A 
ATOM     37  C   UNL     1      -2.599  -3.892   4.717  0.00  0.00    +0.007 A 
BRANCH  35  38
ATOM     38  O   UNL     1      -3.606  -3.822   8.212  0.00  0.00    -0.495 OA
ATOM     39  C   UNL     1      -2.470  -3.126   8.727  0.00  0.00    +0.277 C 
ENDBRANCH  35  38
ENDBRANCH  31  32
ENDBRANCH  30  31
ENDBRANCH  10  30
TORSDOF 9
