REMARK  Name = ZINC49597416
REMARK  6 active torsions:
REMARK  status: ('A' for Active; 'I' for Inactive)
REMARK    1  A    between atoms: C_1  and  C_2
REMARK    2  A    between atoms: C_4  and  C_28
REMARK    3  A    between atoms: N_15  and  C_18
REMARK    4  A    between atoms: C_18  and  C_19
REMARK    5  A    between atoms: N_21  and  C_22
REMARK    6  A    between atoms: C_22  and  C_23
REMARK                            x       y       z     vdW  Elec       q    Type
REMARK                         _______ _______ _______ _____ _____    ______ ____
ROOT
ATOM      1  C   UNL     1      -0.018   1.503   0.010  0.00  0.00    +0.044 C 
ATOM      2  C   UNL     1       0.002  -0.004   0.002  0.00  0.00    -0.049 A 
ATOM      3  C   UNL     1       0.006  -0.689  -1.203  0.00  0.00    +0.010 A 
ATOM      4  C   UNL     1       0.020  -2.069  -1.230  0.00  0.00    -0.008 A 
ATOM      5  C   UNL     1       0.032  -2.788  -0.043  0.00  0.00    +0.135 A 
ATOM      6  C   UNL     1       0.036  -2.094   1.178  0.00  0.00    +0.060 A 
ATOM      7  C   UNL     1       0.023  -0.698   1.193  0.00  0.00    +0.018 A 
ATOM      8  C   UNL     1       0.066  -2.860   2.436  0.00  0.00    +0.170 C 
ATOM      9  O   UNL     1       0.287  -2.326   3.503  0.00  0.00    -0.292 OA
ATOM     10  C   UNL     1      -0.193  -4.352   2.328  0.00  0.00    +0.127 C 
ATOM     11  C   UNL     1       0.527  -4.848   1.067  0.00  0.00    +0.114 C 
ATOM     12  O   UNL     1       0.037  -4.141  -0.071  0.00  0.00    -0.484 OA
ATOM     13  C   UNL     1       0.269  -6.347   0.893  0.00  0.00    +0.030 C 
ATOM     14  C   UNL     1       1.060  -6.858  -0.314  0.00  0.00    -0.074 C 
ATOM     15  N   UNL     1       2.493  -6.626  -0.097  0.00  0.00    +0.386 N 
ATOM     16  C   UNL     1       2.756  -5.185  -0.004  0.00  0.00    -0.074 C 
ATOM     17  C   UNL     1       2.031  -4.609   1.215  0.00  0.00    +0.030 C 
ATOM     18  C   UNL     1       0.021  -2.796  -2.550  0.00  0.00    +0.047 C 
ATOM     19  H   UNL     1       2.780  -7.075   0.759  0.00  0.00    -0.081 HD
ENDROOT
BRANCH  15  20
ATOM     20  C   UNL     1       3.254  -7.189  -1.221  0.00  0.00    +0.019 C 
BRANCH  20  21
ATOM     21  C   UNL     1       4.729  -7.061  -0.943  0.00  0.00    +0.197 C 
ATOM     22  O   UNL     1       5.110  -6.551   0.090  0.00  0.00    -0.278 OA
ATOM     23  N   UNL     1       5.626  -7.513  -1.841  0.00  0.00    -0.310 N 
ATOM     24  H   UNL     1       5.322  -7.921  -2.667  0.00  0.00    +0.149 HD
BRANCH  23  25
ATOM     25  C   UNL     1       7.061  -7.389  -1.571  0.00  0.00    +0.178 C 
BRANCH  25  26
ATOM     26  C   UNL     1       7.841  -7.967  -2.724  0.00  0.00    +0.122 A 
ATOM     27  C   UNL     1       8.259  -7.290  -3.808  0.00  0.00    +0.046 A 
ATOM     28  C   UNL     1       8.947  -8.214  -4.628  0.00  0.00    +0.041 A 
ATOM     29  C   UNL     1       8.907  -9.401  -3.995  0.00  0.00    +0.195 A 
ATOM     30  O   UNL     1       8.241  -9.244  -2.840  0.00  0.00    -0.466 OA
ENDBRANCH  25  26
ENDBRANCH  23  25
ENDBRANCH  20  21
ENDBRANCH  15  20
TORSDOF 4
