REMARK  Name = ZINC67471472
REMARK  6 active torsions:
REMARK  status: ('A' for Active; 'I' for Inactive)
REMARK    1  A    between atoms: C_1  and  C_2
REMARK    2  A    between atoms: C_4  and  C_28
REMARK    3  A    between atoms: C_6  and  O_26
REMARK    4  A    between atoms: C_7  and  C_8
REMARK    5  A    between atoms: C_8  and  N_9
REMARK    6  A    between atoms: O_26  and  C_27
REMARK                            x       y       z     vdW  Elec       q    Type
REMARK                         _______ _______ _______ _____ _____    ______ ____
ROOT
ATOM      1  N   UNL     1      -1.355   0.213   2.955  0.00  0.00    -0.295 N 
ATOM      2  C   UNL     1      -1.598   0.844   4.121  0.00  0.00    +0.303 C 
ATOM      3  O   UNL     1      -0.675   1.153   4.849  0.00  0.00    -0.253 OA
ATOM      4  N   UNL     1      -2.865   1.130   4.480  0.00  0.00    -0.281 N 
ATOM      5  C   UNL     1      -3.148   1.916   5.691  0.00  0.00    +0.116 C 
ATOM      6  C   UNL     1      -3.809   3.239   5.286  0.00  0.00    +0.072 C 
ATOM      7  C   UNL     1      -4.888   2.958   4.267  0.00  0.00    +0.023 A 
ATOM      8  C   UNL     1      -4.973   1.818   3.547  0.00  0.00    -0.002 A 
ATOM      9  C   UNL     1      -6.131   1.937   2.688  0.00  0.00    +0.005 A 
ATOM     10  C   UNL     1      -6.702   1.084   1.739  0.00  0.00    +0.010 A 
ATOM     11  C   UNL     1      -7.828   1.535   1.096  0.00  0.00    +0.001 A 
ATOM     12  C   UNL     1      -8.383   2.775   1.366  0.00  0.00    +0.002 A 
ATOM     13  C   UNL     1      -7.840   3.639   2.301  0.00  0.00    +0.026 A 
ATOM     14  C   UNL     1      -6.695   3.209   2.969  0.00  0.00    +0.047 A 
ATOM     15  N   UNL     1      -5.920   3.795   3.927  0.00  0.00    -0.358 N 
ATOM     16  H   UNL     1      -6.075   4.673   4.309  0.00  0.00    +0.166 HD
ATOM     17  C   UNL     1      -4.005   0.670   3.667  0.00  0.00    +0.146 C 
ATOM     18  H   UNL     1      -2.093  -0.100   2.409  0.00  0.00    +0.151 HD
ENDROOT
BRANCH   1  19
ATOM     19  C   UNL     1       0.026   0.001   2.511  0.00  0.00    +0.146 C 
BRANCH  19  26
ATOM     20  C   UNL     1      -0.024   1.499   0.007  0.00  0.00    +0.044 C 
ATOM     21  C   UNL     1      -0.001  -0.008   0.002  0.00  0.00    -0.039 A 
ATOM     22  C   UNL     1       0.003  -0.713  -1.194  0.00  0.00    +0.027 A 
ATOM     23  C   UNL     1       0.025  -2.093  -1.164  0.00  0.00    +0.042 A 
ATOM     24  N   UNL     1       0.042  -2.745  -0.017  0.00  0.00    -0.218 NA
ATOM     25  C   UNL     1       0.039  -2.108   1.143  0.00  0.00    +0.220 A 
ATOM     26  C   UNL     1       0.023  -0.720   1.188  0.00  0.00    +0.034 A 
ATOM     27  C   UNL     1       0.030  -2.866  -2.458  0.00  0.00    +0.066 C 
BRANCH  25  28
ATOM     28  O   UNL     1       0.056  -2.818   2.299  0.00  0.00    -0.479 OA
ATOM     29  C   UNL     1       0.077  -4.242   2.186  0.00  0.00    +0.279 C 
ENDBRANCH  25  28
ENDBRANCH  19  26
ENDBRANCH   1  19
TORSDOF 3
