REMARK  Name = ZINC31557766
REMARK  10 active torsions:
REMARK  status: ('A' for Active; 'I' for Inactive)
REMARK    1  A    between atoms: C_1  and  C_2
REMARK    2  A    between atoms: C_9  and  N_15
REMARK    3  A    between atoms: C_10  and  C_11
REMARK    4  A    between atoms: C_11  and  O_13
REMARK    5  A    between atoms: O_13  and  C_14
REMARK    6  A    between atoms: C_16  and  C_18
REMARK    7  A    between atoms: C_18  and  N_19
REMARK    8  A    between atoms: C_23  and  C_25
REMARK    9  A    between atoms: N_27  and  C_28
REMARK   10  A    between atoms: C_28  and  C_29
REMARK                            x       y       z     vdW  Elec       q    Type
REMARK                         _______ _______ _______ _____ _____    ______ ____
ROOT
ATOM      1  N   UNL     1       1.552  -1.987   0.262  0.00  0.00    -0.281 N 
ATOM      2  C   UNL     1       2.825  -2.430   0.224  0.00  0.00    +0.201 C 
ATOM      3  O   UNL     1       3.741  -1.658   0.411  0.00  0.00    -0.278 OA
ATOM      4  H   UNL     1       0.721  -2.687   0.092  0.00  0.00    +0.155 HD
ENDROOT
BRANCH   1  12
ATOM      5  C   UNL     1       0.505   5.608   1.811  0.00  0.00    +0.008 C 
ATOM      6  C   UNL     1       0.303   4.091   1.797  0.00  0.00    -0.009 C 
ATOM      7  C   UNL     1      -0.828   3.732   0.829  0.00  0.00    +0.008 C 
ATOM      8  C   UNL     1      -1.202   2.259   0.985  0.00  0.00    +0.037 C 
ATOM      9  C   UNL     1       0.063   1.416   0.874  0.00  0.00    -0.021 A 
ATOM     10  C   UNL     1       1.284   1.970   1.030  0.00  0.00    -0.004 A 
ATOM     11  S   UNL     1       2.421   0.630   0.811  0.00  0.00    -0.077 S 
ATOM     12  C   UNL     1       1.292  -0.650   0.516  0.00  0.00    +0.086 A 
ATOM     13  C   UNL     1       0.061  -0.011   0.594  0.00  0.00    +0.091 A 
ATOM     14  C   UNL     1       1.594   3.405   1.326  0.00  0.00    +0.046 C 
BRANCH  13  15
ATOM     15  C   UNL     1      -1.191  -0.746   0.402  0.00  0.00    +0.342 C 
ATOM     16  O   UNL     1      -1.671  -0.848  -0.711  0.00  0.00    -0.245 OA
BRANCH  15  17
ATOM     17  O   UNL     1      -1.811  -1.309   1.458  0.00  0.00    -0.464 OA
ATOM     18  C   UNL     1      -3.048  -2.022   1.193  0.00  0.00    +0.280 C 
ENDBRANCH  15  17
ENDBRANCH  13  15
ENDBRANCH   1  12
BRANCH   2  19
ATOM     19  C   UNL     1       3.109  -3.884  -0.052  0.00  0.00    +0.020 C 
BRANCH  19  20
ATOM     20  N   UNL     1       4.558  -4.083  -0.188  0.00  0.00    +0.393 N 
ATOM     21  C   UNL     1       5.079  -3.384  -1.382  0.00  0.00    -0.077 C 
ATOM     22  C   UNL     1       6.225  -4.244  -1.945  0.00  0.00    -0.020 C 
ATOM     23  C   UNL     1       6.295  -5.479  -1.019  0.00  0.00    -0.008 C 
ATOM     24  C   UNL     1       4.882  -5.519  -0.386  0.00  0.00    +0.020 C 
ATOM     25  H   UNL     1       5.002  -3.688   0.738  0.00  0.00    -0.080 HD
BRANCH  24  26
ATOM     26  C   UNL     1       4.910  -6.245   0.934  0.00  0.00    +0.200 C 
ATOM     27  O   UNL     1       4.684  -5.643   1.962  0.00  0.00    -0.278 OA
ATOM     28  N   UNL     1       5.186  -7.564   0.972  0.00  0.00    -0.310 N 
ATOM     29  H   UNL     1       5.391  -8.110   0.040  0.00  0.00    +0.149 HD
BRANCH  28  30
ATOM     30  C   UNL     1       5.214  -8.270   2.255  0.00  0.00    +0.178 C 
BRANCH  30  31
ATOM     31  C   UNL     1       5.544  -9.722   2.023  0.00  0.00    +0.122 A 
ATOM     32  C   UNL     1       6.780 -10.253   1.998  0.00  0.00    +0.046 A 
ATOM     33  C   UNL     1       6.626 -11.637   1.754  0.00  0.00    +0.041 A 
ATOM     34  C   UNL     1       5.306 -11.867   1.636  0.00  0.00    +0.195 A 
ATOM     35  O   UNL     1       4.655 -10.704   1.800  0.00  0.00    -0.466 OA
ENDBRANCH  30  31
ENDBRANCH  28  30
ENDBRANCH  24  26
ENDBRANCH  19  20
ENDBRANCH   2  19
TORSDOF 8
