REMARK  Name = ZINC09080382
REMARK  15 active torsions:
REMARK  status: ('A' for Active; 'I' for Inactive)
REMARK    1  A    between atoms: C_1  and  C_2
REMARK    2  A    between atoms: C_5  and  S_8
REMARK    3  A    between atoms: S_8  and  C_11
REMARK    4  A    between atoms: C_11  and  C_13
REMARK    5  A    between atoms: C_11  and  C_30
REMARK    6  A    between atoms: C_13  and  N_14
REMARK    7  A    between atoms: C_15  and  C_17
REMARK    8  A    between atoms: N_19  and  C_20
REMARK    9  A    between atoms: C_20  and  C_21
REMARK   10  A    between atoms: C_21  and  C_22
REMARK   11  A    between atoms: C_25  and  O_28
REMARK   12  A    between atoms: O_28  and  C_29
REMARK   13  A    between atoms: C_33  and  N_36
REMARK   14  A    between atoms: N_36  and  C_37
REMARK   15  A    between atoms: N_36  and  C_38
REMARK                            x       y       z     vdW  Elec       q    Type
REMARK                         _______ _______ _______ _____ _____    ______ ____
ROOT
ATOM      1  C   UNL     1      -2.439   0.671   0.017  0.00  0.00    +0.183 C 
ENDROOT
BRANCH   1   2
ATOM      2  C   UNL     1      -3.754   1.407   0.028  0.00  0.00    -0.021 A 
ATOM      3  C   UNL     1      -4.061   2.256   1.074  0.00  0.00    +0.007 A 
ATOM      4  C   UNL     1      -5.263   2.937   1.084  0.00  0.00    +0.023 A 
ATOM      5  C   UNL     1      -6.169   2.757   0.046  0.00  0.00    +0.029 A 
ATOM      6  C   UNL     1      -5.860   1.899  -1.001  0.00  0.00    +0.023 A 
ATOM      7  C   UNL     1      -4.654   1.226  -1.007  0.00  0.00    +0.007 A 
BRANCH   5   8
ATOM      8  N   UNL     1      -7.388   3.439   0.056  0.00  0.00    -0.336 N 
ATOM      9  C   UNL     1      -8.342   3.249  -1.039  0.00  0.00    +0.129 C 
ATOM     10  C   UNL     1      -7.712   4.344   1.161  0.00  0.00    +0.129 C 
ENDBRANCH   5   8
ENDBRANCH   1   2
BRANCH   1  11
ATOM     11  S   UNL     1      -2.322  -0.379   1.492  0.00  0.00    +0.005 S 
ATOM     12  O   UNL     1      -1.173  -1.211   1.410  0.00  0.00    -0.169 OA
ATOM     13  O   UNL     1      -2.579   0.389   2.660  0.00  0.00    -0.169 OA
BRANCH  11  18
ATOM     14  C   UNL     1      -7.001  -4.165   1.076  0.00  0.00    +0.044 C 
ATOM     15  C   UNL     1      -5.832  -3.220   1.181  0.00  0.00    -0.050 A 
ATOM     16  C   UNL     1      -4.614  -3.561   0.622  0.00  0.00    +0.005 A 
ATOM     17  C   UNL     1      -3.542  -2.694   0.717  0.00  0.00    +0.027 A 
ATOM     18  C   UNL     1      -3.688  -1.484   1.371  0.00  0.00    +0.089 A 
ATOM     19  C   UNL     1      -4.904  -1.145   1.934  0.00  0.00    +0.027 A 
ATOM     20  C   UNL     1      -5.977  -2.011   1.835  0.00  0.00    +0.005 A 
ENDBRANCH  11  18
ENDBRANCH   1  11
BRANCH   1  21
ATOM     21  C   UNL     1      -1.290   1.681   0.017  0.00  0.00    +0.136 C 
BRANCH  21  22
ATOM     22  N   UNL     1      -0.011   0.966   0.007  0.00  0.00    -0.305 N 
ATOM     23  C   UNL     1       1.147   1.655   0.000  0.00  0.00    +0.299 C 
ATOM     24  O   UNL     1       1.130   2.869   0.007  0.00  0.00    -0.265 OA
ATOM     25  H   UNL     1       0.002  -0.004   0.002  0.00  0.00    +0.149 HD
BRANCH  23  26
ATOM     26  C   UNL     1       2.451   0.926  -0.016  0.00  0.00    +0.299 C 
ATOM     27  O   UNL     1       2.467  -0.287  -0.023  0.00  0.00    -0.265 OA
ATOM     28  N   UNL     1       3.609   1.616  -0.024  0.00  0.00    -0.307 N 
ATOM     29  H   UNL     1       3.596   2.586  -0.018  0.00  0.00    +0.149 HD
BRANCH  28  30
ATOM     30  C   UNL     1       4.887   0.900  -0.040  0.00  0.00    +0.109 C 
BRANCH  30  31
ATOM     31  C   UNL     1       6.037   1.911  -0.045  0.00  0.00    +0.054 C 
BRANCH  31  32
ATOM     32  C   UNL     1       7.352   1.175  -0.062  0.00  0.00    -0.046 A 
ATOM     33  C   UNL     1       7.968   0.837   1.129  0.00  0.00    +0.007 A 
ATOM     34  C   UNL     1       9.171   0.157   1.116  0.00  0.00    +0.046 A 
ATOM     35  C   UNL     1       9.766  -0.176  -0.092  0.00  0.00    +0.120 A 
ATOM     36  C   UNL     1       9.148   0.170  -1.285  0.00  0.00    +0.046 A 
ATOM     37  C   UNL     1       7.943   0.844  -1.267  0.00  0.00    +0.007 A 
BRANCH  35  38
ATOM     38  O   UNL     1      10.952  -0.839  -0.107  0.00  0.00    -0.495 OA
ATOM     39  C   UNL     1      11.530  -1.163   1.159  0.00  0.00    +0.277 C 
ENDBRANCH  35  38
ENDBRANCH  31  32
ENDBRANCH  30  31
ENDBRANCH  28  30
ENDBRANCH  23  26
ENDBRANCH  21  22
ENDBRANCH   1  21
TORSDOF 11
