REMARK  Name = ZINC63795237
REMARK  2 active torsions:
REMARK  status: ('A' for Active; 'I' for Inactive)
REMARK    1  A    between atoms: C_2  and  C_9
REMARK    2  A    between atoms: C_15  and  C_18
REMARK                            x       y       z     vdW  Elec       q    Type
REMARK                         _______ _______ _______ _____ _____    ______ ____
ROOT
ATOM      1  C   UNL     1       1.171   3.566   0.009  0.00  0.00    +0.182 A 
ATOM      2  N   UNL     1       0.138   4.331  -0.245  0.00  0.00    -0.127 NA
ATOM      3  N   UNL     1       0.478   5.569  -0.163  0.00  0.00    -0.120 NA
ATOM      4  C   UNL     1       1.740   5.657   0.131  0.00  0.00    +0.211 A 
ATOM      5  N   UNL     1       2.252   4.395   0.294  0.00  0.00    -0.220 N 
ATOM      6  N   UNL     1       3.552   4.249   0.676  0.00  0.00    -0.265 N 
ATOM      7  C   UNL     1       4.423   5.424   0.402  0.00  0.00    +0.182 C 
ATOM      8  S   UNL     1       3.127   6.736   0.421  0.00  0.00    -0.058 S 
ATOM      9  H   UNL     1       3.616   3.969   1.643  0.00  0.00    +0.168 HD
ENDROOT
BRANCH   1  11
ATOM     10  C   UNL     1      -0.017   1.377   0.010  0.00  0.00    +0.031 A 
ATOM     11  C   UNL     1       1.184   2.088   0.002  0.00  0.00    +0.024 A 
ATOM     12  C   UNL     1       2.397   1.398  -0.013  0.00  0.00    +0.031 A 
ATOM     13  C   UNL     1       2.403   0.018  -0.021  0.00  0.00    +0.043 A 
ATOM     14  C   UNL     1       1.209  -0.683  -0.013  0.00  0.00    +0.040 A 
ATOM     15  C   UNL     1       0.002  -0.004   0.002  0.00  0.00    +0.043 A 
ATOM     16 CL   UNL     1      -1.490  -0.891   0.012  0.00  0.00    -0.083 Cl
ATOM     17 CL   UNL     1       3.911  -0.842  -0.040  0.00  0.00    -0.083 Cl
ENDBRANCH   1  11
BRANCH   7  18
ATOM     18  C   UNL     1       5.091   5.322  -0.970  0.00  0.00    +0.184 C 
ATOM     19  C   UNL     1       6.111   6.432  -1.155  0.00  0.00    +0.025 C 
ATOM     20  C   UNL     1       7.267   5.784  -1.312  0.00  0.00    +0.132 C 
ATOM     21  N   UNL     1       7.080   4.447  -1.247  0.00  0.00    -0.162 NA
ATOM     22  N   UNL     1       5.907   4.099  -1.062  0.00  0.00    -0.177 NA
ENDBRANCH   7  18
TORSDOF 2
