REMARK  Name = ZINC12500871
REMARK  6 active torsions:
REMARK  status: ('A' for Active; 'I' for Inactive)
REMARK    1  A    between atoms: C_4  and  C_7
REMARK    2  A    between atoms: C_10  and  C_13
REMARK    3  A    between atoms: N_15  and  N_16
REMARK    4  A    between atoms: N_16  and  C_17
REMARK    5  A    between atoms: C_17  and  N_19
REMARK    6  A    between atoms: C_20  and  C_22
REMARK                            x       y       z     vdW  Elec       q    Type
REMARK                         _______ _______ _______ _____ _____    ______ ____
ROOT
ATOM      1  C   UNL     1      -0.076   5.728   0.032  0.00  0.00    +0.260 C 
ATOM      2  O   UNL     1       0.969   6.350   0.025  0.00  0.00    -0.269 OA
ATOM      3  N   UNL     1      -1.252   6.386   0.046  0.00  0.00    -0.231 N 
ATOM      4  H   UNL     1      -2.085   5.889   0.052  0.00  0.00    +0.173 HD
ENDROOT
BRANCH   1   8
ATOM      5  C   UNL     1      -0.018   1.479   0.010  0.00  0.00    -0.018 A 
ATOM      6  C   UNL     1      -1.236   2.159   0.020  0.00  0.00    +0.009 A 
ATOM      7  C   UNL     1      -1.256   3.535   0.032  0.00  0.00    +0.014 A 
ATOM      8  C   UNL     1      -0.056   4.251   0.025  0.00  0.00    +0.038 A 
ATOM      9  C   UNL     1       1.163   3.568   0.010  0.00  0.00    +0.014 A 
ATOM     10  C   UNL     1       1.181   2.192   0.003  0.00  0.00    +0.009 A 
BRANCH   5  14
ATOM     11  C   UNL     1       0.040  -2.772  -0.015  0.00  0.00    +0.000 A 
ATOM     12  C   UNL     1      -1.169  -2.100   0.002  0.00  0.00    +0.001 A 
ATOM     13  C   UNL     1      -1.194  -0.720   0.010  0.00  0.00    +0.008 A 
ATOM     14  C   UNL     1       0.002  -0.004   0.002  0.00  0.00    -0.018 A 
ATOM     15  C   UNL     1       1.217  -0.687  -0.019  0.00  0.00    +0.008 A 
ATOM     16  C   UNL     1       1.230  -2.067  -0.023  0.00  0.00    +0.001 A 
ENDBRANCH   5  14
ENDBRANCH   1   8
BRANCH   3  17
ATOM     17  N   UNL     1      -1.271   7.787   0.053  0.00  0.00    -0.245 N 
ATOM     18  H   UNL     1      -0.438   8.283   0.047  0.00  0.00    +0.172 HD
BRANCH  17  19
ATOM     19  C   UNL     1      -2.447   8.445   0.067  0.00  0.00    +0.153 C 
ATOM     20  S   UNL     1      -2.470  10.156   0.075  0.00  0.00    -0.017 S 
BRANCH  19  21
ATOM     21  N   UNL     1      -3.605   7.755   0.075  0.00  0.00    -0.263 N 
ATOM     22  C   UNL     1      -4.781   8.413   0.089  0.00  0.00    +0.251 C 
ATOM     23  O   UNL     1      -4.798   9.628   0.095  0.00  0.00    -0.270 OA
ATOM     24  H   UNL     1      -3.592   6.785   0.070  0.00  0.00    +0.157 HD
BRANCH  22  25
ATOM     25  C   UNL     1      -6.050   7.657   0.098  0.00  0.00    +0.051 A 
ATOM     26  C   UNL     1      -6.035   6.261   0.085  0.00  0.00    +0.014 A 
ATOM     27  C   UNL     1      -7.223   5.561   0.098  0.00  0.00    +0.001 A 
ATOM     28  C   UNL     1      -8.430   6.239   0.113  0.00  0.00    +0.001 A 
ATOM     29  C   UNL     1      -8.454   7.622   0.120  0.00  0.00    +0.016 A 
ATOM     30  C   UNL     1      -7.271   8.336   0.113  0.00  0.00    +0.030 A 
ATOM     31 BR   UNL     1      -7.305  10.226   0.121  0.00  0.00    -0.050 Br
ENDBRANCH  22  25
ENDBRANCH  19  21
ENDBRANCH  17  19
ENDBRANCH   3  17
TORSDOF 6
