REMARK  Name = ZINC06949298
REMARK  3 active torsions:
REMARK  status: ('A' for Active; 'I' for Inactive)
REMARK    1  A    between atoms: C_7  and  C_11
REMARK    2  A    between atoms: C_17  and  C_19
REMARK    3  A    between atoms: C_22  and  N_25
REMARK                            x       y       z     vdW  Elec       q    Type
REMARK                         _______ _______ _______ _____ _____    ______ ____
ROOT
ATOM      1  C   UNL     1       0.733  -3.210  -0.022  0.00  0.00    +0.082 A 
ATOM      2  C   UNL     1       1.244  -4.604  -0.029  0.00  0.00    +0.077 A 
ATOM      3  S   UNL     1      -0.182  -5.497  -0.021  0.00  0.00    -0.060 S 
ATOM      4  C   UNL     1      -1.346  -4.148  -0.009  0.00  0.00    +0.165 A 
ATOM      5  N   UNL     1      -0.576  -3.073  -0.007  0.00  0.00    -0.225 NA
ATOM      6  N   UNL     1      -2.711  -4.210  -0.001  0.00  0.00    -0.261 N 
ATOM      7  C   UNL     1      -3.331  -5.407   0.000  0.00  0.00    +0.250 C 
ATOM      8  O   UNL     1      -2.676  -6.430  -0.006  0.00  0.00    -0.270 OA
ATOM      9  H   UNL     1      -3.233  -3.393   0.004  0.00  0.00    +0.157 HD
ENDROOT
BRANCH   1  16
ATOM     10  C   UNL     1      -0.017   1.378   0.010  0.00  0.00    +0.001 A 
ATOM     11  C   UNL     1       1.171   2.088   0.002  0.00  0.00    +0.002 A 
ATOM     12  C   UNL     1       2.389   1.428  -0.013  0.00  0.00    +0.026 A 
ATOM     13  C   UNL     1       2.429   0.041  -0.022  0.00  0.00    +0.047 A 
ATOM     14  C   UNL     1       1.223  -0.678  -0.014  0.00  0.00    +0.009 A 
ATOM     15  C   UNL     1       0.002  -0.004   0.002  0.00  0.00    +0.010 A 
ATOM     16  C   UNL     1       1.595  -2.104  -0.025  0.00  0.00    +0.026 A 
ATOM     17  C   UNL     1       3.062  -2.115  -0.040  0.00  0.00    +0.093 A 
ATOM     18  N   UNL     1       3.489  -0.857  -0.037  0.00  0.00    -0.360 N 
ATOM     19  H   UNL     1       4.424  -0.598  -0.045  0.00  0.00    +0.165 HD
ENDBRANCH   1  16
BRANCH   7  20
ATOM     20  C   UNL     1      -4.807  -5.473   0.010  0.00  0.00    +0.037 A 
ATOM     21  C   UNL     1      -5.562  -4.299   0.011  0.00  0.00    +0.015 A 
ATOM     22  C   UNL     1      -6.940  -4.369   0.020  0.00  0.00    +0.033 A 
ATOM     23  C   UNL     1      -7.574  -5.599   0.027  0.00  0.00    +0.126 A 
ATOM     24  C   UNL     1      -6.831  -6.767   0.025  0.00  0.00    +0.033 A 
ATOM     25  C   UNL     1      -5.453  -6.711   0.011  0.00  0.00    +0.015 A 
BRANCH  23  26
ATOM     26  N   UNL     1      -9.052  -5.666   0.037  0.00  0.00    +0.056 N 
ATOM     27  O   UNL     1      -9.762  -4.556   0.039  0.00  0.00    -0.126 OA
ATOM     28  O   UNL     1      -9.658  -6.835   0.043  0.00  0.00    -0.126 OA
ENDBRANCH  23  26
ENDBRANCH   7  20
TORSDOF 3
