REMARK  Name = ZINC27695872
REMARK  18 active torsions:
REMARK  status: ('A' for Active; 'I' for Inactive)
REMARK    1  A    between atoms: C_1  and  C_2
REMARK    2  A    between atoms: C_2  and  C_3
REMARK    3  A    between atoms: C_3  and  C_5
REMARK    4  A    between atoms: C_3  and  N_6
REMARK    5  A    between atoms: N_6  and  C_7
REMARK    6  A    between atoms: N_6  and  C_36
REMARK    7  A    between atoms: C_7  and  C_8
REMARK    8  A    between atoms: C_8  and  C_10
REMARK    9  A    between atoms: C_8  and  O_35
REMARK   10  A    between atoms: C_10  and  N_11
REMARK   11  A    between atoms: C_19  and  C_20
REMARK   12  A    between atoms: C_20  and  C_22
REMARK   13  A    between atoms: C_20  and  C_23
REMARK   14  A    between atoms: C_28  and  O_33
REMARK   15  A    between atoms: O_33  and  C_34
REMARK   16  A    between atoms: C_36  and  C_38
REMARK   17  A    between atoms: C_36  and  C_39
REMARK   18  A    between atoms: C_39  and  C_40
REMARK                            x       y       z     vdW  Elec       q    Type
REMARK                         _______ _______ _______ _____ _____    ______ ____
ROOT
ATOM      1  N   UNL     1      -0.146  -3.957   2.349  0.00  0.00    -0.325 N 
ATOM      2  C   UNL     1      -1.197  -4.383   3.137  0.00  0.00    +0.069 A 
ATOM      3  C   UNL     1      -1.432  -5.516   3.904  0.00  0.00    +0.028 A 
ATOM      4  C   UNL     1      -2.624  -5.643   4.586  0.00  0.00    +0.002 A 
ATOM      5  C   UNL     1      -3.587  -4.647   4.510  0.00  0.00    +0.002 A 
ATOM      6  C   UNL     1      -3.373  -3.526   3.760  0.00  0.00    +0.030 A 
ATOM      7  C   UNL     1      -2.173  -3.375   3.060  0.00  0.00    +0.089 A 
ATOM      8  N   UNL     1      -1.676  -2.404   2.252  0.00  0.00    -0.232 NA
ATOM      9  C   UNL     1      -0.489  -2.743   1.839  0.00  0.00    +0.118 A 
ENDROOT
BRANCH   9  10
ATOM     10  C   UNL     1       0.376  -1.916   0.923  0.00  0.00    +0.082 C 
ATOM     11  C   UNL     1      -0.352  -1.695  -0.404  0.00  0.00    +0.020 C 
BRANCH  10  12
ATOM     12  C   UNL     1       0.659  -0.584   1.569  0.00  0.00    -0.037 A 
ATOM     13  C   UNL     1      -0.401   0.260   1.895  0.00  0.00    +0.005 A 
ATOM     14  C   UNL     1      -0.180   1.470   2.478  0.00  0.00    +0.009 A 
ATOM     15  C   UNL     1       1.137   1.877   2.757  0.00  0.00    -0.014 A 
ATOM     16  C   UNL     1       1.403   3.118   3.358  0.00  0.00    +0.054 A 
ATOM     17  C   UNL     1       2.695   3.481   3.614  0.00  0.00    +0.121 A 
ATOM     18  C   UNL     1       3.757   2.632   3.286  0.00  0.00    +0.046 A 
ATOM     19  C   UNL     1       3.532   1.424   2.704  0.00  0.00    +0.012 A 
ATOM     20  C   UNL     1       2.215   1.018   2.426  0.00  0.00    -0.017 A 
ATOM     21  C   UNL     1       1.946  -0.223   1.824  0.00  0.00    +0.012 A 
BRANCH  17  22
ATOM     22  O   UNL     1       2.951   4.682   4.194  0.00  0.00    -0.495 OA
ATOM     23  C   UNL     1       4.322   5.006   4.438  0.00  0.00    +0.277 C 
ENDBRANCH  17  22
ENDBRANCH  10  12
ENDBRANCH   9  10
BRANCH   1  24
ATOM     24  C   UNL     1       1.107  -4.677   2.109  0.00  0.00    +0.153 C 
BRANCH  24  25
ATOM     25  C   UNL     1       2.134  -4.279   3.170  0.00  0.00    +0.118 C 
BRANCH  25  26
ATOM     26  O   UNL     1       1.686  -4.717   4.455  0.00  0.00    -0.392 OA
ATOM     27  H   UNL     1       0.731  -4.350   4.859  0.00  0.00    +0.210 HD
ENDBRANCH  25  26
BRANCH  25  28
ATOM     28  C   UNL     1       3.479  -4.933   2.849  0.00  0.00    -0.045 C 
BRANCH  28  29
ATOM     29  N   UNL     1       4.503  -4.428   3.773  0.00  0.00    +0.385 N 
ATOM     30  H   UNL     1       4.342  -3.347   3.898  0.00  0.00    -0.081 HD
BRANCH  29  31
ATOM     31  C   UNL     1       4.378  -5.059   5.094  0.00  0.00    -0.072 C 
ATOM     32  C   UNL     1       4.824  -6.520   5.005  0.00  0.00    -0.013 C 
BRANCH  31  34
ATOM     33  C   UNL     1       4.731  -2.893   6.289  0.00  0.00    +0.002 C 
ATOM     34  C   UNL     1       5.260  -4.316   6.099  0.00  0.00    -0.019 C 
ENDBRANCH  31  34
ENDBRANCH  29  31
BRANCH  29  35
ATOM     35  C   UNL     1       5.851  -4.622   3.223  0.00  0.00    -0.072 C 
ATOM     36  C   UNL     1       5.909  -5.954   2.472  0.00  0.00    -0.013 C 
BRANCH  35  37
ATOM     37  C   UNL     1       6.178  -3.480   2.259  0.00  0.00    -0.019 C 
ATOM     38  C   UNL     1       6.196  -2.155   3.025  0.00  0.00    +0.002 C 
ENDBRANCH  35  37
ENDBRANCH  29  35
ENDBRANCH  28  29
ENDBRANCH  25  28
ENDBRANCH  24  25
ENDBRANCH   1  24
TORSDOF 12
