REMARK  Name = ZINC09049863
REMARK  5 active torsions:
REMARK  status: ('A' for Active; 'I' for Inactive)
REMARK    1  A    between atoms: C_1  and  C_2
REMARK    2  A    between atoms: C_2  and  C_4
REMARK    3  A    between atoms: C_2  and  S_19
REMARK    4  A    between atoms: N_6  and  C_7
REMARK    5  A    between atoms: S_19  and  C_20
REMARK                            x       y       z     vdW  Elec       q    Type
REMARK                         _______ _______ _______ _____ _____    ______ ____
ROOT
ATOM      1  C   UNL     1       3.900   8.915   0.297  0.00  0.00    +0.230 C 
ATOM      2  O   UNL     1       3.171   9.878   0.183  0.00  0.00    -0.274 OA
ATOM      3  N   UNL     1       5.213   9.091   0.546  0.00  0.00    -0.285 N 
ATOM      4  H   UNL     1       5.782   8.323   0.713  0.00  0.00    +0.155 HD
ENDROOT
BRANCH   3   5
ATOM      5  C   UNL     1       5.756  10.382   0.563  0.00  0.00    +0.035 A 
ATOM      6  C   UNL     1       6.805  10.682   1.425  0.00  0.00    +0.025 A 
ATOM      7  C   UNL     1       7.345  11.952   1.447  0.00  0.00    +0.029 A 
ATOM      8  C   UNL     1       6.841  12.932   0.605  0.00  0.00    +0.067 A 
ATOM      9  C   UNL     1       5.788  12.634  -0.262  0.00  0.00    +0.069 A 
ATOM     10  C   UNL     1       5.252  11.356  -0.285  0.00  0.00    +0.051 A 
ATOM     11  N   UNL     1       5.506  13.801  -0.969  0.00  0.00    -0.306 N 
ATOM     12  H   UNL     1       4.819  13.901  -1.647  0.00  0.00    +0.170 HD
ATOM     13  C   UNL     1       6.347  14.765  -0.550  0.00  0.00    +0.325 A 
ATOM     14  O   UNL     1       6.365  15.908  -0.967  0.00  0.00    -0.247 OA
ATOM     15  N   UNL     1       7.165  14.273   0.399  0.00  0.00    -0.306 N 
ATOM     16  H   UNL     1       7.861  14.767   0.861  0.00  0.00    +0.170 HD
ENDBRANCH   3   5
BRANCH   1  18
ATOM     17  C   UNL     1       3.636   6.988  -1.241  0.00  0.00    +0.029 C 
ATOM     18  C   UNL     1       3.338   7.524   0.161  0.00  0.00    +0.136 C 
BRANCH  18  19
ATOM     19  S   UNL     1       1.547   7.568   0.422  0.00  0.00    -0.086 S 
BRANCH  19  20
ATOM     20  C   UNL     1       1.186   5.845   0.361  0.00  0.00    +0.136 A 
ATOM     21  N   UNL     1       0.026   5.240   0.488  0.00  0.00    -0.233 NA
ATOM     22  C   UNL     1      -0.103   3.897   0.418  0.00  0.00    +0.079 A 
ATOM     23  C   UNL     1      -1.283   3.127   0.537  0.00  0.00    +0.029 A 
ATOM     24  C   UNL     1      -1.241   1.761   0.434  0.00  0.00    +0.002 A 
ATOM     25  C   UNL     1      -0.047   1.087   0.223  0.00  0.00    +0.001 A 
ATOM     26  C   UNL     1       1.127   1.809   0.102  0.00  0.00    +0.017 A 
ATOM     27  C   UNL     1       1.093   3.177   0.197  0.00  0.00    +0.040 A 
ATOM     28  S   UNL     1       2.305   4.473   0.108  0.00  0.00    -0.061 S 
ENDBRANCH  19  20
ENDBRANCH  18  19
ENDBRANCH   1  18
TORSDOF 4
