REMARK  Name = ZINC12531606
REMARK  16 active torsions:
REMARK  status: ('A' for Active; 'I' for Inactive)
REMARK    1  A    between atoms: C_1  and  C_2
REMARK    2  A    between atoms: C_2  and  O_38
REMARK    3  A    between atoms: C_5  and  C_24
REMARK    4  A    between atoms: C_9  and  C_22
REMARK    5  A    between atoms: C_9  and  C_23
REMARK    6  A    between atoms: C_11  and  N_13
REMARK    7  A    between atoms: N_13  and  C_14
REMARK    8  A    between atoms: C_14  and  C_15
REMARK    9  A    between atoms: C_18  and  C_20
REMARK   10  A    between atoms: C_20  and  O_21
REMARK   11  A    between atoms: C_24  and  C_25
REMARK   12  A    between atoms: C_25  and  C_26
REMARK   13  A    between atoms: N_28  and  C_29
REMARK   14  A    between atoms: C_29  and  C_30
REMARK   15  A    between atoms: C_33  and  O_36
REMARK   16  A    between atoms: O_36  and  C_37
REMARK                            x       y       z     vdW  Elec       q    Type
REMARK                         _______ _______ _______ _____ _____    ______ ____
ROOT
ATOM      1  C   UNL     1      -0.425   1.542  -0.808  0.00  0.00    +0.041 C 
ATOM      2  C   UNL     1      -0.076   0.057  -0.685  0.00  0.00    +0.064 C 
ATOM      3  C   UNL     1      -1.361  -0.777  -0.714  0.00  0.00    +0.035 C 
ATOM      4  C   UNL     1      -0.977  -2.256  -0.667  0.00  0.00    +0.008 C 
ATOM      5  C   UNL     1      -0.185  -2.578   0.580  0.00  0.00    -0.038 C 
ATOM      6  C   UNL     1       1.039  -1.665   0.771  0.00  0.00    +0.002 C 
ATOM      7  C   UNL     1       0.639  -0.193   0.641  0.00  0.00    +0.039 C 
ATOM      8  C   UNL     1       1.376  -1.902   2.273  0.00  0.00    -0.033 C 
ATOM      9  C   UNL     1      -0.007  -1.981   2.955  0.00  0.00    -0.009 C 
ATOM     10  C   UNL     1      -1.009  -2.410   1.863  0.00  0.00    -0.064 C 
ATOM     11  C   UNL     1       2.139  -3.216   2.451  0.00  0.00    +0.011 C 
ATOM     12  C   UNL     1       2.184  -0.730   2.834  0.00  0.00    +0.011 C 
ENDROOT
BRANCH  10  13
ATOM     13  N   UNL     1      -1.642  -3.684   2.229  0.00  0.00    +0.386 N 
ATOM     14  H   UNL     1      -2.194  -4.020   1.454  0.00  0.00    -0.085 HD
ATOM     15  H   UNL     1      -0.929  -4.362   2.453  0.00  0.00    -0.085 HD
BRANCH  13  16
ATOM     16  C   UNL     1      -2.510  -3.482   3.397  0.00  0.00    -0.007 C 
BRANCH  16  17
ATOM     17  C   UNL     1      -3.159  -4.789   3.773  0.00  0.00    +0.089 A 
ATOM     18  C   UNL     1      -2.663  -5.695   4.634  0.00  0.00    +0.043 A 
ATOM     19  C   UNL     1      -3.591  -6.760   4.688  0.00  0.00    +0.047 A 
ATOM     20  C   UNL     1      -4.599  -6.441   3.855  0.00  0.00    +0.130 A 
ATOM     21  O   UNL     1      -4.335  -5.244   3.308  0.00  0.00    -0.464 OA
BRANCH  20  22
ATOM     22  C   UNL     1      -5.819  -7.283   3.587  0.00  0.00    +0.230 C 
BRANCH  22  23
ATOM     23  O   UNL     1      -6.849  -6.939   4.515  0.00  0.00    -0.387 OA
ATOM     24  H   UNL     1      -7.667  -7.442   4.401  0.00  0.00    +0.210 HD
ENDBRANCH  22  23
ENDBRANCH  20  22
ENDBRANCH  16  17
ENDBRANCH  13  16
ENDBRANCH  10  13
BRANCH   2  25
ATOM     25  O   UNL     1       0.773  -0.327  -1.768  0.00  0.00    -0.389 OA
ATOM     26  H   UNL     1       0.379  -0.200  -2.642  0.00  0.00    +0.210 HD
ENDBRANCH   2  25
BRANCH   5  27
ATOM     27  C   UNL     1       0.310  -4.024   0.494  0.00  0.00    +0.015 C 
BRANCH  27  28
ATOM     28  C   UNL     1       1.327  -4.148  -0.642  0.00  0.00    +0.096 C 
BRANCH  28  29
ATOM     29  C   UNL     1       1.781  -5.580  -0.755  0.00  0.00    +0.213 C 
ATOM     30  O   UNL     1       1.335  -6.419  -0.001  0.00  0.00    -0.276 OA
ATOM     31  N   UNL     1       2.683  -5.929  -1.694  0.00  0.00    -0.311 N 
ATOM     32  H   UNL     1       3.039  -5.259  -2.297  0.00  0.00    +0.149 HD
BRANCH  31  33
ATOM     33  C   UNL     1       3.124  -7.322  -1.804  0.00  0.00    +0.139 C 
BRANCH  33  34
ATOM     34  C   UNL     1       4.126  -7.445  -2.924  0.00  0.00    -0.030 A 
ATOM     35  C   UNL     1       3.695  -7.716  -4.209  0.00  0.00    +0.009 A 
ATOM     36  C   UNL     1       4.611  -7.829  -5.237  0.00  0.00    +0.046 A 
ATOM     37  C   UNL     1       5.965  -7.670  -4.978  0.00  0.00    +0.120 A 
ATOM     38  C   UNL     1       6.394  -7.398  -3.687  0.00  0.00    +0.046 A 
ATOM     39  C   UNL     1       5.474  -7.280  -2.664  0.00  0.00    +0.009 A 
BRANCH  37  40
ATOM     40  O   UNL     1       6.868  -7.782  -5.987  0.00  0.00    -0.495 OA
ATOM     41  C   UNL     1       8.245  -7.606  -5.647  0.00  0.00    +0.277 C 
ENDBRANCH  37  40
ENDBRANCH  33  34
ENDBRANCH  31  33
ENDBRANCH  28  29
ENDBRANCH  27  28
ENDBRANCH   5  27
TORSDOF 12
