REMARK  Name = ZINC07496037
REMARK  2 active torsions:
REMARK  status: ('A' for Active; 'I' for Inactive)
REMARK    1  A    between atoms: C_10  and  C_26
REMARK    2  A    between atoms: C_16  and  C_21
REMARK                            x       y       z     vdW  Elec       q    Type
REMARK                         _______ _______ _______ _____ _____    ______ ____
ROOT
ATOM      1  C   UNL     1      -4.027   7.527  -4.823  0.00  0.00    +0.002 A 
ATOM      2  C   UNL     1      -3.740   6.320  -5.436  0.00  0.00    +0.002 A 
ATOM      3  C   UNL     1      -3.266   5.230  -4.725  0.00  0.00    +0.028 A 
ATOM      4  C   UNL     1      -3.085   5.396  -3.357  0.00  0.00    +0.071 A 
ATOM      5  C   UNL     1      -3.377   6.631  -2.725  0.00  0.00    +0.091 A 
ATOM      6  C   UNL     1      -3.856   7.719  -3.464  0.00  0.00    +0.030 A 
ATOM      7  N   UNL     1      -3.105   6.485  -1.413  0.00  0.00    -0.214 NA
ATOM      8  C   UNL     1      -2.671   5.274  -1.193  0.00  0.00    +0.202 A 
ATOM      9  N   UNL     1      -2.647   4.560  -2.371  0.00  0.00    -0.300 N 
ATOM     10  C   UNL     1      -2.217   3.167  -2.442  0.00  0.00    +0.156 C 
ATOM     11  C   UNL     1      -1.492   2.778  -1.174  0.00  0.00    +0.039 C 
ATOM     12  C   UNL     1      -1.552   3.527  -0.053  0.00  0.00    +0.020 C 
ATOM     13  N   UNL     1      -2.269   4.698   0.000  0.00  0.00    -0.288 N 
ATOM     14  C   UNL     1      -0.819   3.109   1.200  0.00  0.00    +0.063 C 
ATOM     15  C   UNL     1      -0.735   1.582   1.265  0.00  0.00    +0.068 C 
ATOM     16  C   UNL     1      -0.013   1.086   0.008  0.00  0.00    +0.091 C 
ATOM     17  C   UNL     1      -0.744   1.586  -1.206  0.00  0.00    +0.164 C 
ATOM     18  O   UNL     1      -0.690   0.947  -2.238  0.00  0.00    -0.292 OA
ATOM     19  H   UNL     1      -2.489   5.110   0.850  0.00  0.00    +0.155 HD
ENDROOT
BRANCH  10  20
ATOM     20  C   UNL     1      -3.423   2.280  -2.619  0.00  0.00    -0.017 A 
ATOM     21  C   UNL     1      -4.425   2.246  -1.662  0.00  0.00    +0.025 A 
ATOM     22  C   UNL     1      -5.519   1.425  -1.861  0.00  0.00    +0.111 A 
ATOM     23  N   UNL     1      -5.610   0.673  -2.940  0.00  0.00    -0.263 NA
ATOM     24  C   UNL     1      -4.674   0.676  -3.869  0.00  0.00    +0.111 A 
ATOM     25  C   UNL     1      -3.554   1.476  -3.741  0.00  0.00    +0.025 A 
ENDBRANCH  10  20
BRANCH  15  26
ATOM     26  C   UNL     1       0.036   1.165   2.491  0.00  0.00    +0.109 A 
ATOM     27  C   UNL     1      -0.427   0.384   3.484  0.00  0.00    +0.045 A 
ATOM     28  C   UNL     1       0.620   0.251   4.424  0.00  0.00    +0.041 A 
ATOM     29  C   UNL     1       1.661   0.960   3.950  0.00  0.00    +0.195 A 
ATOM     30  O   UNL     1       1.303   1.507   2.776  0.00  0.00    -0.468 OA
ENDBRANCH  15  26
TORSDOF 2
