REMARK  Name = ZINC13064428
REMARK  10 active torsions:
REMARK  status: ('A' for Active; 'I' for Inactive)
REMARK    1  A    between atoms: C_1  and  C_2
REMARK    2  A    between atoms: C_2  and  C_3
REMARK    3  A    between atoms: C_3  and  C_5
REMARK    4  A    between atoms: C_3  and  N_69
REMARK    5  A    between atoms: N_9  and  C_10
REMARK    6  A    between atoms: C_10  and  C_11
REMARK    7  A    between atoms: C_17  and  C_18
REMARK    8  A    between atoms: C_17  and  N_69
REMARK    9  A    between atoms: C_24  and  C_25
REMARK   10  A    between atoms: C_24  and  N_69
REMARK                            x       y       z     vdW  Elec       q    Type
REMARK                         _______ _______ _______ _____ _____    ______ ____
ROOT
ATOM      1  N   UNL     1       4.279   0.546  -3.496  0.00  0.00    +0.392 N 
ATOM      2  H   UNL     1       4.628   0.563  -4.462  0.00  0.00    -0.080 HD
ENDROOT
BRANCH   1   3
ATOM      3  C   UNL     1       4.985   1.582  -2.713  0.00  0.00    +0.003 C 
BRANCH   3   4
ATOM      4  C   UNL     1       4.324   1.771  -1.371  0.00  0.00    +0.138 A 
ATOM      5  N   UNL     1       3.044   1.935  -1.146  0.00  0.00    -0.115 NA
ATOM      6  N   UNL     1       2.877   2.068   0.124  0.00  0.00    -0.023 NA
ATOM      7  N   UNL     1       4.017   1.987   0.716  0.00  0.00    -0.044 NA
ATOM      8  N   UNL     1       4.934   1.801  -0.172  0.00  0.00    -0.226 N 
BRANCH   8   9
ATOM      9  C   UNL     1       6.371   1.656   0.078  0.00  0.00    +0.182 C 
BRANCH   9  10
ATOM     10  C   UNL     1       6.699   0.200   0.288  0.00  0.00    -0.026 A 
ATOM     11  C   UNL     1       7.041  -0.594  -0.790  0.00  0.00    +0.005 A 
ATOM     12  C   UNL     1       7.343  -1.929  -0.597  0.00  0.00    +0.000 A 
ATOM     13  C   UNL     1       7.297  -2.471   0.673  0.00  0.00    +0.000 A 
ATOM     14  C   UNL     1       6.960  -1.676   1.752  0.00  0.00    +0.000 A 
ATOM     15  C   UNL     1       6.659  -0.341   1.560  0.00  0.00    +0.005 A 
ENDBRANCH   9  10
ENDBRANCH   8   9
ENDBRANCH   3   4
BRANCH   3  17
ATOM     16  C   UNL     1       5.613   2.705  -4.854  0.00  0.00    +0.002 C 
ATOM     17  C   UNL     1       4.947   2.899  -3.490  0.00  0.00    -0.011 C 
ENDBRANCH   3  17
ENDBRANCH   1   3
BRANCH   1  18
ATOM     18  C   UNL     1       2.827   0.822  -3.505  0.00  0.00    -0.042 C 
BRANCH  18  19
ATOM     19  C   UNL     1       2.562   1.991  -4.418  0.00  0.00    -0.064 A 
ATOM     20  C   UNL     1       2.034   3.161  -3.906  0.00  0.00    +0.002 A 
ATOM     21  C   UNL     1       1.796   4.236  -4.743  0.00  0.00    +0.000 A 
ATOM     22  C   UNL     1       2.076   4.136  -6.093  0.00  0.00    +0.000 A 
ATOM     23  C   UNL     1       2.599   2.964  -6.606  0.00  0.00    +0.000 A 
ATOM     24  C   UNL     1       2.842   1.891  -5.768  0.00  0.00    +0.002 A 
ENDBRANCH  18  19
ENDBRANCH   1  18
BRANCH   1  25
ATOM     25  C   UNL     1       4.537  -0.789  -2.916  0.00  0.00    -0.036 C 
BRANCH  25  26
ATOM     26  C   UNL     1       3.928  -1.835  -3.813  0.00  0.00    +0.001 A 
ATOM     27  C   UNL     1       4.687  -2.433  -4.767  0.00  0.00    +0.017 A 
ATOM     28  C   UNL     1       4.067  -3.445  -5.622  0.00  0.00    +0.002 A 
ATOM     29  C   UNL     1       4.801  -4.094  -6.622  0.00  0.00    +0.059 A 
ATOM     30  C   UNL     1       4.188  -5.041  -7.415  0.00  0.00    +0.163 A 
ATOM     31  C   UNL     1       2.840  -5.357  -7.221  0.00  0.00    +0.164 A 
ATOM     32  C   UNL     1       2.108  -4.721  -6.233  0.00  0.00    +0.075 A 
ATOM     33  C   UNL     1       2.709  -3.763  -5.428  0.00  0.00    +0.053 A 
ATOM     34  N   UNL     1       1.993  -3.119  -4.439  0.00  0.00    -0.322 N 
ATOM     35  H   UNL     1       1.058  -3.339  -4.305  0.00  0.00    +0.169 HD
ATOM     36  C   UNL     1       2.574  -2.194  -3.655  0.00  0.00    +0.251 A 
ATOM     37  O   UNL     1       1.912  -1.648  -2.789  0.00  0.00    -0.268 OA
ATOM     38  O   UNL     1       2.230  -6.293  -7.996  0.00  0.00    -0.485 OA
ATOM     39  C   UNL     1       2.884  -6.642  -9.221  0.00  0.00    +0.270 C 
ATOM     40  C   UNL     1       4.372  -6.872  -8.922  0.00  0.00    +0.270 C 
ATOM     41  O   UNL     1       4.914  -5.660  -8.388  0.00  0.00    -0.485 OA
ENDBRANCH  25  26
ENDBRANCH   1  25
TORSDOF 9
