REMARK  Name = ZINC38710123
REMARK  5 active torsions:
REMARK  status: ('A' for Active; 'I' for Inactive)
REMARK    1  A    between atoms: C_1  and  C_2
REMARK    2  A    between atoms: C_2  and  O_3
REMARK    3  A    between atoms: O_3  and  C_4
REMARK    4  A    between atoms: C_7  and  C_10
REMARK    5  A    between atoms: C_13  and  C_25
REMARK                            x       y       z     vdW  Elec       q    Type
REMARK                         _______ _______ _______ _____ _____    ______ ____
ROOT
ATOM      1  C   UNL     1       1.109  -6.040  -1.847  0.00  0.00    +0.089 C 
ATOM      2  C   UNL     1       0.484  -6.462  -3.152  0.00  0.00    +0.009 C 
ATOM      3  C   UNL     1      -0.662  -7.024  -3.459  0.00  0.00    +0.064 C 
ATOM      4  N   UNL     1      -0.704  -7.315  -4.784  0.00  0.00    -0.157 NA
ATOM      5  N   UNL     1       0.300  -6.965  -5.419  0.00  0.00    -0.160 NA
ATOM      6  C   UNL     1       1.205  -6.286  -4.489  0.00  0.00    +0.241 C 
ATOM      7  N   UNL     1       2.487  -6.996  -4.343  0.00  0.00    -0.318 N 
ATOM      8  C   UNL     1       3.127  -6.868  -3.136  0.00  0.00    +0.055 C 
ATOM      9  C   UNL     1       2.571  -6.446  -1.969  0.00  0.00    +0.068 C 
ATOM     10  C   UNL     1       3.534  -6.451  -0.952  0.00  0.00    +0.338 C 
ATOM     11  O   UNL     1       3.323  -6.123   0.200  0.00  0.00    -0.245 OA
ATOM     12  O   UNL     1       4.727  -6.869  -1.422  0.00  0.00    -0.455 OA
ATOM     13  C   UNL     1       4.572  -7.163  -2.829  0.00  0.00    +0.283 C 
ATOM     14  C   UNL     1      -1.772  -7.304  -2.480  0.00  0.00    +0.067 C 
ATOM     15  H   UNL     1       2.861  -7.526  -5.064  0.00  0.00    +0.148 HD
ENDROOT
BRANCH   1  19
ATOM     16  C   UNL     1       0.777  -1.810  -1.336  0.00  0.00    +0.121 A 
ATOM     17  C   UNL     1       0.243  -2.669  -0.386  0.00  0.00    +0.046 A 
ATOM     18  C   UNL     1       0.351  -4.036  -0.554  0.00  0.00    +0.008 A 
ATOM     19  C   UNL     1       0.992  -4.548  -1.667  0.00  0.00    -0.035 A 
ATOM     20  C   UNL     1       1.525  -3.694  -2.615  0.00  0.00    +0.008 A 
ATOM     21  C   UNL     1       1.414  -2.327  -2.455  0.00  0.00    +0.046 A 
BRANCH  16  22
ATOM     22  O   UNL     1       0.671  -0.465  -1.174  0.00  0.00    -0.492 OA
BRANCH  22  24
ATOM     23  C   UNL     1      -0.019   1.526   0.010  0.00  0.00    +0.048 C 
ATOM     24  C   UNL     1       0.002  -0.004   0.002  0.00  0.00    +0.225 C 
ENDBRANCH  22  24
ENDBRANCH  16  22
ENDBRANCH   1  19
TORSDOF 3
