REMARK  Name = ZINC57641474
REMARK  11 active torsions:
REMARK  status: ('A' for Active; 'I' for Inactive)
REMARK    1  A    between atoms: C_1  and  C_2
REMARK    2  A    between atoms: C_2  and  C_3
REMARK    3  A    between atoms: C_3  and  C_5
REMARK    4  A    between atoms: C_3  and  N_16
REMARK    5  A    between atoms: N_9  and  C_10
REMARK    6  A    between atoms: N_16  and  C_17
REMARK    7  A    between atoms: N_16  and  C_27
REMARK    8  A    between atoms: C_17  and  C_18
REMARK    9  A    between atoms: C_27  and  C_28
REMARK   10  A    between atoms: C_32  and  C_41
REMARK   11  A    between atoms: C_33  and  C_40
REMARK                            x       y       z     vdW  Elec       q    Type
REMARK                         _______ _______ _______ _____ _____    ______ ____
ROOT
ATOM      1  N   UNL     1      -1.819  -0.055  -1.143  0.00  0.00    -0.284 NA
ENDROOT
BRANCH   1   2
ATOM      2  C   UNL     1      -1.542  -0.716   0.140  0.00  0.00    +0.127 C 
BRANCH   2   3
ATOM      3  C   UNL     1      -0.152  -0.357   0.600  0.00  0.00    +0.169 A 
ATOM      4  N   UNL     1       0.377   0.841   0.632  0.00  0.00    -0.112 NA
ATOM      5  N   UNL     1       1.579   0.734   1.085  0.00  0.00    -0.023 NA
ATOM      6  N   UNL     1       1.829  -0.502   1.343  0.00  0.00    -0.044 NA
ATOM      7  N   UNL     1       0.785  -1.206   1.062  0.00  0.00    -0.225 N 
BRANCH   7   8
ATOM      8  C   UNL     1       0.647  -2.656   1.214  0.00  0.00    +0.111 C 
ATOM      9  C   UNL     1       0.847  -3.036   2.683  0.00  0.00    +0.027 C 
ATOM     10  C   UNL     1       0.702  -4.551   2.842  0.00  0.00    +0.002 C 
ATOM     11  C   UNL     1       1.755  -5.257   1.985  0.00  0.00    +0.000 C 
ATOM     12  C   UNL     1       1.556  -4.877   0.516  0.00  0.00    +0.002 C 
ATOM     13  C   UNL     1       1.700  -3.362   0.357  0.00  0.00    +0.027 C 
ENDBRANCH   7   8
ENDBRANCH   2   3
BRANCH   2  15
ATOM     14  C   UNL     1      -3.963  -0.684   0.755  0.00  0.00    +0.006 C 
ATOM     15  C   UNL     1      -2.559  -0.250   1.183  0.00  0.00    +0.023 C 
ENDBRANCH   2  15
ENDBRANCH   1   2
BRANCH   1  16
ATOM     16  C   UNL     1      -1.011  -0.641  -2.221  0.00  0.00    +0.120 C 
BRANCH  16  17
ATOM     17  C   UNL     1      -1.595  -1.972  -2.619  0.00  0.00    -0.030 A 
ATOM     18  C   UNL     1      -1.218  -3.119  -1.946  0.00  0.00    +0.009 A 
ATOM     19  C   UNL     1      -1.751  -4.343  -2.308  0.00  0.00    +0.050 A 
ATOM     20  C   UNL     1      -2.664  -4.422  -3.346  0.00  0.00    +0.166 A 
ATOM     21  C   UNL     1      -3.044  -3.266  -4.024  0.00  0.00    +0.167 A 
ATOM     22  C   UNL     1      -2.510  -2.042  -3.653  0.00  0.00    +0.054 A 
ATOM     23  O   UNL     1      -3.943  -3.604  -4.994  0.00  0.00    -0.453 OA
ATOM     24  C   UNL     1      -3.801  -5.026  -5.171  0.00  0.00    +0.466 C 
ATOM     25  O   UNL     1      -3.326  -5.484  -3.891  0.00  0.00    -0.453 OA
ENDBRANCH  16  17
ENDBRANCH   1  16
BRANCH   1  26
ATOM     26  C   UNL     1      -1.598   1.394  -1.047  0.00  0.00    +0.126 C 
BRANCH  26  27
ATOM     27  C   UNL     1      -2.277   2.082  -2.203  0.00  0.00    +0.031 A 
ATOM     28  C   UNL     1      -3.538   2.560  -2.059  0.00  0.00    +0.020 A 
ATOM     29  C   UNL     1      -4.169   3.224  -3.200  0.00  0.00    -0.001 A 
ATOM     30  C   UNL     1      -5.468   3.737  -3.112  0.00  0.00    +0.013 A 
ATOM     31  C   UNL     1      -6.028   4.352  -4.195  0.00  0.00    -0.047 A 
ATOM     32  C   UNL     1      -5.321   4.471  -5.384  0.00  0.00    -0.046 A 
ATOM     33  C   UNL     1      -4.041   3.973  -5.494  0.00  0.00    +0.030 A 
ATOM     34  C   UNL     1      -3.449   3.344  -4.404  0.00  0.00    +0.049 A 
ATOM     35  N   UNL     1      -2.169   2.837  -4.486  0.00  0.00    -0.322 N 
ATOM     36  H   UNL     1      -1.674   2.921  -5.316  0.00  0.00    +0.169 HD
ATOM     37  C   UNL     1      -1.596   2.233  -3.430  0.00  0.00    +0.254 A 
ATOM     38  O   UNL     1      -0.461   1.802  -3.537  0.00  0.00    -0.268 OA
ATOM     39  C   UNL     1      -5.960   5.153  -6.566  0.00  0.00    +0.044 C 
ATOM     40  C   UNL     1      -7.427   4.904  -4.100  0.00  0.00    +0.044 C 
ENDBRANCH  26  27
ENDBRANCH   1  26
TORSDOF 8
