REMARK  Name = ZINC44022802
REMARK  3 active torsions:
REMARK  status: ('A' for Active; 'I' for Inactive)
REMARK    1  A    between atoms: C_1  and  C_2
REMARK    2  A    between atoms: C_2  and  N_3
REMARK    3  A    between atoms: C_7  and  N_12
REMARK                            x       y       z     vdW  Elec       q    Type
REMARK                         _______ _______ _______ _____ _____    ______ ____
ROOT
ATOM      1  N   UNL     1       0.734  -0.522   1.163  0.00  0.00    -0.261 N 
ATOM      2  C   UNL     1       1.327   0.379   1.971  0.00  0.00    +0.258 A 
ATOM      3  O   UNL     1       1.292   1.566   1.696  0.00  0.00    -0.267 OA
ATOM      4  C   UNL     1       1.984  -0.058   3.132  0.00  0.00    +0.112 A 
ATOM      5  C   UNL     1       2.008  -1.395   3.418  0.00  0.00    +0.108 A 
ATOM      6  N   UNL     1       1.390  -2.278   2.567  0.00  0.00    -0.296 N 
ATOM      7  H   UNL     1       1.403  -3.228   2.764  0.00  0.00    +0.172 HD
ATOM      8  C   UNL     1       0.762  -1.833   1.462  0.00  0.00    +0.331 A 
ATOM      9  O   UNL     1       0.217  -2.628   0.722  0.00  0.00    -0.246 OA
ENDROOT
BRANCH   5  10
ATOM     10  N   UNL     1       2.643  -1.849   4.545  0.00  0.00    -0.313 N 
ATOM     11  C   UNL     1       4.075  -2.184   4.523  0.00  0.00    +0.107 C 
ATOM     12  C   UNL     1       4.266  -3.607   5.056  0.00  0.00    +0.019 C 
ATOM     13  C   UNL     1       3.606  -3.735   6.432  0.00  0.00    +0.007 C 
ATOM     14  C   UNL     1       2.110  -3.452   6.300  0.00  0.00    +0.010 C 
ATOM     15  C   UNL     1       1.914  -2.009   5.808  0.00  0.00    +0.078 C 
ATOM     16  C   UNL     1       0.423  -1.747   5.604  0.00  0.00    +0.023 C 
ATOM     17  C   UNL     1      -0.301  -1.917   6.943  0.00  0.00    +0.002 C 
ATOM     18  C   UNL     1      -0.091  -3.336   7.471  0.00  0.00    +0.000 C 
ATOM     19  C   UNL     1       1.408  -3.612   7.647  0.00  0.00    +0.005 C 
ENDBRANCH   5  10
BRANCH   1  21
ATOM     20  C   UNL     1      -1.417   0.233   0.277  0.00  0.00    +0.027 C 
ATOM     21  C   UNL     1       0.047  -0.069  -0.049  0.00  0.00    +0.126 C 
ENDBRANCH   1  21
TORSDOF 2
