REMARK  Name = ZINC35926849
REMARK  6 active torsions:
REMARK  status: ('A' for Active; 'I' for Inactive)
REMARK    1  A    between atoms: C_1  and  C_2
REMARK    2  A    between atoms: C_5  and  C_8
REMARK    3  A    between atoms: C_8  and  N_9
REMARK    4  A    between atoms: C_21  and  C_23
REMARK    5  A    between atoms: C_23  and  N_24
REMARK    6  A    between atoms: N_27  and  C_30
REMARK                            x       y       z     vdW  Elec       q    Type
REMARK                         _______ _______ _______ _____ _____    ______ ____
ROOT
ATOM      1  N   UNL     1       2.985  -4.289   0.994  0.00  0.00    +0.384 N 
ATOM      2  C   UNL     1       3.450  -5.620   1.404  0.00  0.00    -0.059 C 
ATOM      3  C   UNL     1       3.108  -6.639   0.311  0.00  0.00    +0.089 C 
ATOM      4  N   UNL     1       3.673  -6.164  -0.961  0.00  0.00    -0.305 N 
ATOM      5  C   UNL     1       3.390  -4.780  -1.372  0.00  0.00    +0.089 C 
ATOM      6  C   UNL     1       3.719  -3.849  -0.200  0.00  0.00    -0.059 C 
ATOM      7  C   UNL     1       4.440  -6.987  -1.742  0.00  0.00    +0.198 A 
ATOM      8  N   UNL     1       4.583  -8.295  -1.394  0.00  0.00    -0.295 N 
ATOM      9  H   UNL     1       4.145  -8.638  -0.600  0.00  0.00    +0.172 HD
ATOM     10  C   UNL     1       5.338  -9.113  -2.159  0.00  0.00    +0.253 A 
ATOM     11  O   UNL     1       5.477 -10.288  -1.862  0.00  0.00    -0.268 OA
ATOM     12  C   UNL     1       5.960  -8.584  -3.304  0.00  0.00    +0.094 A 
ATOM     13  C   UNL     1       5.780  -7.265  -3.603  0.00  0.00    +0.064 A 
ATOM     14  N   UNL     1       5.022  -6.500  -2.820  0.00  0.00    -0.219 NA
ATOM     15  H   UNL     1       1.999  -4.330   0.785  0.00  0.00    -0.081 HD
ENDROOT
BRANCH   1  16
ATOM     16  C   UNL     1       3.213  -3.335   2.087  0.00  0.00    -0.043 C 
BRANCH  16  21
ATOM     17  C   UNL     1      -0.037  -4.796   6.636  0.00  0.00    +0.044 C 
ATOM     18  C   UNL     1       0.810  -4.415   5.449  0.00  0.00    -0.050 A 
ATOM     19  C   UNL     1       2.088  -4.928   5.319  0.00  0.00    +0.003 A 
ATOM     20  C   UNL     1       2.865  -4.578   4.231  0.00  0.00    +0.002 A 
ATOM     21  C   UNL     1       2.365  -3.716   3.272  0.00  0.00    -0.064 A 
ATOM     22  C   UNL     1       1.088  -3.204   3.402  0.00  0.00    +0.002 A 
ATOM     23  C   UNL     1       0.309  -3.557   4.488  0.00  0.00    +0.003 A 
ENDBRANCH  16  21
ENDBRANCH   1  16
BRANCH  13  24
ATOM     24  C   UNL     1       6.435  -6.673  -4.824  0.00  0.00    +0.140 C 
BRANCH  24  25
ATOM     25  N   UNL     1       5.401  -6.253  -5.780  0.00  0.00    -0.300 NA
ATOM     26  C   UNL     1       4.670  -7.414  -6.308  0.00  0.00    +0.066 C 
ATOM     27  C   UNL     1       3.566  -6.931  -7.252  0.00  0.00    -0.063 C 
ATOM     28  N   UNL     1       4.164  -6.163  -8.352  0.00  0.00    +0.383 N 
ATOM     29  C   UNL     1       4.869  -4.995  -7.811  0.00  0.00    -0.063 C 
ATOM     30  C   UNL     1       5.984  -5.462  -6.872  0.00  0.00    +0.066 C 
ATOM     31  H   UNL     1       4.816  -6.747  -8.854  0.00  0.00    -0.081 HD
BRANCH  28  32
ATOM     32  C   UNL     1       3.105  -5.715  -9.267  0.00  0.00    -0.068 C 
ATOM     33  C   UNL     1       2.403  -6.934  -9.900  0.00  0.00    -0.015 C 
ATOM     34  C   UNL     1       2.106  -6.488 -11.354  0.00  0.00    -0.002 C 
ATOM     35  C   UNL     1       3.365  -5.666 -11.724  0.00  0.00    -0.002 C 
ATOM     36  C   UNL     1       3.717  -4.909 -10.427  0.00  0.00    -0.015 C 
ENDBRANCH  28  32
ENDBRANCH  24  25
ENDBRANCH  13  24
TORSDOF 5
