REMARK  Name = ZINC61699536
REMARK  7 active torsions:
REMARK  status: ('A' for Active; 'I' for Inactive)
REMARK    1  A    between atoms: C_1  and  C_2
REMARK    2  A    between atoms: C_6  and  O_11
REMARK    3  A    between atoms: C_7  and  N_8
REMARK    4  A    between atoms: O_11  and  C_12
REMARK    5  A    between atoms: C_15  and  C_19
REMARK    6  A    between atoms: C_19  and  C_21
REMARK    7  A    between atoms: C_19  and  N_22
REMARK                            x       y       z     vdW  Elec       q    Type
REMARK                         _______ _______ _______ _____ _____    ______ ____
ROOT
ATOM      1  C   UNL     1       0.075  -4.125   2.197  0.00  0.00    +0.142 A 
ATOM      2  C   UNL     1       0.141  -4.672   0.924  0.00  0.00    +0.047 A 
ATOM      3  C   UNL     1       0.166  -6.043   0.763  0.00  0.00    +0.005 A 
ATOM      4  C   UNL     1       0.125  -6.872   1.869  0.00  0.00    -0.061 A 
ATOM      5  C   UNL     1       0.059  -6.330   3.139  0.00  0.00    +0.021 A 
ATOM      6  C   UNL     1       0.040  -4.958   3.307  0.00  0.00    +0.060 A 
ATOM      7 BR   UNL     1      -0.042  -4.218   5.045  0.00  0.00    -0.046 Br
ENDROOT
BRANCH   4   8
ATOM      8  C   UNL     1       0.152  -8.368   1.690  0.00  0.00    -0.047 C 
ATOM      9  C   UNL     1      -1.268  -8.922   1.811  0.00  0.00    -0.009 C 
BRANCH   8  10
ATOM     10  N   UNL     1       1.003  -8.970   2.725  0.00  0.00    +0.382 N 
ATOM     11  H   UNL     1       0.632  -8.747   3.637  0.00  0.00    -0.089 HD
ATOM     12  H   UNL     1       1.021  -9.972   2.605  0.00  0.00    -0.089 HD
ATOM     13  H   UNL     1       1.940  -8.604   2.645  0.00  0.00    -0.089 HD
ENDBRANCH   8  10
ENDBRANCH   4   8
BRANCH   1  14
ATOM     14  O   UNL     1       0.050  -2.776   2.358  0.00  0.00    -0.453 OA
BRANCH  14  20
ATOM     15  C   UNL     1       2.462   1.345   3.373  0.00  0.00    +0.046 C 
ATOM     16  C   UNL     1       2.446  -0.131   3.070  0.00  0.00    -0.017 A 
ATOM     17  C   UNL     1       3.633  -0.837   3.010  0.00  0.00    +0.006 A 
ATOM     18  C   UNL     1       3.622  -2.191   2.732  0.00  0.00    +0.004 A 
ATOM     19  C   UNL     1       2.423  -2.843   2.513  0.00  0.00    +0.048 A 
ATOM     20  C   UNL     1       1.230  -2.137   2.573  0.00  0.00    +0.159 A 
ATOM     21  C   UNL     1       1.244  -0.779   2.858  0.00  0.00    +0.171 A 
BRANCH  21  22
ATOM     22  N   UNL     1      -0.027  -0.024   2.928  0.00  0.00    +0.060 N 
ATOM     23  O   UNL     1      -0.478   0.494   1.933  0.00  0.00    -0.126 OA
ATOM     24  O   UNL     1      -0.614   0.075   3.981  0.00  0.00    -0.126 OA
ENDBRANCH  21  22
ENDBRANCH  14  20
ENDBRANCH   1  14
TORSDOF 5
