REMARK  Name = ZINC60017203
REMARK  9 active torsions:
REMARK  status: ('A' for Active; 'I' for Inactive)
REMARK    1  A    between atoms: C_1  and  C_2
REMARK    2  A    between atoms: C_2  and  C_3
REMARK    3  A    between atoms: C_3  and  C_11
REMARK    4  A    between atoms: C_14  and  N_17
REMARK    5  A    between atoms: C_18  and  C_20
REMARK    6  A    between atoms: C_20  and  C_22
REMARK    7  A    between atoms: C_20  and  N_29
REMARK    8  A    between atoms: C_22  and  C_23
REMARK    9  A    between atoms: C_30  and  C_32
REMARK                            x       y       z     vdW  Elec       q    Type
REMARK                         _______ _______ _______ _____ _____    ______ ____
ROOT
ATOM      1  N   UNL     1      -4.575   1.089  -4.551  0.00  0.00    -0.284 N 
ATOM      2  C   UNL     1      -4.722   2.401  -4.820  0.00  0.00    +0.238 C 
ATOM      3  O   UNL     1      -4.117   3.226  -4.167  0.00  0.00    -0.273 OA
ATOM      4  H   UNL     1      -4.999   0.427  -5.119  0.00  0.00    +0.155 HD
ENDROOT
BRANCH   1   8
ATOM      5  C   UNL     1      -2.297  -0.126  -1.281  0.00  0.00    -0.032 A 
ATOM      6  C   UNL     1      -3.020   1.052  -1.219  0.00  0.00    +0.006 A 
ATOM      7  C   UNL     1      -3.776   1.457  -2.302  0.00  0.00    +0.023 A 
ATOM      8  C   UNL     1      -3.809   0.681  -3.453  0.00  0.00    +0.033 A 
ATOM      9  C   UNL     1      -3.082  -0.500  -3.512  0.00  0.00    +0.023 A 
ATOM     10  C   UNL     1      -2.325  -0.898  -2.428  0.00  0.00    +0.006 A 
BRANCH   5  11
ATOM     11  C   UNL     1      -1.474  -0.565  -0.098  0.00  0.00    +0.072 C 
ATOM     12  C   UNL     1      -1.718   0.385   1.079  0.00  0.00    +0.030 C 
ATOM     13  C   UNL     1      -0.789  -0.015   2.230  0.00  0.00    +0.097 C 
ATOM     14  C   UNL     1       0.635  -0.014   1.739  0.00  0.00    +0.219 C 
ATOM     15  O   UNL     1       1.532   0.224   2.518  0.00  0.00    -0.275 OA
ATOM     16  N   UNL     1       0.929  -0.273   0.456  0.00  0.00    -0.256 N 
ATOM     17  C   UNL     1      -0.013  -0.535  -0.463  0.00  0.00    +0.230 C 
ATOM     18  O   UNL     1       0.318  -0.751  -1.609  0.00  0.00    -0.274 OA
ATOM     19  H   UNL     1       1.859  -0.271   0.181  0.00  0.00    +0.157 HD
BRANCH  11  21
ATOM     20  C   UNL     1      -3.371  -2.032   0.602  0.00  0.00    +0.005 C 
ATOM     21  C   UNL     1      -1.871  -1.987   0.302  0.00  0.00    +0.017 C 
ENDBRANCH  11  21
ENDBRANCH   5  11
ENDBRANCH   1   8
BRANCH   2  22
ATOM     22  C   UNL     1      -5.638   2.845  -5.931  0.00  0.00    +0.164 C 
BRANCH  22  23
ATOM     23  N   UNL     1      -6.003   4.250  -5.732  0.00  0.00    -0.297 N 
ATOM     24  C   UNL     1      -5.045   5.197  -5.702  0.00  0.00    +0.280 C 
ATOM     25  O   UNL     1      -3.877   4.886  -5.841  0.00  0.00    -0.267 OA
ATOM     26  H   UNL     1      -6.935   4.498  -5.621  0.00  0.00    +0.150 HD
BRANCH  24  27
ATOM     27  C   UNL     1      -5.411   6.603  -5.503  0.00  0.00    +0.189 A 
ATOM     28  C   UNL     1      -4.545   7.659  -5.458  0.00  0.00    +0.054 A 
ATOM     29  C   UNL     1      -5.322   8.809  -5.252  0.00  0.00    +0.042 A 
ATOM     30  C   UNL     1      -6.612   8.411  -5.181  0.00  0.00    +0.196 A 
ATOM     31  O   UNL     1      -6.661   7.082  -5.337  0.00  0.00    -0.458 OA
ENDBRANCH  24  27
ENDBRANCH  22  23
BRANCH  22  32
ATOM     32  C   UNL     1      -4.923   2.689  -7.275  0.00  0.00    +0.067 C 
BRANCH  32  33
ATOM     33  C   UNL     1      -5.879   3.015  -8.393  0.00  0.00    -0.045 A 
ATOM     34  C   UNL     1      -6.659   2.018  -8.949  0.00  0.00    +0.004 A 
ATOM     35  C   UNL     1      -7.535   2.317  -9.975  0.00  0.00    +0.000 A 
ATOM     36  C   UNL     1      -7.633   3.614 -10.445  0.00  0.00    +0.000 A 
ATOM     37  C   UNL     1      -6.854   4.611  -9.889  0.00  0.00    +0.000 A 
ATOM     38  C   UNL     1      -5.980   4.313  -8.860  0.00  0.00    +0.004 A 
ENDBRANCH  32  33
ENDBRANCH  22  32
ENDBRANCH   2  22
TORSDOF 8
