REMARK  Name = ZINC10390296
REMARK  4 active torsions:
REMARK  status: ('A' for Active; 'I' for Inactive)
REMARK    1  A    between atoms: C_12  and  C_14
REMARK    2  A    between atoms: C_14  and  O_15
REMARK    3  A    between atoms: O_15  and  C_16
REMARK    4  A    between atoms: C_16  and  C_18
REMARK                            x       y       z     vdW  Elec       q    Type
REMARK                         _______ _______ _______ _____ _____    ______ ____
ROOT
ATOM      1  C   UNL     1      -0.177   0.875  -0.840  0.00  0.00    +0.002 A 
ATOM      2  C   UNL     1       0.901   1.693  -0.558  0.00  0.00    +0.002 A 
ATOM      3  C   UNL     1       2.160   1.147  -0.381  0.00  0.00    +0.025 A 
ATOM      4  C   UNL     1       2.337  -0.220  -0.487  0.00  0.00    +0.059 A 
ATOM      5  C   UNL     1       1.250  -1.049  -0.771  0.00  0.00    +0.055 A 
ATOM      6  C   UNL     1      -0.007  -0.493  -0.946  0.00  0.00    +0.025 A 
ATOM      7  N   UNL     1       1.441  -2.431  -0.882  0.00  0.00    -0.282 N 
ATOM      8  C   UNL     1       2.583  -3.005  -0.456  0.00  0.00    +0.241 C 
ATOM      9  O   UNL     1       2.741  -4.199  -0.592  0.00  0.00    -0.273 OA
ATOM     10  C   UNL     1       3.663  -2.180   0.186  0.00  0.00    +0.118 C 
ATOM     11  N   UNL     1       3.603  -0.802  -0.310  0.00  0.00    -0.252 N 
ATOM     12  C   UNL     1       4.728  -0.114  -0.589  0.00  0.00    +0.258 C 
ATOM     13  O   UNL     1       5.808  -0.561  -0.265  0.00  0.00    -0.271 OA
ATOM     14  C   UNL     1       3.495  -2.189   1.716  0.00  0.00    +0.036 C 
ATOM     15  C   UNL     1       4.460  -3.301   2.197  0.00  0.00    +0.003 C 
ATOM     16  C   UNL     1       5.673  -3.137   1.247  0.00  0.00    +0.003 C 
ATOM     17  C   UNL     1       5.042  -2.784  -0.116  0.00  0.00    +0.036 C 
ATOM     18  H   UNL     1       0.743  -2.981  -1.270  0.00  0.00    +0.155 HD
ENDROOT
BRANCH  12  19
ATOM     19  C   UNL     1       4.645   1.210  -1.303  0.00  0.00    +0.328 C 
BRANCH  19  20
ATOM     20  O   UNL     1       5.909   1.512  -1.897  0.00  0.00    -0.452 OA
BRANCH  20  21
ATOM     21  C   UNL     1       6.004   2.671  -2.578  0.00  0.00    +0.342 C 
ATOM     22  O   UNL     1       5.040   3.405  -2.665  0.00  0.00    -0.245 OA
BRANCH  21  23
ATOM     23  C   UNL     1       7.279   3.048  -3.218  0.00  0.00    +0.095 A 
ATOM     24  C   UNL     1       7.544   2.666  -4.536  0.00  0.00    +0.056 A 
ATOM     25  C   UNL     1       8.739   3.023  -5.128  0.00  0.00    +0.021 A 
ATOM     26  C   UNL     1       9.674   3.757  -4.420  0.00  0.00    +0.003 A 
ATOM     27  C   UNL     1       9.419   4.139  -3.115  0.00  0.00    +0.021 A 
ATOM     28  C   UNL     1       8.226   3.795  -2.511  0.00  0.00    +0.056 A 
ATOM     29 CL   UNL     1       7.907   4.281  -0.875  0.00  0.00    -0.083 Cl
ATOM     30 CL   UNL     1       6.373   1.744  -5.427  0.00  0.00    -0.083 Cl
ENDBRANCH  21  23
ENDBRANCH  20  21
ENDBRANCH  19  20
ENDBRANCH  12  19
TORSDOF 4
