REMARK  Name = ZINC08789577
REMARK  10 active torsions:
REMARK  status: ('A' for Active; 'I' for Inactive)
REMARK    1  A    between atoms: C_1  and  C_2
REMARK    2  A    between atoms: C_13  and  C_34
REMARK    3  A    between atoms: N_20  and  C_23
REMARK    4  A    between atoms: C_23  and  C_24
REMARK    5  A    between atoms: C_27  and  O_32
REMARK    6  A    between atoms: C_28  and  O_30
REMARK    7  A    between atoms: O_30  and  C_31
REMARK    8  A    between atoms: O_32  and  C_33
REMARK    9  A    between atoms: C_39  and  O_40
REMARK   10  A    between atoms: O_40  and  C_41
REMARK                            x       y       z     vdW  Elec       q    Type
REMARK                         _______ _______ _______ _____ _____    ______ ____
ROOT
ATOM      1  C   UNL     1       1.992   3.458  -2.716  0.00  0.00    +0.048 C 
ATOM      2  C   UNL     1       0.921   3.835  -1.689  0.00  0.00    +0.151 C 
ATOM      3  C   UNL     1      -0.331   3.042  -1.977  0.00  0.00    +0.054 A 
ATOM      4  C   UNL     1      -0.740   2.003  -1.214  0.00  0.00    -0.008 A 
ATOM      5  C   UNL     1      -1.966   1.505  -1.803  0.00  0.00    +0.004 A 
ATOM      6  C   UNL     1      -2.828   0.460  -1.455  0.00  0.00    +0.010 A 
ATOM      7  C   UNL     1      -3.927   0.269  -2.256  0.00  0.00    +0.001 A 
ATOM      8  C   UNL     1      -4.181   1.067  -3.359  0.00  0.00    +0.002 A 
ATOM      9  C   UNL     1      -3.345   2.107  -3.727  0.00  0.00    +0.026 A 
ATOM     10  C   UNL     1      -2.221   2.324  -2.933  0.00  0.00    +0.047 A 
ATOM     11  N   UNL     1      -1.211   3.240  -3.007  0.00  0.00    -0.356 N 
ATOM     12  H   UNL     1      -1.129   3.927  -3.687  0.00  0.00    +0.166 HD
ATOM     13  C   UNL     1      -0.018   1.503   0.010  0.00  0.00    +0.072 C 
ATOM     14  C   UNL     1       1.420   2.035  -0.001  0.00  0.00    +0.122 C 
ATOM     15  N   UNL     1       1.395   3.466  -0.355  0.00  0.00    -0.280 N 
ATOM     16  C   UNL     1       1.801   4.370   0.540  0.00  0.00    +0.234 C 
ATOM     17  O   UNL     1       2.308   3.965   1.565  0.00  0.00    -0.274 OA
ATOM     18  C   UNL     1       1.640   5.848   0.372  0.00  0.00    +0.204 C 
ATOM     19  N   UNL     1       0.968   6.190  -0.871  0.00  0.00    -0.286 N 
ATOM     20  C   UNL     1       0.638   5.296  -1.802  0.00  0.00    +0.246 C 
ATOM     21  O   UNL     1       0.073   5.692  -2.799  0.00  0.00    -0.273 OA
ENDROOT
BRANCH  13  22
ATOM     22  C   UNL     1       0.002  -0.004   0.002  0.00  0.00    +0.003 A 
ATOM     23  C   UNL     1       0.600  -0.682  -1.043  0.00  0.00    +0.008 A 
ATOM     24  C   UNL     1       0.619  -2.064  -1.052  0.00  0.00    +0.001 A 
ATOM     25  C   UNL     1       0.041  -2.772  -0.014  0.00  0.00    +0.004 A 
ATOM     26  C   UNL     1      -0.558  -2.099   1.034  0.00  0.00    +0.046 A 
ATOM     27  C   UNL     1      -0.574  -0.712   1.047  0.00  0.00    +0.124 A 
BRANCH  27  28
ATOM     28  O   UNL     1      -1.157  -0.048   2.079  0.00  0.00    -0.495 OA
ATOM     29  C   UNL     1      -1.730  -0.841   3.120  0.00  0.00    +0.277 C 
ENDBRANCH  27  28
ENDBRANCH  13  22
BRANCH  19  30
ATOM     30  C   UNL     1       0.635   7.596  -1.112  0.00  0.00    +0.143 C 
BRANCH  30  31
ATOM     31  C   UNL     1      -0.739   7.888  -0.566  0.00  0.00    -0.026 A 
ATOM     32  C   UNL     1      -1.850   7.731  -1.373  0.00  0.00    +0.009 A 
ATOM     33  C   UNL     1      -3.113   7.992  -0.874  0.00  0.00    +0.050 A 
ATOM     34  C   UNL     1      -3.266   8.423   0.434  0.00  0.00    +0.162 A 
ATOM     35  C   UNL     1      -2.147   8.586   1.244  0.00  0.00    +0.162 A 
ATOM     36  C   UNL     1      -0.884   8.318   0.740  0.00  0.00    +0.054 A 
BRANCH  35  37
ATOM     37  O   UNL     1      -2.292   9.008   2.529  0.00  0.00    -0.491 OA
ATOM     38  C   UNL     1      -1.099   9.153   3.303  0.00  0.00    +0.277 C 
ENDBRANCH  35  37
BRANCH  34  39
ATOM     39  O   UNL     1      -4.507   8.686   0.924  0.00  0.00    -0.491 OA
ATOM     40  C   UNL     1      -5.609   8.496   0.034  0.00  0.00    +0.277 C 
ENDBRANCH  34  39
ENDBRANCH  30  31
ENDBRANCH  19  30
TORSDOF 6
