REMARK  Name = ZINC20532219
REMARK  10 active torsions:
REMARK  status: ('A' for Active; 'I' for Inactive)
REMARK    1  A    between atoms: C_1  and  C_2
REMARK    2  A    between atoms: C_2  and  C_3
REMARK    3  A    between atoms: C_8  and  N_9
REMARK    4  A    between atoms: N_12  and  C_13
REMARK    5  A    between atoms: C_13  and  C_15
REMARK    6  A    between atoms: C_13  and  C_17
REMARK    7  A    between atoms: C_15  and  C_16
REMARK    8  A    between atoms: C_21  and  N_22
REMARK    9  A    between atoms: N_28  and  C_31
REMARK   10  A    between atoms: C_31  and  C_32
REMARK                            x       y       z     vdW  Elec       q    Type
REMARK                         _______ _______ _______ _____ _____    ______ ____
ROOT
ATOM      1  C   UNL     1      -0.086  -0.037  -0.195  0.00  0.00    +0.107 C 
ENDROOT
BRANCH   1   2
ATOM      2  C   UNL     1       1.254  -0.356  -0.807  0.00  0.00    +0.007 A 
ATOM      3  C   UNL     1       2.388   0.347  -0.411  0.00  0.00    -0.034 A 
ATOM      4  C   UNL     1       3.562   0.004  -1.011  0.00  0.00    -0.021 A 
ATOM      5  S   UNL     1       3.106  -1.297  -2.123  0.00  0.00    -0.077 S 
ATOM      6  C   UNL     1       1.360  -1.336  -1.744  0.00  0.00    +0.090 A 
ATOM      7  C   UNL     1       4.906   0.607  -0.763  0.00  0.00    -0.035 C 
ATOM      8  N   UNL     1       4.714   1.870  -0.024  0.00  0.00    +0.383 N 
ATOM      9  C   UNL     1       3.816   1.668   1.122  0.00  0.00    -0.074 C 
ATOM     10  C   UNL     1       2.379   1.456   0.638  0.00  0.00    +0.018 C 
ATOM     11  H   UNL     1       4.244   2.600  -0.700  0.00  0.00    -0.081 HD
BRANCH   6  12
ATOM     12  N   UNL     1       0.361  -2.160  -2.276  0.00  0.00    -0.317 N 
ATOM     13  C   UNL     1      -0.631  -2.770  -1.562  0.00  0.00    +0.092 A 
ATOM     14  C   UNL     1      -1.397  -3.473  -2.422  0.00  0.00    +0.019 A 
ATOM     15  C   UNL     1      -0.855  -3.299  -3.711  0.00  0.00    +0.019 A 
ATOM     16  C   UNL     1       0.219  -2.492  -3.593  0.00  0.00    +0.092 A 
ENDBRANCH   6  12
BRANCH   8  17
ATOM     17  C   UNL     1       6.002   2.428   0.409  0.00  0.00    -0.082 C 
ATOM     18  C   UNL     1       6.641   1.496   1.440  0.00  0.00    -0.017 C 
ENDBRANCH   8  17
ENDBRANCH   1   2
BRANCH   1  22
ATOM     19  N   UNL     1      -1.718   3.256  -0.297  0.00  0.00    -0.269 N 
ATOM     20  C   UNL     1      -1.532   1.921  -0.300  0.00  0.00    +0.304 C 
ATOM     21  O   UNL     1      -2.486   1.174  -0.401  0.00  0.00    -0.252 OA
ATOM     22  N   UNL     1      -0.288   1.413  -0.192  0.00  0.00    -0.292 N 
ATOM     23  H   UNL     1      -0.866   3.929  -0.124  0.00  0.00    +0.156 HD
ATOM     24  H   UNL     1       0.576   2.089  -0.100  0.00  0.00    +0.151 HD
BRANCH  19  30
ATOM     25  C   UNL     1      -3.312   5.052  -0.043  0.00  0.00    -0.026 A 
ATOM     26  C   UNL     1      -4.574   5.571  -0.260  0.00  0.00    +0.005 A 
ATOM     27  C   UNL     1      -5.520   4.831  -0.944  0.00  0.00    +0.000 A 
ATOM     28  C   UNL     1      -5.207   3.568  -1.414  0.00  0.00    +0.002 A 
ATOM     29  C   UNL     1      -3.946   3.046  -1.205  0.00  0.00    +0.023 A 
ATOM     30  C   UNL     1      -2.995   3.785  -0.514  0.00  0.00    +0.038 A 
BRANCH  25  32
ATOM     31  C   UNL     1      -1.402   6.612  -0.299  0.00  0.00    +0.009 C 
ATOM     32  C   UNL     1      -2.282   5.860   0.702  0.00  0.00    +0.033 C 
ENDBRANCH  25  32
ENDBRANCH  19  30
ENDBRANCH   1  22
BRANCH   1  33
ATOM     33  C   UNL     1      -0.127  -0.562   1.242  0.00  0.00    +0.024 C 
ATOM     34  C   UNL     1      -1.527  -0.350   1.821  0.00  0.00    +0.006 C 
ENDBRANCH   1  33
TORSDOF 7
