REMARK  Name = ZINC08386180
REMARK  9 active torsions:
REMARK  status: ('A' for Active; 'I' for Inactive)
REMARK    1  A    between atoms: C_1  and  C_2
REMARK    2  A    between atoms: C_2  and  O_3
REMARK    3  A    between atoms: O_3  and  C_4
REMARK    4  A    between atoms: C_4  and  C_6
REMARK    5  A    between atoms: C_6  and  C_30
REMARK    6  A    between atoms: C_11  and  C_12
REMARK    7  A    between atoms: C_11  and  N_68
REMARK    8  A    between atoms: C_12  and  C_13
REMARK    9  A    between atoms: C_13  and  C_28
REMARK                            x       y       z     vdW  Elec       q    Type
REMARK                         _______ _______ _______ _____ _____    ______ ____
ROOT
ATOM      1  C   UNL     1      -3.560   1.395   0.616  0.00  0.00    -0.077 C 
ENDROOT
BRANCH   1   7
ATOM      2  C   UNL     1      -6.798  -0.752   2.401  0.00  0.00    +0.089 C 
ATOM      3  C   UNL     1      -5.490  -1.484   2.086  0.00  0.00    +0.004 C 
ATOM      4  C   UNL     1      -4.710  -0.694   1.034  0.00  0.00    -0.077 C 
ATOM      5  C   UNL     1      -5.668   1.393   1.807  0.00  0.00    -0.077 C 
ATOM      6  C   UNL     1      -6.477   0.665   2.883  0.00  0.00    +0.004 C 
ATOM      7  N   UNL     1      -4.411   0.652   1.568  0.00  0.00    +0.380 N 
ATOM      8  H   UNL     1      -3.908   0.553   2.458  0.00  0.00    -0.082 HD
BRANCH   2   9
ATOM      9  C   UNL     1      -7.543  -1.494   3.481  0.00  0.00    -0.031 A 
ATOM     10  C   UNL     1      -7.013  -2.654   4.015  0.00  0.00    +0.005 A 
ATOM     11  C   UNL     1      -7.694  -3.332   5.008  0.00  0.00    +0.000 A 
ATOM     12  C   UNL     1      -8.910  -2.856   5.460  0.00  0.00    +0.000 A 
ATOM     13  C   UNL     1      -9.443  -1.699   4.923  0.00  0.00    +0.000 A 
ATOM     14  C   UNL     1      -8.759  -1.018   3.933  0.00  0.00    +0.005 A 
ENDBRANCH   2   9
BRANCH   2  15
ATOM     15  C   UNL     1      -7.647  -0.681   1.159  0.00  0.00    +0.318 C 
ATOM     16  O   UNL     1      -7.249  -1.166   0.126  0.00  0.00    -0.250 OA
BRANCH  15  17
ATOM     17  O   UNL     1      -8.847  -0.080   1.199  0.00  0.00    -0.464 OA
BRANCH  17  19
ATOM     18  C   UNL     1     -10.938   0.672   0.204  0.00  0.00    +0.048 C 
ATOM     19  C   UNL     1      -9.610  -0.049  -0.036  0.00  0.00    +0.229 C 
ENDBRANCH  17  19
ENDBRANCH  15  17
ENDBRANCH   2  15
ENDBRANCH   1   7
BRANCH   1  20
ATOM     20  C   UNL     1      -3.490   2.862   1.046  0.00  0.00    +0.008 C 
BRANCH  20  21
ATOM     21  C   UNL     1      -2.478   3.603   0.169  0.00  0.00    +0.085 C 
ATOM     22  C   UNL     1      -1.111   3.115   0.525  0.00  0.00    +0.062 C 
ATOM     23  C   UNL     1      -0.024   3.989  -0.008  0.00  0.00    -0.032 A 
ATOM     24  C   UNL     1       0.621   4.873   0.849  0.00  0.00    +0.005 A 
ATOM     25  C   UNL     1       1.605   5.709   0.355  0.00  0.00    +0.000 A 
ATOM     26  C   UNL     1       1.949   5.675  -0.984  0.00  0.00    +0.001 A 
ATOM     27  C   UNL     1       1.316   4.786  -1.834  0.00  0.00    +0.015 A 
ATOM     28  C   UNL     1       0.341   3.938  -1.321  0.00  0.00    +0.016 A 
ATOM     29  S   UNL     1      -0.422   2.733  -2.350  0.00  0.00    -0.089 S 
ATOM     30  C   UNL     1      -2.137   3.114  -2.362  0.00  0.00    +0.017 A 
ATOM     31  C   UNL     1      -2.896   3.437  -1.266  0.00  0.00    -0.014 A 
ATOM     32  C   UNL     1      -4.267   3.670  -1.452  0.00  0.00    +0.006 A 
ATOM     33  C   UNL     1      -4.862   3.594  -2.687  0.00  0.00    +0.000 A 
ATOM     34  C   UNL     1      -4.091   3.288  -3.795  0.00  0.00    +0.001 A 
ATOM     35  C   UNL     1      -2.749   3.053  -3.627  0.00  0.00    +0.015 A 
BRANCH  21  36
ATOM     36  C   UNL     1      -2.554   5.034   0.504  0.00  0.00    +0.074 C 
ATOM     37  N   UNL     1      -2.611   6.139   0.762  0.00  0.00    -0.196 NA
ENDBRANCH  21  36
ENDBRANCH  20  21
ENDBRANCH   1  20
TORSDOF 8
