REMARK  Name = ZINC09483232
REMARK  8 active torsions:
REMARK  status: ('A' for Active; 'I' for Inactive)
REMARK    1  A    between atoms: C_1  and  C_2
REMARK    2  A    between atoms: C_7  and  C_11
REMARK    3  A    between atoms: C_7  and  C_12
REMARK    4  A    between atoms: N_20  and  C_21
REMARK    5  A    between atoms: C_21  and  C_22
REMARK    6  A    between atoms: N_24  and  C_25
REMARK    7  A    between atoms: C_25  and  C_26
REMARK    8  A    between atoms: C_26  and  C_27
REMARK                            x       y       z     vdW  Elec       q    Type
REMARK                         _______ _______ _______ _____ _____    ______ ____
ROOT
ATOM      1  C   UNL     1      -0.013   1.086   0.008  0.00  0.00    +0.033 C 
ATOM      2  C   UNL     1      -0.729   1.579   1.267  0.00  0.00    +0.106 C 
ATOM      3  C   UNL     1      -2.178   1.100   1.232  0.00  0.00    +0.032 C 
ATOM      4  C   UNL     1      -2.829   0.337   2.145  0.00  0.00    +0.017 C 
ATOM      5  C   UNL     1      -4.273  -0.065   1.963  0.00  0.00    +0.058 C 
ATOM      6  C   UNL     1      -4.599  -0.186   0.474  0.00  0.00    -0.023 C 
ATOM      7  C   UNL     1      -4.307   1.171  -0.178  0.00  0.00    +0.086 C 
ATOM      8  C   UNL     1      -2.877   1.535   0.081  0.00  0.00    +0.163 C 
ATOM      9  O   UNL     1      -2.295   2.231  -0.728  0.00  0.00    -0.292 OA
ATOM     10  C   UNL     1      -3.723  -1.266  -0.163  0.00  0.00    +0.011 C 
ATOM     11  C   UNL     1      -6.076  -0.541   0.294  0.00  0.00    +0.011 C 
ATOM     12  N   UNL     1      -2.205  -0.092   3.278  0.00  0.00    -0.316 N 
ATOM     13  C   UNL     1      -1.606   0.840   4.135  0.00  0.00    +0.052 A 
ATOM     14  C   UNL     1      -2.140   1.126   5.384  0.00  0.00    +0.025 A 
ATOM     15  C   UNL     1      -1.558   2.141   6.129  0.00  0.00    +0.002 A 
ATOM     16  C   UNL     1      -0.473   2.840   5.632  0.00  0.00    +0.002 A 
ATOM     17  C   UNL     1       0.060   2.525   4.391  0.00  0.00    +0.025 A 
ATOM     18  C   UNL     1      -0.526   1.496   3.663  0.00  0.00    +0.052 A 
ATOM     19  N   UNL     1      -0.020   1.094   2.431  0.00  0.00    -0.313 N 
ATOM     20  H   UNL     1      -2.175  -1.038   3.490  0.00  0.00    +0.152 HD
ENDROOT
BRANCH  19  21
ATOM     21  C   UNL     1       1.417   1.385   2.332  0.00  0.00    +0.201 C 
BRANCH  21  22
ATOM     22  C   UNL     1       2.081   1.091   3.653  0.00  0.00    +0.230 C 
ATOM     23  O   UNL     1       1.422   0.681   4.585  0.00  0.00    -0.274 OA
ATOM     24  N   UNL     1       3.406   1.286   3.798  0.00  0.00    -0.314 N 
ATOM     25  H   UNL     1       3.933   1.614   3.053  0.00  0.00    +0.149 HD
BRANCH  24  26
ATOM     26  C   UNL     1       4.052   1.001   5.082  0.00  0.00    +0.109 C 
BRANCH  26  27
ATOM     27  C   UNL     1       5.548   1.304   4.979  0.00  0.00    +0.056 C 
BRANCH  27  28
ATOM     28  C   UNL     1       6.212   1.010   6.299  0.00  0.00    -0.021 A 
ATOM     29  C   UNL     1       6.464   1.892   7.280  0.00  0.00    +0.087 A 
ATOM     30  N   UNL     1       7.078   1.262   8.328  0.00  0.00    -0.360 N 
ATOM     31  H   UNL     1       7.357   1.693   9.151  0.00  0.00    +0.165 HD
ATOM     32  C   UNL     1       7.240  -0.075   8.040  0.00  0.00    +0.047 A 
ATOM     33  C   UNL     1       6.700  -0.292   6.759  0.00  0.00    +0.003 A 
ATOM     34  C   UNL     1       6.731  -1.570   6.198  0.00  0.00    +0.010 A 
ATOM     35  C   UNL     1       7.277  -2.607   6.902  0.00  0.00    +0.001 A 
ATOM     36  C   UNL     1       7.806  -2.398   8.168  0.00  0.00    +0.002 A 
ATOM     37  C   UNL     1       7.791  -1.144   8.738  0.00  0.00    +0.026 A 
ENDBRANCH  27  28
ENDBRANCH  26  27
ENDBRANCH  24  26
ENDBRANCH  21  22
ENDBRANCH  19  21
TORSDOF 5
