REMARK  Name = ZINC63671457
REMARK  4 active torsions:
REMARK  status: ('A' for Active; 'I' for Inactive)
REMARK    1  A    between atoms: C_7  and  C_10
REMARK    2  A    between atoms: C_10  and  C_11
REMARK    3  A    between atoms: C_11  and  N_12
REMARK    4  A    between atoms: C_13  and  C_15
REMARK                            x       y       z     vdW  Elec       q    Type
REMARK                         _______ _______ _______ _____ _____    ______ ____
ROOT
ATOM      1  N   UNL     1      -0.458  -4.798  -1.460  0.00  0.00    -0.311 N 
ATOM      2  C   UNL     1      -0.811  -5.380  -2.623  0.00  0.00    +0.244 C 
ATOM      3  O   UNL     1      -0.369  -4.956  -3.674  0.00  0.00    -0.270 OA
ATOM      4  H   UNL     1      -0.810  -5.136  -0.622  0.00  0.00    +0.149 HD
ENDROOT
BRANCH   2   5
ATOM      5  C   UNL     1      -1.732  -6.533  -2.622  0.00  0.00    +0.039 A 
ATOM      6  C   UNL     1      -2.244  -7.017  -1.415  0.00  0.00    +0.015 A 
ATOM      7  C   UNL     1      -3.100  -8.096  -1.411  0.00  0.00    +0.026 A 
ATOM      8  C   UNL     1      -3.457  -8.703  -2.609  0.00  0.00    +0.052 A 
ATOM      9  C   UNL     1      -2.958  -8.219  -3.819  0.00  0.00    +0.055 A 
ATOM     10  C   UNL     1      -2.098  -7.137  -3.828  0.00  0.00    +0.038 A 
ATOM     11  N   UNL     1      -3.353  -8.821  -5.019  0.00  0.00    -0.282 N 
ATOM     12  C   UNL     1      -3.981 -10.007  -5.008  0.00  0.00    +0.238 C 
ATOM     13  O   UNL     1      -4.298 -10.515  -6.063  0.00  0.00    -0.273 OA
ATOM     14  C   UNL     1      -4.304 -10.727  -3.725  0.00  0.00    +0.160 C 
ATOM     15  N   UNL     1      -4.317  -9.811  -2.599  0.00  0.00    -0.317 N 
ATOM     16  C   UNL     1      -5.151  -9.996  -1.412  0.00  0.00    +0.106 C 
ATOM     17  C   UNL     1      -6.493 -10.626  -1.772  0.00  0.00    +0.019 C 
ATOM     18  C   UNL     1      -6.222 -11.900  -2.581  0.00  0.00    +0.004 C 
ATOM     19  C   UNL     1      -5.598 -11.502  -3.913  0.00  0.00    +0.032 C 
ATOM     20  H   UNL     1      -3.173  -8.378  -5.864  0.00  0.00    +0.155 HD
ENDBRANCH   2   5
BRANCH   1  21
ATOM     21  C   UNL     1       0.457  -3.653  -1.462  0.00  0.00    +0.109 C 
BRANCH  21  22
ATOM     22  C   UNL     1       0.691  -3.186  -0.024  0.00  0.00    +0.052 C 
BRANCH  22  29
ATOM     23  C   UNL     1      -0.016   1.348   0.009  0.00  0.00    +0.001 A 
ATOM     24  C   UNL     1       1.166   2.101   0.002  0.00  0.00    +0.002 A 
ATOM     25  C   UNL     1       2.391   1.535  -0.013  0.00  0.00    +0.026 A 
ATOM     26  C   UNL     1       2.529   0.120  -0.022  0.00  0.00    +0.043 A 
ATOM     27  N   UNL     1       3.587  -0.654  -0.037  0.00  0.00    -0.380 N 
ATOM     28  C   UNL     1       3.143  -2.053  -0.041  0.00  0.00    +0.144 C 
ATOM     29  C   UNL     1       1.631  -2.008  -0.025  0.00  0.00    -0.040 C 
ATOM     30  C   UNL     1       1.295  -0.698  -0.014  0.00  0.00    -0.001 A 
ATOM     31  C   UNL     1       0.002  -0.004   0.002  0.00  0.00    +0.010 A 
ATOM     32  H   UNL     1       4.509  -0.353  -0.045  0.00  0.00    +0.160 HD
ENDBRANCH  22  29
ENDBRANCH  21  22
ENDBRANCH   1  21
TORSDOF 4
