REMARK  Name = ZINC24474481
REMARK  10 active torsions:
REMARK  status: ('A' for Active; 'I' for Inactive)
REMARK    1  A    between atoms: C_1  and  C_2
REMARK    2  A    between atoms: C_5  and  S_24
REMARK    3  A    between atoms: C_7  and  C_8
REMARK    4  A    between atoms: N_10  and  N_11
REMARK    5  A    between atoms: C_12  and  C_14
REMARK    6  A    between atoms: S_24  and  N_27
REMARK    7  A    between atoms: N_27  and  C_28
REMARK    8  A    between atoms: C_28  and  C_29
REMARK    9  A    between atoms: C_29  and  O_30
REMARK   10  A    between atoms: O_30  and  C_31
REMARK                            x       y       z     vdW  Elec       q    Type
REMARK                         _______ _______ _______ _____ _____    ______ ____
ROOT
ATOM      1  C   UNL     1       2.336   3.970  -0.539  0.00  0.00    +0.260 C 
ATOM      2  O   UNL     1       3.404   3.402  -0.659  0.00  0.00    -0.269 OA
ATOM      3  N   UNL     1       2.268   5.310  -0.666  0.00  0.00    -0.230 N 
ATOM      4  H   UNL     1       1.302   5.825  -0.557  0.00  0.00    +0.173 HD
ENDROOT
BRANCH   1  11
ATOM      5  C   UNL     1       2.537   1.135  -0.001  0.00  0.00    +0.044 C 
ATOM      6  C   UNL     1       1.197   1.823   0.008  0.00  0.00    -0.038 A 
ATOM      7  C   UNL     1       0.051   1.103   0.274  0.00  0.00    +0.006 A 
ATOM      8  C   UNL     1      -1.181   1.732   0.276  0.00  0.00    +0.029 A 
ATOM      9  C   UNL     1      -1.271   3.090   0.024  0.00  0.00    +0.106 A 
ATOM     10  C   UNL     1      -0.133   3.822  -0.243  0.00  0.00    +0.042 A 
ATOM     11  C   UNL     1       1.112   3.192  -0.253  0.00  0.00    +0.043 A 
BRANCH   9  12
ATOM     12  S   UNL     1      -2.845   3.884   0.036  0.00  0.00    +0.058 S 
ATOM     13  O   UNL     1      -3.695   3.087   0.849  0.00  0.00    -0.153 OA
ATOM     14  O   UNL     1      -2.604   5.258   0.303  0.00  0.00    -0.153 OA
BRANCH  12  15
ATOM     15  N   UNL     1      -3.447   3.799  -1.504  0.00  0.00    -0.188 NA
ATOM     16  H   UNL     1      -3.442   4.701  -2.134  0.00  0.00    +0.148 HD
BRANCH  15  17
ATOM     17  C   UNL     1      -3.777   2.498  -2.091  0.00  0.00    +0.134 C 
BRANCH  17  18
ATOM     18  C   UNL     1      -4.644   2.704  -3.335  0.00  0.00    +0.176 C 
BRANCH  18  19
ATOM     19  O   UNL     1      -3.886   3.389  -4.335  0.00  0.00    -0.382 OA
ATOM     20  C   UNL     1      -4.607   3.634  -5.545  0.00  0.00    +0.194 C 
ENDBRANCH  18  19
ENDBRANCH  17  18
ENDBRANCH  15  17
ENDBRANCH  12  15
ENDBRANCH   9  12
ENDBRANCH   1  11
BRANCH   3  21
ATOM     21  N   UNL     1       3.428   6.048  -0.937  0.00  0.00    -0.230 N 
ATOM     22  C   UNL     1       3.360   7.388  -1.064  0.00  0.00    +0.267 C 
ATOM     23  O   UNL     1       2.291   7.957  -0.944  0.00  0.00    -0.268 OA
ATOM     24  H   UNL     1       4.394   5.534  -1.046  0.00  0.00    +0.173 HD
BRANCH  22  25
ATOM     25  C   UNL     1       4.573   8.160  -1.348  0.00  0.00    +0.076 A 
ATOM     26  C   UNL     1       4.721   9.526  -1.514  0.00  0.00    +0.024 A 
ATOM     27  C   UNL     1       5.994  10.020  -1.771  0.00  0.00    -0.036 A 
ATOM     28  C   UNL     1       6.989   9.109  -1.867  0.00  0.00    -0.006 A 
ATOM     29  S   UNL     1       6.250   7.585  -1.561  0.00  0.00    -0.088 S 
ATOM     30  C   UNL     1       8.440   9.386  -2.189  0.00  0.00    +0.043 C 
ATOM     31  C   UNL     1       9.034  10.148  -0.992  0.00  0.00    +0.005 C 
ATOM     32  C   UNL     1       8.634  11.604  -1.047  0.00  0.00    +0.001 C 
ATOM     33  C   UNL     1       7.192  11.915  -0.740  0.00  0.00    +0.005 C 
ATOM     34  C   UNL     1       6.263  11.524  -1.889  0.00  0.00    +0.036 C 
ENDBRANCH  22  25
ENDBRANCH   3  21
TORSDOF 8
