REMARK  Name = ZINC08936627
REMARK  10 active torsions:
REMARK  status: ('A' for Active; 'I' for Inactive)
REMARK    1  A    between atoms: C_1  and  C_2
REMARK    2  A    between atoms: C_3  and  C_25
REMARK    3  A    between atoms: C_7  and  N_18
REMARK    4  A    between atoms: C_9  and  C_11
REMARK    5  A    between atoms: C_11  and  N_55
REMARK    6  A    between atoms: C_14  and  C_17
REMARK    7  A    between atoms: N_18  and  C_19
REMARK    8  A    between atoms: N_18  and  C_20
REMARK    9  A    between atoms: C_20  and  C_21
REMARK   10  A    between atoms: N_23  and  C_24
REMARK                            x       y       z     vdW  Elec       q    Type
REMARK                         _______ _______ _______ _____ _____    ______ ____
ROOT
ATOM      1  C   UNL     1       0.978   8.232   2.314  0.00  0.00    +0.045 C 
ATOM      2  C   UNL     1      -0.138   7.456   1.663  0.00  0.00    -0.028 A 
ATOM      3  C   UNL     1      -1.119   8.097   1.011  0.00  0.00    -0.008 A 
ATOM      4  S   UNL     1      -2.168   6.776   0.434  0.00  0.00    -0.074 S 
ATOM      5  C   UNL     1      -1.260   5.399   1.084  0.00  0.00    +0.114 A 
ATOM      6  C   UNL     1      -0.163   6.006   1.734  0.00  0.00    +0.051 A 
ATOM      7  C   UNL     1       0.748   5.110   2.357  0.00  0.00    +0.133 A 
ATOM      8  N   UNL     1       0.516   3.808   2.297  0.00  0.00    -0.219 NA
ATOM      9  C   UNL     1      -0.531   3.309   1.666  0.00  0.00    +0.116 A 
ATOM     10  N   UNL     1      -1.411   4.089   1.069  0.00  0.00    -0.227 NA
ATOM     11  C   UNL     1      -1.293   9.581   0.813  0.00  0.00    +0.052 C 
ENDROOT
BRANCH   7  12
ATOM     12  N   UNL     1       1.860   5.593   3.023  0.00  0.00    -0.309 N 
ATOM     13  C   UNL     1       1.897   5.106   4.409  0.00  0.00    +0.131 C 
BRANCH  12  14
ATOM     14  C   UNL     1       3.095   5.242   2.309  0.00  0.00    +0.201 C 
BRANCH  14  15
ATOM     15  C   UNL     1       4.256   5.984   2.920  0.00  0.00    +0.230 C 
ATOM     16  O   UNL     1       4.073   6.731   3.857  0.00  0.00    -0.274 OA
ATOM     17  N   UNL     1       5.498   5.817   2.424  0.00  0.00    -0.317 N 
ATOM     18  C   UNL     1       6.627   6.538   3.017  0.00  0.00    +0.128 C 
ATOM     19  H   UNL     1       5.645   5.219   1.674  0.00  0.00    +0.148 HD
ENDBRANCH  14  15
ENDBRANCH  12  14
ENDBRANCH   7  12
BRANCH   9  20
ATOM     20  C   UNL     1      -0.729   1.815   1.633  0.00  0.00    -0.001 C 
BRANCH  20  27
ATOM     21  C   UNL     1       1.290   1.816   0.297  0.00  0.00    -0.078 C 
ATOM     22  C   UNL     1       1.900   1.328  -1.019  0.00  0.00    -0.016 C 
ATOM     23  C   UNL     1       1.956  -0.202  -1.013  0.00  0.00    -0.018 C 
ATOM     24  C   UNL     1       0.544  -0.757  -0.805  0.00  0.00    -0.016 C 
ATOM     25  C   UNL     1      -0.026  -0.208   0.505  0.00  0.00    -0.078 C 
ATOM     26  C   UNL     1       2.508  -0.699  -2.351  0.00  0.00    +0.007 C 
ATOM     27  N   UNL     1      -0.077   1.267   0.426  0.00  0.00    +0.384 N 
ATOM     28  H   UNL     1      -0.623   1.538  -0.400  0.00  0.00    -0.081 HD
ENDBRANCH  20  27
ENDBRANCH   9  20
TORSDOF 5
