REMARK  Name = ZINC06196799
REMARK  8 active torsions:
REMARK  status: ('A' for Active; 'I' for Inactive)
REMARK    1  A    between atoms: C_1  and  C_2
REMARK    2  A    between atoms: C_2  and  O_3
REMARK    3  A    between atoms: O_3  and  C_4
REMARK    4  A    between atoms: C_11  and  C_16
REMARK    5  A    between atoms: C_16  and  C_18
REMARK    6  A    between atoms: C_16  and  N_72
REMARK    7  A    between atoms: N_22  and  C_23
REMARK    8  A    between atoms: C_34  and  C_36
REMARK                            x       y       z     vdW  Elec       q    Type
REMARK                         _______ _______ _______ _____ _____    ______ ____
ROOT
ATOM      1  C   UNL     1       0.919   1.386   0.233  0.00  0.00    +0.039 C 
ENDROOT
BRANCH   1   9
ATOM      2  C   UNL     1       1.014   4.755  -4.969  0.00  0.00    +0.121 A 
ATOM      3  C   UNL     1      -0.262   4.401  -5.400  0.00  0.00    +0.047 A 
ATOM      4  C   UNL     1      -1.042   3.543  -4.656  0.00  0.00    +0.030 A 
ATOM      5  C   UNL     1      -0.555   3.021  -3.462  0.00  0.00    +0.049 A 
ATOM      6  C   UNL     1       0.735   3.375  -3.023  0.00  0.00    +0.002 A 
ATOM      7  C   UNL     1       1.516   4.248  -3.788  0.00  0.00    +0.055 A 
ATOM      8  C   UNL     1       1.235   2.818  -1.765  0.00  0.00    +0.017 A 
ATOM      9  C   UNL     1       0.434   1.977  -1.066  0.00  0.00    +0.011 A 
ATOM     10  C   UNL     1      -0.849   1.648  -1.552  0.00  0.00    +0.251 A 
ATOM     11  O   UNL     1      -1.551   0.885  -0.910  0.00  0.00    -0.268 OA
ATOM     12  N   UNL     1      -1.320   2.159  -2.703  0.00  0.00    -0.322 N 
ATOM     13  H   UNL     1      -2.237   1.911  -3.014  0.00  0.00    +0.169 HD
BRANCH   2  14
ATOM     14  O   UNL     1       1.769   5.604  -5.716  0.00  0.00    -0.492 OA
BRANCH  14  16
ATOM     15  C   UNL     1       2.180   7.026  -7.627  0.00  0.00    +0.048 C 
ATOM     16  C   UNL     1       1.190   6.092  -6.928  0.00  0.00    +0.225 C 
ENDBRANCH  14  16
ENDBRANCH   2  14
ENDBRANCH   1   9
BRANCH   1  24
ATOM     17  C   UNL     1      -0.102   3.229   1.427  0.00  0.00    -0.058 C 
ATOM     18  C   UNL     1      -1.196   3.584   2.439  0.00  0.00    +0.089 C 
ATOM     19  N   UNL     1      -0.910   2.884   3.701  0.00  0.00    -0.299 N 
ATOM     20  C   UNL     1      -0.657   1.436   3.651  0.00  0.00    +0.089 C 
ATOM     21  C   UNL     1       0.416   1.165   2.591  0.00  0.00    -0.058 C 
ATOM     22  C   UNL     1      -0.881   3.551   4.872  0.00  0.00    +0.282 C 
ATOM     23  O   UNL     1      -0.518   2.986   5.886  0.00  0.00    -0.267 OA
ATOM     24  N   UNL     1      -0.024   1.756   1.309  0.00  0.00    +0.391 N 
ATOM     25  H   UNL     1      -0.955   1.391   1.076  0.00  0.00    -0.080 HD
BRANCH  22  26
ATOM     26  C   UNL     1      -1.288   4.959   4.923  0.00  0.00    +0.189 A 
ATOM     27  C   UNL     1      -1.179   5.787   6.003  0.00  0.00    +0.054 A 
ATOM     28  C   UNL     1      -1.686   7.035   5.608  0.00  0.00    +0.042 A 
ATOM     29  C   UNL     1      -2.077   6.916   4.320  0.00  0.00    +0.196 A 
ATOM     30  O   UNL     1      -1.831   5.665   3.909  0.00  0.00    -0.458 OA
ENDBRANCH  22  26
ENDBRANCH   1  24
BRANCH   1  31
ATOM     31  C   UNL     1       2.300   1.905   0.537  0.00  0.00    +0.143 A 
ATOM     32  N   UNL     1       2.608   3.103   0.972  0.00  0.00    -0.115 NA
ATOM     33  N   UNL     1       3.888   3.159   1.109  0.00  0.00    -0.023 NA
ATOM     34  N   UNL     1       4.405   2.029   0.773  0.00  0.00    -0.044 NA
ATOM     35  N   UNL     1       3.458   1.228   0.419  0.00  0.00    -0.227 N 
BRANCH  35  36
ATOM     36  C   UNL     1       3.613  -0.158  -0.030  0.00  0.00    +0.111 C 
ATOM     37  C   UNL     1       4.270  -0.983   1.078  0.00  0.00    +0.027 C 
ATOM     38  C   UNL     1       4.432  -2.430   0.609  0.00  0.00    +0.002 C 
ATOM     39  C   UNL     1       5.311  -2.466  -0.642  0.00  0.00    +0.000 C 
ATOM     40  C   UNL     1       4.654  -1.641  -1.751  0.00  0.00    +0.002 C 
ATOM     41  C   UNL     1       4.492  -0.193  -1.282  0.00  0.00    +0.027 C 
ENDBRANCH  35  36
ENDBRANCH   1  31
TORSDOF 7
