REMARK  Name = ZINC12035250
REMARK  10 active torsions:
REMARK  status: ('A' for Active; 'I' for Inactive)
REMARK    1  A    between atoms: C_1  and  C_2
REMARK    2  A    between atoms: C_2  and  C_3
REMARK    3  A    between atoms: C_2  and  C_4
REMARK    4  A    between atoms: C_2  and  O_32
REMARK    5  A    between atoms: C_5  and  C_6
REMARK    6  A    between atoms: C_9  and  C_12
REMARK    7  A    between atoms: C_12  and  N_64
REMARK    8  A    between atoms: C_15  and  C_18
REMARK    9  A    between atoms: C_18  and  C_25
REMARK   10  A    between atoms: C_25  and  C_26
REMARK                            x       y       z     vdW  Elec       q    Type
REMARK                         _______ _______ _______ _____ _____    ______ ____
ROOT
ATOM      1  C   UNL     1      -0.731   1.580   1.266  0.00  0.00    -0.078 C 
ATOM      2  C   UNL     1      -0.013   1.086   0.008  0.00  0.00    -0.013 C 
ATOM      3  C   UNL     1      -0.755   1.594  -1.231  0.00  0.00    +0.018 C 
ATOM      4  C   UNL     1      -0.823   3.123  -1.184  0.00  0.00    -0.013 C 
ATOM      5  C   UNL     1      -1.519   3.558   0.108  0.00  0.00    -0.078 C 
ATOM      6  N   UNL     1      -0.742   3.059   1.262  0.00  0.00    +0.382 N 
ATOM      7  H   UNL     1       0.224   3.399   1.186  0.00  0.00    -0.081 HD
ENDROOT
BRANCH   3   8
ATOM      8  C   UNL     1      -0.007   1.154  -2.491  0.00  0.00    +0.119 C 
ATOM      9  C   UNL     1       1.442   1.596  -2.433  0.00  0.00    +0.244 C 
ATOM     10  O   UNL     1       1.858   2.733  -2.372  0.00  0.00    -0.273 OA
ATOM     11  N   UNL     1       2.171   0.463  -2.465  0.00  0.00    -0.238 N 
ATOM     12  C   UNL     1       1.392  -0.623  -2.534  0.00  0.00    +0.307 C 
ATOM     13  O   UNL     1       1.820  -1.759  -2.574  0.00  0.00    -0.252 OA
ATOM     14  N   UNL     1       0.082  -0.315  -2.555  0.00  0.00    -0.284 N 
ATOM     15  H   UNL     1       3.140   0.438  -2.441  0.00  0.00    +0.159 HD
ATOM     16  H   UNL     1      -0.659  -0.939  -2.602  0.00  0.00    +0.151 HD
BRANCH   8  17
ATOM     17  C   UNL     1      -0.690   1.710  -3.743  0.00  0.00    +0.070 C 
BRANCH  17  18
ATOM     18  C   UNL     1      -0.009   1.163  -4.971  0.00  0.00    -0.045 A 
ATOM     19  C   UNL     1       1.052   1.847  -5.535  0.00  0.00    +0.004 A 
ATOM     20  C   UNL     1       1.679   1.344  -6.659  0.00  0.00    +0.000 A 
ATOM     21  C   UNL     1       1.239   0.162  -7.225  0.00  0.00    +0.000 A 
ATOM     22  C   UNL     1       0.175  -0.519  -6.664  0.00  0.00    +0.000 A 
ATOM     23  C   UNL     1      -0.449  -0.018  -5.537  0.00  0.00    +0.004 A 
ENDBRANCH  17  18
ENDBRANCH   8  17
ENDBRANCH   3   8
BRANCH   6  24
ATOM     24  C   UNL     1      -1.329   3.562   2.521  0.00  0.00    -0.043 C 
BRANCH  24  28
ATOM     25  C   UNL     1       1.304   2.603   5.750  0.00  0.00    +0.025 A 
ATOM     26  C   UNL     1       1.457   3.803   5.055  0.00  0.00    +0.017 A 
ATOM     27  C   UNL     1       0.604   4.106   4.013  0.00  0.00    +0.003 A 
ATOM     28  C   UNL     1      -0.401   3.224   3.659  0.00  0.00    -0.064 A 
ATOM     29  C   UNL     1      -0.561   2.035   4.348  0.00  0.00    +0.003 A 
ATOM     30  C   UNL     1       0.289   1.717   5.388  0.00  0.00    +0.017 A 
BRANCH  25  32
ATOM     31  C   UNL     1       2.909   2.019   7.719  0.00  0.00    -0.063 C 
ATOM     32  C   UNL     1       2.186   2.282   6.832  0.00  0.00    -0.063 C 
BRANCH  31  34
ATOM     33  C   UNL     1       3.432   0.328   9.415  0.00  0.00    +0.055 C 
ATOM     34  C   UNL     1       3.815   1.689   8.831  0.00  0.00    +0.121 C 
ATOM     35  C   UNL     1       5.255   1.636   8.317  0.00  0.00    +0.055 C 
BRANCH  34  36
ATOM     36  O   UNL     1       3.708   2.690   9.845  0.00  0.00    -0.377 OA
ATOM     37  H   UNL     1       4.279   2.537  10.611  0.00  0.00    +0.211 HD
ENDBRANCH  34  36
ENDBRANCH  31  34
ENDBRANCH  25  32
ENDBRANCH  24  28
ENDBRANCH   6  24
TORSDOF 8
