REMARK  Name = ZINC10932408
REMARK  8 active torsions:
REMARK  status: ('A' for Active; 'I' for Inactive)
REMARK    1  A    between atoms: C_3  and  C_6
REMARK    2  A    between atoms: N_8  and  N_9
REMARK    3  A    between atoms: C_10  and  C_12
REMARK    4  A    between atoms: C_12  and  O_13
REMARK    5  A    between atoms: O_13  and  C_14
REMARK    6  A    between atoms: C_14  and  C_16
REMARK    7  A    between atoms: C_20  and  N_21
REMARK    8  A    between atoms: C_22  and  C_24
REMARK                            x       y       z     vdW  Elec       q    Type
REMARK                         _______ _______ _______ _____ _____    ______ ____
ROOT
ATOM      1  C   UNL     1      -9.624   2.694   0.067  0.00  0.00    +0.091 A 
ATOM      2  C   UNL     1     -10.277   2.312   1.320  0.00  0.00    -0.021 A 
ATOM      3  C   UNL     1     -11.448   1.667   1.180  0.00  0.00    -0.004 A 
ATOM      4  S   UNL     1     -11.690   1.544  -0.575  0.00  0.00    -0.077 S 
ATOM      5  C   UNL     1     -10.257   2.349  -1.116  0.00  0.00    +0.086 A 
ATOM      6  C   UNL     1     -12.062   1.318   2.509  0.00  0.00    +0.043 C 
ATOM      7  C   UNL     1     -11.328   2.219   3.526  0.00  0.00    +0.010 C 
ATOM      8  C   UNL     1      -9.983   2.466   2.813  0.00  0.00    +0.037 C 
ENDROOT
BRANCH   5   9
ATOM      9  N   UNL     1      -9.842   2.589  -2.417  0.00  0.00    -0.279 N 
ATOM     10  C   UNL     1     -10.598   2.174  -3.452  0.00  0.00    +0.221 C 
ATOM     11  O   UNL     1     -11.641   1.591  -3.247  0.00  0.00    -0.275 OA
ATOM     12  H   UNL     1      -9.008   3.056  -2.581  0.00  0.00    +0.155 HD
BRANCH  10  13
ATOM     13  C   UNL     1     -10.148   2.436  -4.866  0.00  0.00    +0.075 C 
ATOM     14  C   UNL     1     -10.013   3.944  -5.088  0.00  0.00    +0.013 C 
ATOM     15  C   UNL     1      -9.555   4.210  -6.524  0.00  0.00    +0.001 C 
ATOM     16  C   UNL     1     -10.586   3.641  -7.501  0.00  0.00    +0.000 C 
ATOM     17  C   UNL     1     -10.721   2.133  -7.279  0.00  0.00    +0.001 C 
ATOM     18  C   UNL     1     -11.178   1.867  -5.844  0.00  0.00    +0.013 C 
ENDBRANCH  10  13
ENDBRANCH   5   9
BRANCH   1  19
ATOM     19  C   UNL     1      -8.346   3.409   0.064  0.00  0.00    +0.342 C 
ATOM     20  O   UNL     1      -8.330   4.625   0.070  0.00  0.00    -0.245 OA
BRANCH  19  21
ATOM     21  O   UNL     1      -7.187   2.719   0.054  0.00  0.00    -0.452 OA
BRANCH  21  22
ATOM     22  C   UNL     1      -5.959   3.494   0.052  0.00  0.00    +0.329 C 
BRANCH  22  24
ATOM     23  N   UNL     1      -3.524   3.058   0.037  0.00  0.00    -0.231 N 
ATOM     24  C   UNL     1      -4.776   2.560   0.041  0.00  0.00    +0.267 C 
ATOM     25  O   UNL     1      -4.951   1.359   0.036  0.00  0.00    -0.271 OA
ATOM     26  H   UNL     1      -3.384   4.018   0.041  0.00  0.00    +0.173 HD
BRANCH  23  29
ATOM     27  C   UNL     1      -1.173   2.688   0.022  0.00  0.00    +0.267 C 
ATOM     28  O   UNL     1      -0.997   3.893   0.028  0.00  0.00    -0.268 OA
ATOM     29  N   UNL     1      -2.425   2.190   0.027  0.00  0.00    -0.230 N 
ATOM     30  H   UNL     1      -2.565   1.230   0.022  0.00  0.00    +0.173 HD
BRANCH  27  33
ATOM     31  C   UNL     1       2.208   1.027  -0.013  0.00  0.00    +0.008 A 
ATOM     32  C   UNL     1       1.330   2.083   0.001  0.00  0.00    +0.021 A 
ATOM     33  C   UNL     1      -0.022   1.780   0.012  0.00  0.00    +0.075 A 
ATOM     34  S   UNL     1       0.002  -0.004   0.002  0.00  0.00    -0.092 S 
ATOM     35  C   UNL     1       1.719  -0.241  -0.016  0.00  0.00    +0.046 A 
ENDBRANCH  27  33
ENDBRANCH  23  29
ENDBRANCH  22  24
ENDBRANCH  21  22
ENDBRANCH  19  21
ENDBRANCH   1  19
TORSDOF 8
