REMARK  Name = ZINC05689043
REMARK  7 active torsions:
REMARK  status: ('A' for Active; 'I' for Inactive)
REMARK    1  A    between atoms: C_4  and  C_7
REMARK    2  A    between atoms: C_9  and  C_12
REMARK    3  A    between atoms: C_12  and  O_13
REMARK    4  A    between atoms: O_13  and  C_14
REMARK    5  A    between atoms: C_14  and  C_16
REMARK    6  A    between atoms: C_19  and  N_25
REMARK    7  A    between atoms: C_20  and  N_22
REMARK                            x       y       z     vdW  Elec       q    Type
REMARK                         _______ _______ _______ _____ _____    ______ ____
ROOT
ATOM      1  C   UNL     1       7.205  -5.435  -0.005  0.00  0.00    +0.340 C 
ATOM      2  O   UNL     1       6.370  -6.274   0.269  0.00  0.00    -0.245 OA
ENDROOT
BRANCH   1   3
ATOM      3  C   UNL     1       8.630  -5.807  -0.073  0.00  0.00    +0.061 A 
ATOM      4  C   UNL     1       9.592  -4.841  -0.383  0.00  0.00    +0.017 A 
ATOM      5  C   UNL     1      10.912  -5.187  -0.445  0.00  0.00    +0.026 A 
ATOM      6  C   UNL     1      11.305  -6.500  -0.200  0.00  0.00    +0.055 A 
ATOM      7  C   UNL     1      10.353  -7.468   0.109  0.00  0.00    +0.147 A 
ATOM      8  C   UNL     1       9.022  -7.126   0.179  0.00  0.00    +0.049 A 
BRANCH   7   9
ATOM      9  N   UNL     1      10.774  -8.864   0.368  0.00  0.00    +0.058 N 
ATOM     10  O   UNL     1      10.085  -9.783  -0.011  0.00  0.00    -0.126 OA
ATOM     11  O   UNL     1      11.805  -9.085   0.959  0.00  0.00    -0.126 OA
ENDBRANCH   7   9
BRANCH   6  12
ATOM     12  N   UNL     1      12.650  -6.846  -0.265  0.00  0.00    -0.356 N 
ATOM     13  H   UNL     1      13.323  -6.155  -0.367  0.00  0.00    +0.142 HD
ATOM     14  H   UNL     1      12.915  -7.777  -0.208  0.00  0.00    +0.142 HD
ENDBRANCH   6  12
ENDBRANCH   1   3
BRANCH   1  15
ATOM     15  O   UNL     1       6.829  -4.164  -0.247  0.00  0.00    -0.455 OA
BRANCH  15  16
ATOM     16  C   UNL     1       5.432  -3.874  -0.165  0.00  0.00    +0.288 C 
BRANCH  16  19
ATOM     17  C   UNL     1       3.757  -0.643  -0.704  0.00  0.00    +0.109 A 
ATOM     18  N   UNL     1       3.987  -1.923  -0.445  0.00  0.00    -0.241 NA
ATOM     19  C   UNL     1       5.203  -2.415  -0.464  0.00  0.00    +0.086 A 
ATOM     20  C   UNL     1       6.256  -1.606  -0.755  0.00  0.00    +0.074 A 
ATOM     21  S   UNL     1       5.415  -0.050  -1.019  0.00  0.00    -0.075 S 
BRANCH  17  25
ATOM     22  C   UNL     1       0.076   1.474  -0.785  0.00  0.00    +0.000 A 
ATOM     23  C   UNL     1       1.258   2.137  -1.063  0.00  0.00    +0.001 A 
ATOM     24  C   UNL     1       2.457   1.455  -1.038  0.00  0.00    +0.010 A 
ATOM     25  C   UNL     1       2.476   0.094  -0.732  0.00  0.00    +0.007 A 
ATOM     26  C   UNL     1       1.280  -0.569  -0.452  0.00  0.00    +0.010 A 
ATOM     27  C   UNL     1       0.088   0.124  -0.480  0.00  0.00    +0.001 A 
ENDBRANCH  17  25
ENDBRANCH  16  19
ENDBRANCH  15  16
ENDBRANCH   1  15
TORSDOF 7
