REMARK  Name = ZINC31865495
REMARK  5 active torsions:
REMARK  status: ('A' for Active; 'I' for Inactive)
REMARK    1  A    between atoms: C_1  and  C_2
REMARK    2  A    between atoms: C_2  and  C_3
REMARK    3  A    between atoms: C_10  and  C_12
REMARK    4  A    between atoms: C_13  and  C_24
REMARK    5  A    between atoms: C_19  and  C_23
REMARK                            x       y       z     vdW  Elec       q    Type
REMARK                         _______ _______ _______ _____ _____    ______ ____
ROOT
ATOM      1  C   UNL     1       3.917   1.335   0.189  0.00  0.00    +0.080 A 
ATOM      2  C   UNL     1       4.536   2.068  -0.780  0.00  0.00    -0.017 A 
ATOM      3  C   UNL     1       5.898   2.358  -0.667  0.00  0.00    +0.076 A 
ATOM      4  C   UNL     1       6.770   3.127  -1.585  0.00  0.00    +0.260 A 
ATOM      5  O   UNL     1       6.324   3.614  -2.609  0.00  0.00    -0.267 OA
ATOM      6  N   UNL     1       8.068   3.274  -1.258  0.00  0.00    -0.311 N 
ATOM      7  H   UNL     1       8.653   3.775  -1.848  0.00  0.00    +0.170 HD
ATOM      8  C   UNL     1       8.575   2.737  -0.121  0.00  0.00    +0.108 A 
ATOM      9  N   UNL     1       7.834   2.054   0.709  0.00  0.00    -0.227 NA
ATOM     10  C   UNL     1       6.543   1.850   0.483  0.00  0.00    +0.116 A 
ATOM     11  S   UNL     1       5.238   1.009   1.344  0.00  0.00    -0.064 S 
ATOM     12  C   UNL     1      10.036   2.934   0.194  0.00  0.00    +0.086 C 
ATOM     13  C   UNL     1       3.754   2.562  -1.969  0.00  0.00    +0.046 C 
ENDROOT
BRANCH   1  20
ATOM     14  C   UNL     1       0.802  -0.819   0.463  0.00  0.00    +0.076 C 
ATOM     15  C   UNL     1       0.683  -2.001  -0.505  0.00  0.00    +0.022 C 
ATOM     16  C   UNL     1       1.684  -3.087  -0.104  0.00  0.00    +0.003 C 
ATOM     17  C   UNL     1       3.107  -2.530  -0.193  0.00  0.00    +0.019 C 
ATOM     18  C   UNL     1       3.253  -1.355   0.779  0.00  0.00    +0.108 C 
ATOM     19  N   UNL     1       2.200  -0.369   0.496  0.00  0.00    -0.294 N 
ATOM     20  C   UNL     1       2.512   0.922   0.266  0.00  0.00    +0.254 C 
ATOM     21  O   UNL     1       1.627   1.745   0.123  0.00  0.00    -0.269 OA
BRANCH  14  23
ATOM     22  C   UNL     1      -1.533  -0.176  -0.150  0.00  0.00    +0.006 C 
ATOM     23  C   UNL     1      -0.095   0.326  -0.013  0.00  0.00    +0.019 C 
ENDBRANCH  14  23
ENDBRANCH   1  20
TORSDOF 2
