REMARK  Name = ZINC35001196
REMARK  19 active torsions:
REMARK  status: ('A' for Active; 'I' for Inactive)
REMARK    1  A    between atoms: C_1  and  C_2
REMARK    2  A    between atoms: C_2  and  C_3
REMARK    3  A    between atoms: C_3  and  C_4
REMARK    4  A    between atoms: C_4  and  C_5
REMARK    5  A    between atoms: C_5  and  C_6
REMARK    6  A    between atoms: C_6  and  N_7
REMARK    7  A    between atoms: N_7  and  C_8
REMARK    8  A    between atoms: C_8  and  C_9
REMARK    9  A    between atoms: C_16  and  O_23
REMARK   10  A    between atoms: C_17  and  O_21
REMARK   11  A    between atoms: O_21  and  C_22
REMARK   12  A    between atoms: O_23  and  C_24
REMARK   13  A    between atoms: N_27  and  C_28
REMARK   14  A    between atoms: C_29  and  C_37
REMARK   15  A    between atoms: C_33  and  C_34
REMARK   16  A    between atoms: C_34  and  C_35
REMARK   17  A    between atoms: C_34  and  C_36
REMARK   18  A    between atoms: C_37  and  C_38
REMARK   19  A    between atoms: C_37  and  C_39
REMARK                            x       y       z     vdW  Elec       q    Type
REMARK                         _______ _______ _______ _____ _____    ______ ____
ROOT
ATOM      1  N   UNL     1      -4.554  -2.495   0.582  0.00  0.00    -0.277 N 
ATOM      2  C   UNL     1      -4.728  -3.418   1.549  0.00  0.00    +0.307 C 
ATOM      3  O   UNL     1      -4.642  -4.601   1.281  0.00  0.00    -0.252 OA
ATOM      4  N   UNL     1      -4.997  -3.030   2.811  0.00  0.00    -0.269 N 
ATOM      5  H   UNL     1      -5.006  -2.087   3.037  0.00  0.00    +0.156 HD
ENDROOT
BRANCH   4   6
ATOM      6  C   UNL     1      -5.264  -3.988   3.796  0.00  0.00    +0.042 A 
ATOM      7  C   UNL     1      -4.480  -4.046   4.940  0.00  0.00    -0.023 A 
ATOM      8  C   UNL     1      -4.746  -4.993   5.910  0.00  0.00    +0.006 A 
ATOM      9  C   UNL     1      -5.792  -5.882   5.743  0.00  0.00    +0.001 A 
ATOM     10  C   UNL     1      -6.574  -5.827   4.604  0.00  0.00    +0.006 A 
ATOM     11  C   UNL     1      -6.317  -4.879   3.632  0.00  0.00    -0.023 A 
BRANCH  11  12
ATOM     12  C   UNL     1      -7.174  -4.815   2.395  0.00  0.00    +0.015 C 
ATOM     13  C   UNL     1      -7.786  -6.192   2.127  0.00  0.00    +0.012 C 
ATOM     14  C   UNL     1      -8.292  -3.791   2.600  0.00  0.00    +0.012 C 
ENDBRANCH  11  12
BRANCH   7  15
ATOM     15  C   UNL     1      -3.340  -3.079   5.124  0.00  0.00    +0.015 C 
ATOM     16  C   UNL     1      -3.587  -2.230   6.373  0.00  0.00    +0.012 C 
ATOM     17  C   UNL     1      -2.032  -3.856   5.286  0.00  0.00    +0.012 C 
ENDBRANCH   7  15
ENDBRANCH   4   6
BRANCH   1  18
ATOM     18  C   UNL     1      -4.658  -1.069   0.904  0.00  0.00    +0.110 C 
BRANCH  18  19
ATOM     19  C   UNL     1      -6.106  -0.611   0.727  0.00  0.00    +0.019 C 
BRANCH  19  20
ATOM     20  C   UNL     1      -6.215   0.878   1.063  0.00  0.00    +0.002 C 
BRANCH  20  21
ATOM     21  C   UNL     1      -7.663   1.337   0.885  0.00  0.00    -0.000 C 
BRANCH  21  23
ATOM     22  C   UNL     1      -9.220   3.285   1.043  0.00  0.00    +0.004 C 
ATOM     23  C   UNL     1      -7.771   2.826   1.221  0.00  0.00    -0.003 C 
ENDBRANCH  21  23
ENDBRANCH  20  21
ENDBRANCH  19  20
ENDBRANCH  18  19
ENDBRANCH   1  18
BRANCH   1  24
ATOM     24  C   UNL     1      -4.262  -2.917  -0.790  0.00  0.00    +0.205 C 
BRANCH  24  25
ATOM     25  C   UNL     1      -2.770  -3.025  -0.975  0.00  0.00    +0.233 C 
ATOM     26  O   UNL     1      -2.025  -2.774  -0.051  0.00  0.00    -0.274 OA
ATOM     27  N   UNL     1      -2.264  -3.400  -2.167  0.00  0.00    -0.296 N 
ATOM     28  C   UNL     1      -0.812  -3.521  -2.378  0.00  0.00    +0.113 C 
ATOM     29  C   UNL     1      -0.501  -4.988  -2.670  0.00  0.00    +0.054 C 
ATOM     30  C   UNL     1      -1.448  -5.542  -3.703  0.00  0.00    -0.038 A 
ATOM     31  C   UNL     1      -1.055  -6.688  -4.385  0.00  0.00    +0.053 A 
ATOM     32  C   UNL     1      -1.878  -7.255  -5.339  0.00  0.00    +0.162 A 
ATOM     33  C   UNL     1      -3.112  -6.675  -5.618  0.00  0.00    +0.162 A 
ATOM     34  C   UNL     1      -3.498  -5.534  -4.940  0.00  0.00    +0.054 A 
ATOM     35  C   UNL     1      -2.665  -4.964  -3.986  0.00  0.00    -0.023 A 
ATOM     36  C   UNL     1      -3.138  -3.710  -3.303  0.00  0.00    +0.143 C 
BRANCH  33  37
ATOM     37  O   UNL     1      -3.933  -7.227  -6.551  0.00  0.00    -0.491 OA
ATOM     38  C   UNL     1      -5.183  -6.576  -6.782  0.00  0.00    +0.277 C 
ENDBRANCH  33  37
BRANCH  32  39
ATOM     39  O   UNL     1      -1.484  -8.375  -6.003  0.00  0.00    -0.491 OA
ATOM     40  C   UNL     1      -0.204  -8.913  -5.664  0.00  0.00    +0.277 C 
ENDBRANCH  32  39
ENDBRANCH  24  25
ENDBRANCH   1  24
TORSDOF 12
