REMARK  Name = ZINC12146712
REMARK  4 active torsions:
REMARK  status: ('A' for Active; 'I' for Inactive)
REMARK    1  A    between atoms: C_3  and  C_6
REMARK    2  A    between atoms: C_8  and  N_22
REMARK    3  A    between atoms: N_11  and  C_13
REMARK    4  A    between atoms: C_13  and  C_14
REMARK                            x       y       z     vdW  Elec       q    Type
REMARK                         _______ _______ _______ _____ _____    ______ ____
ROOT
ATOM      1  C   UNL     1       0.914   5.132   0.021  0.00  0.00    +0.100 A 
ATOM      2  C   UNL     1       2.303   5.388   0.009  0.00  0.00    +0.058 A 
ATOM      3  C   UNL     1       2.752   6.676   0.011  0.00  0.00    +0.094 A 
ATOM      4  C   UNL     1       1.810   7.737   0.025  0.00  0.00    +0.288 A 
ATOM      5  O   UNL     1       2.191   8.896   0.027  0.00  0.00    -0.264 OA
ATOM      6  N   UNL     1       0.492   7.456   0.037  0.00  0.00    -0.218 N 
ATOM      7  N   UNL     1       0.053   6.127   0.029  0.00  0.00    -0.167 NA
ENDROOT
BRANCH   1  10
ATOM      8  C   UNL     1      -1.080   1.915   0.017  0.00  0.00    +0.008 A 
ATOM      9  C   UNL     1      -0.864   3.275   0.028  0.00  0.00    +0.018 A 
ATOM     10  C   UNL     1       0.425   3.737   0.018  0.00  0.00    +0.039 A 
ATOM     11  S   UNL     1       1.360   2.217   0.001  0.00  0.00    -0.095 S 
ATOM     12  C   UNL     1      -0.013   1.076   0.008  0.00  0.00    +0.046 A 
ENDBRANCH   1  10
BRANCH   3  13
ATOM     13  N   UNL     1       4.120   6.947  -0.001  0.00  0.00    -0.354 N 
ATOM     14  H   UNL     1       4.758   6.217  -0.011  0.00  0.00    +0.142 HD
ATOM     15  H   UNL     1       4.432   7.865   0.001  0.00  0.00    +0.142 HD
ENDBRANCH   3  13
BRANCH   6  16
ATOM     16  C   UNL     1      -0.486   8.546   0.053  0.00  0.00    +0.243 C 
BRANCH  16  17
ATOM     17  C   UNL     1      -0.836   8.928  -1.363  0.00  0.00    +0.237 C 
ATOM     18  O   UNL     1      -0.319   8.347  -2.293  0.00  0.00    -0.274 OA
ATOM     19  N   UNL     1      -1.723   9.916  -1.595  0.00  0.00    -0.300 N 
ATOM     20  C   UNL     1      -2.362  10.626  -0.478  0.00  0.00    +0.108 C 
ATOM     21  C   UNL     1      -2.140  12.134  -0.667  0.00  0.00    +0.019 C 
ATOM     22  C   UNL     1      -2.649  12.550  -2.049  0.00  0.00    +0.003 C 
ATOM     23  C   UNL     1      -1.859  11.808  -3.130  0.00  0.00    +0.019 C 
ATOM     24  C   UNL     1      -2.074  10.300  -2.969  0.00  0.00    +0.108 C 
ENDBRANCH  16  17
ENDBRANCH   6  16
TORSDOF 4
