REMARK  Name = ZINC15982231
REMARK  7 active torsions:
REMARK  status: ('A' for Active; 'I' for Inactive)
REMARK    1  A    between atoms: C_1  and  C_2
REMARK    2  A    between atoms: N_5  and  S_11
REMARK    3  A    between atoms: C_7  and  C_10
REMARK    4  A    between atoms: S_11  and  C_14
REMARK    5  A    between atoms: C_18  and  C_20
REMARK    6  A    between atoms: C_20  and  C_22
REMARK    7  A    between atoms: C_29  and  C_32
REMARK                            x       y       z     vdW  Elec       q    Type
REMARK                         _______ _______ _______ _____ _____    ______ ____
ROOT
ATOM      1  C   UNL     1       1.566  -5.412  -3.066  0.00  0.00    +0.192 C 
ATOM      2  O   UNL     1       1.293  -6.286  -2.257  0.00  0.00    -0.287 OA
ENDROOT
BRANCH   1   3
ATOM      3  C   UNL     1       2.332  -5.717  -4.189  0.00  0.00    +0.028 C 
ATOM      4  C   UNL     1       3.614  -6.190  -4.051  0.00  0.00    +0.079 C 
ATOM      5  N   UNL     1       4.549  -6.303  -5.042  0.00  0.00    -0.293 N 
ATOM      6  C   UNL     1       4.315  -5.769  -6.400  0.00  0.00    +0.111 C 
ATOM      7  C   UNL     1       3.358  -6.678  -7.178  0.00  0.00    +0.020 C 
ATOM      8  C   UNL     1       2.058  -6.808  -6.361  0.00  0.00    +0.006 C 
ATOM      9  C   UNL     1       1.762  -5.538  -5.578  0.00  0.00    +0.041 C 
ATOM     10  C   UNL     1       5.738  -6.914  -4.688  0.00  0.00    +0.048 C 
ATOM     11  C   UNL     1       5.986  -7.235  -3.402  0.00  0.00    +0.071 C 
ATOM     12  S   UNL     1       4.489  -6.687  -2.593  0.00  0.00    -0.080 S 
BRANCH  10  13
ATOM     13  C   UNL     1       6.745  -7.219  -5.728  0.00  0.00    -0.003 A 
ATOM     14  C   UNL     1       8.062  -6.784  -5.576  0.00  0.00    +0.010 A 
ATOM     15  C   UNL     1       8.997  -7.072  -6.549  0.00  0.00    +0.001 A 
ATOM     16  C   UNL     1       8.630  -7.790  -7.674  0.00  0.00    +0.000 A 
ATOM     17  C   UNL     1       7.325  -8.223  -7.831  0.00  0.00    +0.001 A 
ATOM     18  C   UNL     1       6.382  -7.946  -6.862  0.00  0.00    +0.010 A 
ENDBRANCH  10  13
ENDBRANCH   1   3
BRANCH   1  23
ATOM     19  C   UNL     1      -0.226  -2.453  -1.598  0.00  0.00    +0.106 A 
ATOM     20  C   UNL     1       0.176  -1.443  -2.454  0.00  0.00    +0.028 A 
ATOM     21  C   UNL     1       1.028  -1.720  -3.508  0.00  0.00    +0.003 A 
ATOM     22  C   UNL     1       1.483  -3.006  -3.712  0.00  0.00    +0.012 A 
ATOM     23  C   UNL     1       1.081  -4.029  -2.852  0.00  0.00    +0.024 A 
ATOM     24  C   UNL     1       0.226  -3.743  -1.788  0.00  0.00    +0.040 A 
BRANCH  19  25
ATOM     25  S   UNL     1      -1.312  -2.091  -0.259  0.00  0.00    +0.061 S 
ATOM     26  O   UNL     1      -1.967  -3.307   0.074  0.00  0.00    -0.153 OA
ATOM     27  O   UNL     1      -2.025  -0.916  -0.621  0.00  0.00    -0.153 OA
BRANCH  25  31
ATOM     28  C   UNL     1       1.971   1.142   1.945  0.00  0.00    +0.039 C 
ATOM     29  C   UNL     1       1.551  -0.260   1.500  0.00  0.00    +0.131 C 
ATOM     30  C   UNL     1       0.033  -0.295   1.285  0.00  0.00    +0.140 C 
ATOM     31  N   UNL     1      -0.369  -1.690   1.042  0.00  0.00    -0.172 NA
ATOM     32  C   UNL     1       0.092  -2.717   1.989  0.00  0.00    +0.140 C 
ATOM     33  C   UNL     1       1.606  -2.564   2.169  0.00  0.00    +0.131 C 
ATOM     34  O   UNL     1       1.906  -1.208   2.509  0.00  0.00    -0.371 OA
ATOM     35  C   UNL     1       2.083  -3.490   3.290  0.00  0.00    +0.039 C 
ENDBRANCH  25  31
ENDBRANCH  19  25
ENDBRANCH   1  23
TORSDOF 5
