REMARK  Name = ZINC35093163
REMARK  11 active torsions:
REMARK  status: ('A' for Active; 'I' for Inactive)
REMARK    1  A    between atoms: C_1  and  C_2
REMARK    2  A    between atoms: C_2  and  C_3
REMARK    3  A    between atoms: C_3  and  C_5
REMARK    4  A    between atoms: C_3  and  N_24
REMARK    5  A    between atoms: N_15  and  C_16
REMARK    6  A    between atoms: C_19  and  C_23
REMARK    7  A    between atoms: C_21  and  C_22
REMARK    8  A    between atoms: N_24  and  C_25
REMARK    9  A    between atoms: C_26  and  C_28
REMARK   10  A    between atoms: C_30  and  N_37
REMARK   11  A    between atoms: C_32  and  N_34
REMARK                            x       y       z     vdW  Elec       q    Type
REMARK                         _______ _______ _______ _____ _____    ______ ____
ROOT
ATOM      1  C   UNL     1       0.621  -0.269  -1.499  0.00  0.00    +0.142 C 
ENDROOT
BRANCH   1   2
ATOM      2  C   UNL     1       0.792  -1.745  -1.246  0.00  0.00    +0.138 A 
ATOM      3  N   UNL     1       0.264  -2.579  -2.090  0.00  0.00    -0.231 NA
ATOM      4  C   UNL     1       0.377  -3.921  -1.928  0.00  0.00    +0.078 A 
ATOM      5  C   UNL     1      -0.190  -4.819  -2.835  0.00  0.00    +0.028 A 
ATOM      6  C   UNL     1      -0.051  -6.173  -2.631  0.00  0.00    +0.002 A 
ATOM      7  C   UNL     1       0.646  -6.660  -1.534  0.00  0.00    +0.001 A 
ATOM      8  C   UNL     1       1.214  -5.795  -0.624  0.00  0.00    +0.015 A 
ATOM      9  C   UNL     1       1.086  -4.420  -0.812  0.00  0.00    +0.065 A 
ATOM     10  C   UNL     1       1.671  -3.449   0.124  0.00  0.00    +0.266 A 
ATOM     11  O   UNL     1       2.293  -3.813   1.105  0.00  0.00    -0.267 OA
ATOM     12  N   UNL     1       1.495  -2.135  -0.149  0.00  0.00    -0.263 N 
BRANCH  12  13
ATOM     13  C   UNL     1       2.037  -1.169   0.708  0.00  0.00    +0.054 A 
ATOM     14  C   UNL     1       1.309  -0.726   1.805  0.00  0.00    +0.027 A 
ATOM     15  C   UNL     1       1.846   0.226   2.649  0.00  0.00    +0.005 A 
ATOM     16  C   UNL     1       3.107   0.738   2.403  0.00  0.00    -0.050 A 
ATOM     17  C   UNL     1       3.834   0.299   1.312  0.00  0.00    +0.008 A 
ATOM     18  C   UNL     1       3.304  -0.657   0.467  0.00  0.00    -0.026 A 
ATOM     19  C   UNL     1       4.100  -1.140  -0.718  0.00  0.00    +0.046 C 
ATOM     20  C   UNL     1       3.690   1.777   3.325  0.00  0.00    +0.044 C 
ENDBRANCH  12  13
ENDBRANCH   1   2
BRANCH   1  21
ATOM     21  N   UNL     1       1.329   0.102  -2.727  0.00  0.00    -0.291 N 
ATOM     22  C   UNL     1       0.961  -0.520  -4.001  0.00  0.00    +0.133 C 
ATOM     23  C   UNL     1       2.320   1.014  -2.684  0.00  0.00    +0.247 C 
ATOM     24  O   UNL     1       2.692   1.459  -1.615  0.00  0.00    -0.270 OA
BRANCH  23  25
ATOM     25  C   UNL     1       2.955   1.475  -3.937  0.00  0.00    +0.041 A 
ATOM     26  C   UNL     1       2.197   1.603  -5.102  0.00  0.00    +0.046 A 
ATOM     27  C   UNL     1       2.795   2.033  -6.268  0.00  0.00    +0.129 A 
ATOM     28  C   UNL     1       4.145   2.338  -6.284  0.00  0.00    +0.065 A 
ATOM     29  C   UNL     1       4.902   2.214  -5.133  0.00  0.00    +0.129 A 
ATOM     30  C   UNL     1       4.315   1.790  -3.959  0.00  0.00    +0.046 A 
BRANCH  29  31
ATOM     31  N   UNL     1       6.346   2.542  -5.160  0.00  0.00    +0.057 N 
ATOM     32  O   UNL     1       6.861   2.918  -6.187  0.00  0.00    -0.126 OA
ATOM     33  O   UNL     1       7.009   2.434  -4.155  0.00  0.00    -0.126 OA
ENDBRANCH  29  31
BRANCH  27  34
ATOM     34  N   UNL     1       1.992   2.169  -7.503  0.00  0.00    +0.057 N 
ATOM     35  O   UNL     1       0.813   1.903  -7.491  0.00  0.00    -0.126 OA
ATOM     36  O   UNL     1       2.516   2.547  -8.526  0.00  0.00    -0.126 OA
ENDBRANCH  27  34
ENDBRANCH  23  25
ENDBRANCH   1  21
BRANCH   1  38
ATOM     37  C   UNL     1      -1.047   1.566  -1.804  0.00  0.00    +0.006 C 
ATOM     38  C   UNL     1      -0.866   0.054  -1.651  0.00  0.00    +0.027 C 
ENDBRANCH   1  38
TORSDOF 7
