REMARK  Name = ZINC01899338
REMARK  8 active torsions:
REMARK  status: ('A' for Active; 'I' for Inactive)
REMARK    1  A    between atoms: C_1  and  C_2
REMARK    2  A    between atoms: C_2  and  C_37
REMARK    3  A    between atoms: N_11  and  C_27
REMARK    4  A    between atoms: C_14  and  S_17
REMARK    5  A    between atoms: S_17  and  C_18
REMARK    6  A    between atoms: C_18  and  C_19
REMARK    7  A    between atoms: C_30  and  O_33
REMARK    8  A    between atoms: O_33  and  C_34
REMARK                            x       y       z     vdW  Elec       q    Type
REMARK                         _______ _______ _______ _____ _____    ______ ____
ROOT
ATOM      1  C   UNL     1       2.636   1.473   0.268  0.00  0.00    +0.041 C 
ATOM      2  C   UNL     1       2.022   0.073   0.225  0.00  0.00    +0.068 C 
ATOM      3  C   UNL     1       2.344  -0.582  -1.123  0.00  0.00    +0.071 C 
ATOM      4  C   UNL     1       1.941  -2.048  -1.038  0.00  0.00    -0.018 A 
ATOM      5  C   UNL     1       1.737  -2.627   0.165  0.00  0.00    +0.021 A 
ATOM      6  S   UNL     1       1.296  -4.295  -0.213  0.00  0.00    -0.072 S 
ATOM      7  C   UNL     1       1.376  -4.234  -1.883  0.00  0.00    +0.102 A 
ATOM      8  C   UNL     1       1.744  -2.928  -2.187  0.00  0.00    +0.075 A 
ATOM      9  C   UNL     1       1.888  -2.601  -3.624  0.00  0.00    +0.268 A 
ATOM     10  O   UNL     1       2.209  -1.478  -3.966  0.00  0.00    -0.266 OA
ATOM     11  N   UNL     1       1.663  -3.549  -4.549  0.00  0.00    -0.245 N 
ATOM     12  C   UNL     1       1.297  -4.836  -4.189  0.00  0.00    +0.245 A 
ATOM     13  N   UNL     1       1.156  -5.173  -2.868  0.00  0.00    -0.249 N 
ATOM     14  C   UNL     1       0.792  -6.493  -2.810  0.00  0.00    +0.198 A 
ATOM     15  N   UNL     1       0.713  -6.947  -4.037  0.00  0.00    -0.120 NA
ATOM     16  N   UNL     1       1.031  -5.900  -4.910  0.00  0.00    -0.109 NA
ATOM     17  C   UNL     1       1.871  -1.958   1.497  0.00  0.00    +0.203 C 
ATOM     18  O   UNL     1       2.557  -0.712   1.295  0.00  0.00    -0.368 OA
ATOM     19  C   UNL     1       0.504   0.180   0.384  0.00  0.00    +0.041 C 
ENDROOT
BRANCH  11  20
ATOM     20  C   UNL     1       1.801  -3.229  -5.907  0.00  0.00    +0.053 A 
ATOM     21  C   UNL     1       0.711  -2.750  -6.622  0.00  0.00    +0.030 A 
ATOM     22  C   UNL     1       0.847  -2.436  -7.960  0.00  0.00    +0.047 A 
ATOM     23  C   UNL     1       2.073  -2.598  -8.589  0.00  0.00    +0.120 A 
ATOM     24  C   UNL     1       3.162  -3.076  -7.875  0.00  0.00    +0.047 A 
ATOM     25  C   UNL     1       3.029  -3.385  -6.536  0.00  0.00    +0.030 A 
BRANCH  23  26
ATOM     26  O   UNL     1       2.207  -2.288  -9.906  0.00  0.00    -0.495 OA
ATOM     27  C   UNL     1       3.497  -2.479 -10.490  0.00  0.00    +0.277 C 
ENDBRANCH  23  26
ENDBRANCH  11  20
BRANCH  14  28
ATOM     28  S   UNL     1       0.485  -7.417  -1.342  0.00  0.00    -0.081 S 
BRANCH  28  29
ATOM     29  C   UNL     1       0.053  -9.072  -1.947  0.00  0.00    +0.114 C 
BRANCH  29  30
ATOM     30  C   UNL     1      -0.237  -9.975  -0.776  0.00  0.00    -0.019 A 
ATOM     31  C   UNL     1       0.784 -10.701  -0.194  0.00  0.00    +0.007 A 
ATOM     32  C   UNL     1       0.518 -11.530   0.880  0.00  0.00    +0.020 A 
ATOM     33  C   UNL     1      -0.771 -11.633   1.373  0.00  0.00    +0.042 A 
ATOM     34  C   UNL     1      -1.793 -10.906   0.790  0.00  0.00    +0.040 A 
ATOM     35  C   UNL     1      -1.526 -10.073  -0.282  0.00  0.00    +0.046 A 
ATOM     36 CL   UNL     1      -2.807  -9.156  -1.010  0.00  0.00    -0.083 Cl
ATOM     37 CL   UNL     1      -1.104 -12.674   2.721  0.00  0.00    -0.083 Cl
ENDBRANCH  29  30
ENDBRANCH  28  29
ENDBRANCH  14  28
TORSDOF 5
