REMARK  Name = ZINC13564766
REMARK  6 active torsions:
REMARK  status: ('A' for Active; 'I' for Inactive)
REMARK    1  A    between atoms: C_4  and  C_7
REMARK    2  A    between atoms: C_7  and  C_8
REMARK    3  A    between atoms: C_7  and  N_14
REMARK    4  A    between atoms: C_15  and  C_17
REMARK    5  A    between atoms: C_17  and  N_18
REMARK    6  A    between atoms: C_21  and  N_24
REMARK                            x       y       z     vdW  Elec       q    Type
REMARK                         _______ _______ _______ _____ _____    ______ ____
ROOT
ATOM      1  N   UNL     1       5.956  -3.917  -2.914  0.00  0.00    +0.385 N 
ATOM      2  C   UNL     1       6.479  -2.822  -3.741  0.00  0.00    -0.076 C 
ATOM      3  C   UNL     1       7.904  -3.152  -4.189  0.00  0.00    +0.004 C 
ATOM      4  C   UNL     1       7.889  -4.448  -5.005  0.00  0.00    +0.070 C 
ATOM      5  C   UNL     1       7.274  -5.566  -4.159  0.00  0.00    +0.004 C 
ATOM      6  C   UNL     1       5.872  -5.146  -3.711  0.00  0.00    -0.076 C 
ATOM      7  H   UNL     1       6.573  -4.067  -2.130  0.00  0.00    -0.081 HD
ENDROOT
BRANCH   4   8
ATOM      8  N   UNL     1       9.260  -4.811  -5.373  0.00  0.00    -0.312 N 
ATOM      9  C   UNL     1       9.490  -5.584  -6.479  0.00  0.00    +0.196 A 
ATOM     10  N   UNL     1      10.767  -5.919  -6.809  0.00  0.00    -0.295 N 
ATOM     11  H   UNL     1      11.508  -5.616  -6.262  0.00  0.00    +0.172 HD
ATOM     12  C   UNL     1      10.993  -6.676  -7.901  0.00  0.00    +0.256 A 
ATOM     13  O   UNL     1      12.131  -6.987  -8.213  0.00  0.00    -0.267 OA
ATOM     14  C   UNL     1       9.896  -7.105  -8.679  0.00  0.00    +0.038 A 
ATOM     15  C   UNL     1       8.643  -6.748  -8.299  0.00  0.00    +0.053 A 
ATOM     16  N   UNL     1       8.473  -5.996  -7.204  0.00  0.00    -0.221 NA
ATOM     17  C   UNL     1       7.412  -7.176  -9.053  0.00  0.00    +0.056 C 
ATOM     18  C   UNL     1       7.778  -7.636 -10.463  0.00  0.00    +0.006 C 
ATOM     19  C   UNL     1       8.912  -8.663 -10.358  0.00  0.00    +0.005 C 
ATOM     20  C   UNL     1      10.176  -7.938  -9.901  0.00  0.00    +0.042 C 
ATOM     21  H   UNL     1      10.005  -4.503  -4.834  0.00  0.00    +0.149 HD
ENDBRANCH   4   8
BRANCH   1  22
ATOM     22  C   UNL     1       4.619  -3.561  -2.422  0.00  0.00    +0.019 C 
BRANCH  22  24
ATOM     23  N   UNL     1       3.611  -1.865  -0.930  0.00  0.00    -0.306 N 
ATOM     24  C   UNL     1       4.721  -2.370  -1.504  0.00  0.00    +0.197 C 
ATOM     25  O   UNL     1       5.802  -1.868  -1.281  0.00  0.00    -0.278 OA
ATOM     26  H   UNL     1       2.747  -2.267  -1.108  0.00  0.00    +0.150 HD
BRANCH  23  27
ATOM     27  C   UNL     1       3.711  -0.707  -0.038  0.00  0.00    +0.133 C 
BRANCH  27  31
ATOM     28  C   UNL     1      -0.017   1.378   0.010  0.00  0.00    +0.000 A 
ATOM     29  C   UNL     1       1.171   2.086   0.002  0.00  0.00    +0.000 A 
ATOM     30  C   UNL     1       2.377   1.411  -0.013  0.00  0.00    +0.006 A 
ATOM     31  C   UNL     1       2.396   0.029  -0.020  0.00  0.00    -0.023 A 
ATOM     32  C   UNL     1       1.208  -0.679  -0.012  0.00  0.00    +0.006 A 
ATOM     33  C   UNL     1       0.002  -0.004   0.002  0.00  0.00    +0.000 A 
ENDBRANCH  27  31
BRANCH  27  34
ATOM     34  C   UNL     1       4.044  -1.175   1.356  0.00  0.00    -0.023 A 
ATOM     35  C   UNL     1       3.455  -2.320   1.860  0.00  0.00    +0.006 A 
ATOM     36  C   UNL     1       3.760  -2.748   3.138  0.00  0.00    +0.000 A 
ATOM     37  C   UNL     1       4.654  -2.033   3.912  0.00  0.00    +0.000 A 
ATOM     38  C   UNL     1       5.243  -0.888   3.408  0.00  0.00    +0.000 A 
ATOM     39  C   UNL     1       4.941  -0.462   2.128  0.00  0.00    +0.006 A 
ENDBRANCH  27  34
ENDBRANCH  23  27
ENDBRANCH  22  24
ENDBRANCH   1  22
TORSDOF 6
