REMARK  Name = ZINC54613933
REMARK  15 active torsions:
REMARK  status: ('A' for Active; 'I' for Inactive)
REMARK    1  A    between atoms: C_1  and  C_2
REMARK    2  A    between atoms: C_2  and  C_3
REMARK    3  A    between atoms: C_3  and  C_4
REMARK    4  A    between atoms: C_4  and  S_5
REMARK    5  A    between atoms: S_5  and  C_6
REMARK    6  A    between atoms: C_11  and  C_28
REMARK    7  A    between atoms: C_13  and  C_17
REMARK    8  A    between atoms: C_14  and  C_16
REMARK    9  A    between atoms: N_19  and  C_20
REMARK   10  A    between atoms: C_24  and  C_27
REMARK   11  A    between atoms: C_25  and  C_26
REMARK   12  A    between atoms: C_31  and  O_37
REMARK   13  A    between atoms: C_32  and  O_34
REMARK   14  A    between atoms: O_34  and  C_35
REMARK   15  A    between atoms: C_35  and  C_36
REMARK                            x       y       z     vdW  Elec       q    Type
REMARK                         _______ _______ _______ _____ _____    ______ ____
ROOT
ATOM      1  C   UNL     1       0.111  -4.317  -1.960  0.00  0.00    +0.210 A 
ATOM      2  N   UNL     1       0.062  -5.026  -0.823  0.00  0.00    -0.187 NA
ATOM      3  C   UNL     1       0.345  -6.275  -1.074  0.00  0.00    +0.219 A 
ATOM      4  N   UNL     1       0.590  -6.392  -2.402  0.00  0.00    -0.220 N 
ATOM      5  N   UNL     1       0.425  -5.122  -2.953  0.00  0.00    -0.141 NA
ATOM      6  C   UNL     1       0.951  -7.651  -3.050  0.00  0.00    +0.177 C 
ATOM      7  C   UNL     1       0.712  -8.791  -2.096  0.00  0.00    +0.060 C 
ATOM      8  C   UNL     1       0.470  -8.614  -0.789  0.00  0.00    +0.018 C 
ATOM      9  N   UNL     1       0.410  -7.366  -0.219  0.00  0.00    -0.287 N 
ATOM     10  C   UNL     1       0.257  -9.824   0.083  0.00  0.00    +0.061 C 
ATOM     11  H   UNL     1       0.412  -7.251   0.745  0.00  0.00    +0.155 HD
ENDROOT
BRANCH   6  12
ATOM     12  C   UNL     1       2.406  -7.617  -3.438  0.00  0.00    -0.015 A 
ATOM     13  C   UNL     1       3.369  -7.344  -2.484  0.00  0.00    +0.010 A 
ATOM     14  C   UNL     1       4.705  -7.311  -2.835  0.00  0.00    +0.049 A 
ATOM     15  C   UNL     1       5.083  -7.553  -4.146  0.00  0.00    +0.158 A 
ATOM     16  C   UNL     1       4.114  -7.828  -5.107  0.00  0.00    +0.162 A 
ATOM     17  C   UNL     1       2.777  -7.863  -4.747  0.00  0.00    +0.055 A 
BRANCH  15  18
ATOM     18  O   UNL     1       6.397  -7.521  -4.494  0.00  0.00    -0.503 OA
ATOM     19  H   UNL     1       6.846  -8.374  -4.416  0.00  0.00    +0.292 HD
ENDBRANCH  15  18
BRANCH  16  20
ATOM     20  O   UNL     1       4.480  -8.065  -6.395  0.00  0.00    -0.489 OA
BRANCH  20  21
ATOM     21  C   UNL     1       3.428  -8.255  -7.343  0.00  0.00    +0.226 C 
ATOM     22  C   UNL     1       4.029  -8.558  -8.718  0.00  0.00    +0.048 C 
ENDBRANCH  20  21
ENDBRANCH  16  20
ENDBRANCH   6  12
BRANCH   7  23
ATOM     23  C   UNL     1       0.745 -10.112  -2.603  0.00  0.00    +0.248 C 
ATOM     24  O   UNL     1      -0.227 -10.567  -3.178  0.00  0.00    -0.270 OA
ATOM     25  N   UNL     1       1.852 -10.865  -2.449  0.00  0.00    -0.281 N 
ATOM     26  H   UNL     1       2.651 -10.479  -2.057  0.00  0.00    +0.155 HD
BRANCH  25  27
ATOM     27  C   UNL     1       1.848 -12.204  -2.853  0.00  0.00    +0.037 A 
ATOM     28  C   UNL     1       1.255 -12.566  -4.055  0.00  0.00    +0.023 A 
ATOM     29  C   UNL     1       1.252 -13.889  -4.451  0.00  0.00    +0.002 A 
ATOM     30  C   UNL     1       1.840 -14.853  -3.652  0.00  0.00    +0.004 A 
ATOM     31  C   UNL     1       2.432 -14.495  -2.454  0.00  0.00    -0.046 A 
ATOM     32  C   UNL     1       2.443 -13.173  -2.055  0.00  0.00    -0.026 A 
ATOM     33  C   UNL     1       3.093 -12.784  -0.753  0.00  0.00    +0.046 C 
ATOM     34  C   UNL     1       3.071 -15.549  -1.587  0.00  0.00    +0.044 C 
ENDBRANCH  25  27
ENDBRANCH   7  23
BRANCH   1  35
ATOM     35  S   UNL     1      -0.203  -2.589  -2.104  0.00  0.00    -0.084 S 
BRANCH  35  36
ATOM     36  C   UNL     1      -0.574  -2.068  -0.407  0.00  0.00    +0.077 C 
BRANCH  36  37
ATOM     37  C   UNL     1      -0.869  -0.567  -0.388  0.00  0.00    +0.011 C 
BRANCH  37  39
ATOM     38  C   UNL     1      -1.478   1.374   1.063  0.00  0.00    +0.004 C 
ATOM     39  C   UNL     1      -1.182  -0.127   1.044  0.00  0.00    -0.003 C 
ENDBRANCH  37  39
ENDBRANCH  36  37
ENDBRANCH  35  36
ENDBRANCH   1  35
TORSDOF 10
