REMARK  Name = ZINC25054398
REMARK  9 active torsions:
REMARK  status: ('A' for Active; 'I' for Inactive)
REMARK    1  A    between atoms: C_1  and  C_2
REMARK    2  A    between atoms: C_5  and  C_36
REMARK    3  A    between atoms: C_6  and  C_8
REMARK    4  A    between atoms: C_14  and  C_16
REMARK    5  A    between atoms: C_16  and  O_17
REMARK    6  A    between atoms: O_17  and  C_18
REMARK    7  A    between atoms: C_18  and  C_20
REMARK    8  A    between atoms: N_22  and  C_29
REMARK    9  A    between atoms: C_23  and  C_26
REMARK                            x       y       z     vdW  Elec       q    Type
REMARK                         _______ _______ _______ _____ _____    ______ ____
ROOT
ATOM      1  O   UNL     1      -2.607  -4.144   0.515  0.00  0.00    -0.451 OA
ENDROOT
BRANCH   1   2
ATOM      2  C   UNL     1      -3.628  -5.027   0.484  0.00  0.00    +0.356 C 
ATOM      3  O   UNL     1      -4.766  -4.635   0.308  0.00  0.00    -0.244 OA
BRANCH   2   4
ATOM      4  C   UNL     1      -3.373  -6.411   0.657  0.00  0.00    +0.145 C 
ATOM      5  N   UNL     1      -2.206  -6.940   0.845  0.00  0.00    -0.176 NA
ATOM      6  N   UNL     1      -2.228  -8.325   0.989  0.00  0.00    -0.212 N 
ATOM      7  C   UNL     1      -3.617  -8.795   0.872  0.00  0.00    +0.189 C 
ATOM      8  C   UNL     1      -4.422  -7.500   0.644  0.00  0.00    +0.098 C 
BRANCH   6   9
ATOM      9  C   UNL     1      -1.112  -9.137   1.204  0.00  0.00    +0.053 A 
ATOM     10  C   UNL     1      -1.266 -10.512   1.331  0.00  0.00    +0.028 A 
ATOM     11  C   UNL     1      -0.161 -11.314   1.538  0.00  0.00    +0.040 A 
ATOM     12  C   UNL     1       1.100 -10.747   1.629  0.00  0.00    +0.124 A 
ATOM     13  C   UNL     1       1.255  -9.376   1.509  0.00  0.00    +0.040 A 
ATOM     14  C   UNL     1       0.153  -8.571   1.296  0.00  0.00    +0.028 A 
ATOM     15  F   UNL     1       2.179 -11.532   1.837  0.00  0.00    -0.205 F 
ENDBRANCH   6   9
BRANCH   7  16
ATOM     16  C   UNL     1      -3.765  -9.725  -0.305  0.00  0.00    +0.233 C 
ATOM     17  O   UNL     1      -2.890  -9.786  -1.143  0.00  0.00    -0.274 OA
ATOM     18  N   UNL     1      -4.869 -10.488  -0.426  0.00  0.00    -0.328 N 
ATOM     19  H   UNL     1      -4.977 -11.167  -1.285  0.00  0.00    +0.145 HD
ATOM     20  H   UNL     1      -5.662 -10.433   0.334  0.00  0.00    +0.145 HD
ENDBRANCH   7  16
ENDBRANCH   2   4
ENDBRANCH   1   2
BRANCH   1  21
ATOM     21  C   UNL     1      -2.936  -2.766   0.334  0.00  0.00    +0.328 C 
BRANCH  21  28
ATOM     22  C   UNL     1       0.750   2.042   0.280  0.00  0.00    +0.080 A 
ATOM     23  C   UNL     1       1.853   1.262   0.492  0.00  0.00    +0.076 A 
ATOM     24  S   UNL     1       1.101  -0.359   0.569  0.00  0.00    -0.060 S 
ATOM     25  C   UNL     1      -0.588   0.166   0.313  0.00  0.00    +0.165 A 
ATOM     26  N   UNL     1      -0.443   1.472   0.196  0.00  0.00    -0.225 NA
ATOM     27  N   UNL     1      -1.747  -0.599   0.253  0.00  0.00    -0.262 N 
ATOM     28  C   UNL     1      -1.680  -1.937   0.399  0.00  0.00    +0.256 C 
ATOM     29  O   UNL     1      -0.608  -2.474   0.582  0.00  0.00    -0.272 OA
ATOM     30  H   UNL     1      -2.719  -0.112   0.087  0.00  0.00    +0.157 HD
BRANCH  22  36
ATOM     31  C   UNL     1       2.601   6.377   1.927  0.00  0.00    +0.044 C 
ATOM     32  C   UNL     1       1.777   5.599   0.934  0.00  0.00    -0.050 A 
ATOM     33  C   UNL     1       1.147   6.258  -0.107  0.00  0.00    +0.003 A 
ATOM     34  C   UNL     1       0.389   5.550  -1.023  0.00  0.00    +0.004 A 
ATOM     35  C   UNL     1       0.257   4.181  -0.902  0.00  0.00    -0.041 A 
ATOM     36  C   UNL     1       0.889   3.513   0.144  0.00  0.00    +0.004 A 
ATOM     37  C   UNL     1       1.647   4.232   1.067  0.00  0.00    +0.013 A 
ATOM     38  C   UNL     1      -0.570   3.412  -1.900  0.00  0.00    +0.044 C 
ENDBRANCH  22  36
ENDBRANCH  21  28
ENDBRANCH   1  21
TORSDOF 7
