REMARK  Name = ZINC38573432
REMARK  8 active torsions:
REMARK  status: ('A' for Active; 'I' for Inactive)
REMARK    1  A    between atoms: C_1  and  C_2
REMARK    2  A    between atoms: C_5  and  O_36
REMARK    3  A    between atoms: C_6  and  C_8
REMARK    4  A    between atoms: C_11  and  C_13
REMARK    5  A    between atoms: N_15  and  C_16
REMARK    6  A    between atoms: C_18  and  C_27
REMARK    7  A    between atoms: N_29  and  C_30
REMARK    8  A    between atoms: C_30  and  C_31
REMARK                            x       y       z     vdW  Elec       q    Type
REMARK                         _______ _______ _______ _____ _____    ______ ____
ROOT
ATOM      1  C   UNL     1       0.103  -4.961   8.208  0.00  0.00    +0.167 C 
ATOM      2  C   UNL     1      -0.813  -6.074   8.681  0.00  0.00    +0.045 C 
ATOM      3  C   UNL     1      -0.367  -6.925   9.569  0.00  0.00    -0.046 C 
ATOM      4  C   UNL     1      -1.118  -8.162  10.061  0.00  0.00    +0.032 C 
ATOM      5  C   UNL     1      -0.354  -8.676  11.285  0.00  0.00    +0.004 C 
ATOM      6  C   UNL     1       1.078  -9.060  10.942  0.00  0.00    +0.002 C 
ATOM      7  C   UNL     1       1.746  -8.076   9.984  0.00  0.00    +0.018 C 
ATOM      8  C   UNL     1       1.060  -6.712  10.094  0.00  0.00    +0.075 C 
ATOM      9  S   UNL     1       1.735  -5.563   8.827  0.00  0.00    -0.126 S 
ENDROOT
BRANCH   1  12
ATOM     10  C   UNL     1       0.075  -3.645   6.157  0.00  0.00    +0.261 C 
ATOM     11  O   UNL     1       0.058  -2.637   6.838  0.00  0.00    -0.269 OA
ATOM     12  N   UNL     1       0.098  -4.857   6.747  0.00  0.00    -0.294 N 
ATOM     13  H   UNL     1       0.112  -5.660   6.203  0.00  0.00    +0.150 HD
BRANCH  10  17
ATOM     14  C   UNL     1       0.052  -2.840   2.447  0.00  0.00    +0.080 C 
ATOM     15  N   UNL     1       0.076  -4.144   2.609  0.00  0.00    -0.153 NA
ATOM     16  N   UNL     1       0.086  -4.520   3.827  0.00  0.00    -0.148 NA
ATOM     17  C   UNL     1       0.070  -3.542   4.695  0.00  0.00    +0.131 C 
ATOM     18  C   UNL     1       0.052  -2.273   3.857  0.00  0.00    +0.120 C 
BRANCH  14  24
ATOM     19  C   UNL     1      -0.018   1.503   0.010  0.00  0.00    +0.044 C 
ATOM     20  C   UNL     1       0.002  -0.004   0.002  0.00  0.00    -0.050 A 
ATOM     21  C   UNL     1       0.006  -0.687  -1.205  0.00  0.00    +0.007 A 
ATOM     22  C   UNL     1       0.024  -2.068  -1.229  0.00  0.00    +0.046 A 
ATOM     23  C   UNL     1       0.040  -2.784  -0.042  0.00  0.00    +0.126 A 
ATOM     24  C   UNL     1       0.036  -2.097   1.185  0.00  0.00    +0.040 A 
ATOM     25  C   UNL     1       0.023  -0.695   1.192  0.00  0.00    +0.016 A 
BRANCH  23  26
ATOM     26  O   UNL     1       0.057  -4.140  -0.064  0.00  0.00    -0.506 OA
ATOM     27  H   UNL     1       0.945  -4.522  -0.075  0.00  0.00    +0.292 HD
ENDBRANCH  23  26
ENDBRANCH  14  24
ENDBRANCH  10  17
ENDBRANCH   1  12
BRANCH   2  28
ATOM     28  C   UNL     1      -2.180  -6.195   8.149  0.00  0.00    +0.243 C 
ATOM     29  O   UNL     1      -2.905  -7.091   8.535  0.00  0.00    -0.270 OA
ATOM     30  N   UNL     1      -2.627  -5.313   7.234  0.00  0.00    -0.304 N 
ATOM     31  H   UNL     1      -2.048  -4.598   6.926  0.00  0.00    +0.149 HD
BRANCH  30  32
ATOM     32  C   UNL     1      -3.988  -5.433   6.705  0.00  0.00    +0.179 C 
BRANCH  32  33
ATOM     33  C   UNL     1      -4.237  -4.333   5.705  0.00  0.00    +0.122 A 
ATOM     34  C   UNL     1      -4.004  -4.404   4.383  0.00  0.00    +0.046 A 
ATOM     35  C   UNL     1      -4.379  -3.156   3.833  0.00  0.00    +0.041 A 
ATOM     36  C   UNL     1      -4.818  -2.397   4.853  0.00  0.00    +0.195 A 
ATOM     37  O   UNL     1      -4.736  -3.117   5.984  0.00  0.00    -0.466 OA
ENDBRANCH  32  33
ENDBRANCH  30  32
ENDBRANCH   2  28
TORSDOF 7
