REMARK  Name = ZINC42015373
REMARK  5 active torsions:
REMARK  status: ('A' for Active; 'I' for Inactive)
REMARK    1  A    between atoms: C_1  and  C_2
REMARK    2  A    between atoms: C_5  and  C_9
REMARK    3  A    between atoms: C_7  and  N_8
REMARK    4  A    between atoms: N_13  and  C_14
REMARK    5  A    between atoms: C_19  and  C_20
REMARK                            x       y       z     vdW  Elec       q    Type
REMARK                         _______ _______ _______ _____ _____    ______ ____
ROOT
ATOM      1  C   UNL     1      -0.546  -3.842  -0.209  0.00  0.00    +0.187 A 
ATOM      2  N   UNL     1      -0.767  -4.502   0.909  0.00  0.00    -0.108 NA
ATOM      3  N   UNL     1      -0.445  -5.738   0.774  0.00  0.00    -0.022 NA
ATOM      4  N   UNL     1      -0.002  -5.963  -0.415  0.00  0.00    -0.039 NA
ATOM      5  N   UNL     1      -0.054  -4.741  -1.109  0.00  0.00    -0.192 N 
ENDROOT
BRANCH   5   6
ATOM      6  C   UNL     1       0.323  -4.498  -2.437  0.00  0.00    +0.072 A 
ATOM      7  C   UNL     1       1.300  -3.553  -2.722  0.00  0.00    +0.029 A 
ATOM      8  C   UNL     1       1.669  -3.316  -4.031  0.00  0.00    +0.017 A 
ATOM      9  C   UNL     1       1.065  -4.019  -5.059  0.00  0.00    +0.018 A 
ATOM     10  C   UNL     1       0.092  -4.961  -4.778  0.00  0.00    +0.020 A 
ATOM     11  C   UNL     1      -0.277  -5.206  -3.470  0.00  0.00    -0.024 A 
ATOM     12  C   UNL     1      -1.333  -6.237  -3.164  0.00  0.00    +0.046 C 
ATOM     13 BR   UNL     1       1.573  -3.691  -6.851  0.00  0.00    -0.050 Br
ENDBRANCH   5   6
BRANCH   1  18
ATOM     14  C   UNL     1      -1.504   1.761  -1.145  0.00  0.00    +0.045 C 
ATOM     15  C   UNL     1      -1.253   0.295  -0.898  0.00  0.00    -0.030 A 
ATOM     16  C   UNL     1      -1.134  -0.573  -1.967  0.00  0.00    +0.006 A 
ATOM     17  C   UNL     1      -0.904  -1.916  -1.749  0.00  0.00    +0.012 A 
ATOM     18  C   UNL     1      -0.791  -2.402  -0.445  0.00  0.00    +0.023 A 
ATOM     19  C   UNL     1      -0.911  -1.527   0.633  0.00  0.00    +0.034 A 
ATOM     20  C   UNL     1      -1.136  -0.178   0.404  0.00  0.00    +0.028 A 
BRANCH  20  21
ATOM     21  N   UNL     1      -1.251   0.704   1.481  0.00  0.00    -0.358 N 
ATOM     22  H   UNL     1      -1.413   1.647   1.320  0.00  0.00    +0.142 HD
ATOM     23  H   UNL     1      -1.170   0.374   2.389  0.00  0.00    +0.142 HD
ENDBRANCH  20  21
ENDBRANCH   1  18
TORSDOF 3
