REMARK  Name = ZINC21256885
REMARK  8 active torsions:
REMARK  status: ('A' for Active; 'I' for Inactive)
REMARK    1  A    between atoms: C_1  and  O_2
REMARK    2  A    between atoms: O_2  and  C_3
REMARK    3  A    between atoms: C_5  and  C_13
REMARK    4  A    between atoms: C_7  and  O_11
REMARK    5  A    between atoms: C_8  and  O_9
REMARK    6  A    between atoms: O_9  and  C_10
REMARK    7  A    between atoms: O_11  and  C_12
REMARK    8  A    between atoms: C_18  and  C_28
REMARK                            x       y       z     vdW  Elec       q    Type
REMARK                         _______ _______ _______ _____ _____    ______ ____
ROOT
ATOM      1  C   UNL     1       5.937   2.004  -3.675  0.00  0.00    +0.032 C 
ATOM      2  C   UNL     1       4.832   3.059  -3.668  0.00  0.00    +0.059 C 
ATOM      3  C   UNL     1       4.289   3.227  -2.257  0.00  0.00    +0.017 C 
ATOM      4  C   UNL     1       4.226   2.178  -1.427  0.00  0.00    +0.036 C 
ATOM      5  C   UNL     1       3.671   2.186  -0.021  0.00  0.00    +0.137 C 
ATOM      6  N   UNL     1       3.420   3.510   0.508  0.00  0.00    -0.331 N 
ATOM      7  C   UNL     1       2.464   4.343  -0.065  0.00  0.00    +0.049 A 
ATOM      8  C   UNL     1       1.317   4.706   0.625  0.00  0.00    +0.025 A 
ATOM      9  C   UNL     1       0.368   5.497   0.002  0.00  0.00    +0.002 A 
ATOM     10  C   UNL     1       0.558   5.924  -1.300  0.00  0.00    +0.002 A 
ATOM     11  C   UNL     1       1.710   5.579  -1.986  0.00  0.00    +0.025 A 
ATOM     12  C   UNL     1       2.668   4.806  -1.356  0.00  0.00    +0.052 A 
ATOM     13  N   UNL     1       3.882   4.488  -1.958  0.00  0.00    -0.316 N 
ATOM     14  C   UNL     1       4.716   0.912  -1.836  0.00  0.00    +0.163 C 
ATOM     15  O   UNL     1       4.638  -0.024  -1.065  0.00  0.00    -0.292 OA
ATOM     16  C   UNL     1       5.326   0.685  -3.186  0.00  0.00    +0.088 C 
ATOM     17  H   UNL     1       3.989   3.871   1.378  0.00  0.00    +0.147 HD
ATOM     18  H   UNL     1       4.530   5.345  -2.192  0.00  0.00    +0.152 HD
ENDROOT
BRANCH   5  19
ATOM     19  C   UNL     1       2.378   1.413  -0.013  0.00  0.00    -0.003 A 
ATOM     20  C   UNL     1       1.675   1.229  -1.189  0.00  0.00    +0.007 A 
ATOM     21  C   UNL     1       0.488   0.520  -1.183  0.00  0.00    +0.002 A 
ATOM     22  C   UNL     1       0.003  -0.005   0.000  0.00  0.00    +0.021 A 
ATOM     23  C   UNL     1       0.705   0.178   1.178  0.00  0.00    +0.060 A 
ATOM     24  C   UNL     1       1.893   0.888   1.171  0.00  0.00    +0.064 A 
ATOM     25 CL   UNL     1       2.775   1.119   2.649  0.00  0.00    -0.082 Cl
ATOM     26 CL   UNL     1       0.095  -0.481   2.664  0.00  0.00    -0.082 Cl
ENDBRANCH   5  19
BRANCH   1  29
ATOM     27  C   UNL     1       8.300   1.923  -6.624  0.00  0.00    +0.165 A 
ATOM     28  C   UNL     1       7.805   2.078  -5.338  0.00  0.00    +0.053 A 
ATOM     29  C   UNL     1       6.470   1.833  -5.074  0.00  0.00    -0.036 A 
ATOM     30  C   UNL     1       5.625   1.427  -6.090  0.00  0.00    +0.053 A 
ATOM     31  C   UNL     1       6.110   1.274  -7.380  0.00  0.00    +0.165 A 
ATOM     32  C   UNL     1       7.452   1.520  -7.649  0.00  0.00    +0.204 A 
BRANCH  27  34
ATOM     33  C   UNL     1      10.425   2.576  -5.782  0.00  0.00    +0.277 C 
ATOM     34  O   UNL     1       9.613   2.165  -6.883  0.00  0.00    -0.491 OA
ENDBRANCH  27  34
BRANCH  32  35
ATOM     35  O   UNL     1       7.933   1.366  -8.912  0.00  0.00    -0.488 OA
ATOM     36  C   UNL     1       8.437   0.076  -9.262  0.00  0.00    +0.277 C 
ENDBRANCH  32  35
BRANCH  31  37
ATOM     37  O   UNL     1       5.277   0.879  -8.379  0.00  0.00    -0.491 OA
ATOM     38  C   UNL     1       3.911   0.645  -8.030  0.00  0.00    +0.277 C 
ENDBRANCH  31  37
ENDBRANCH   1  29
TORSDOF 5
