REMARK  Name = ZINC63139520
REMARK  8 active torsions:
REMARK  status: ('A' for Active; 'I' for Inactive)
REMARK    1  A    between atoms: C_1  and  O_2
REMARK    2  A    between atoms: O_2  and  C_3
REMARK    3  A    between atoms: C_3  and  C_5
REMARK    4  A    between atoms: C_8  and  C_11
REMARK    5  A    between atoms: N_30  and  C_33
REMARK    6  A    between atoms: C_33  and  C_34
REMARK    7  A    between atoms: C_34  and  C_36
REMARK    8  A    between atoms: C_34  and  O_42
REMARK                            x       y       z     vdW  Elec       q    Type
REMARK                         _______ _______ _______ _____ _____    ______ ____
ROOT
ATOM      1  C   UNL     1       0.827  -6.343  -1.340  0.00  0.00    +0.133 C 
ATOM      2  C   UNL     1       2.196  -6.813  -0.849  0.00  0.00    +0.131 C 
ATOM      3  C   UNL     1       2.318  -8.271  -1.287  0.00  0.00    -0.034 C 
ATOM      4  C   UNL     1       2.452  -8.991  -0.182  0.00  0.00    -0.001 A 
ATOM      5  C   UNL     1       2.637 -10.437   0.029  0.00  0.00    +0.010 A 
ATOM      6  C   UNL     1       2.737 -10.847   1.321  0.00  0.00    +0.001 A 
ATOM      7  C   UNL     1       2.672  -9.974   2.412  0.00  0.00    +0.002 A 
ATOM      8  C   UNL     1       2.506  -8.631   2.311  0.00  0.00    +0.026 A 
ATOM      9  C   UNL     1       2.390  -8.080   1.001  0.00  0.00    +0.043 A 
ATOM     10  N   UNL     1       2.238  -6.828   0.619  0.00  0.00    -0.375 N 
ATOM     11  C   UNL     1       2.250  -8.657  -2.739  0.00  0.00    +0.065 C 
ATOM     12  C   UNL     1       1.176  -7.858  -3.430  0.00  0.00    +0.167 C 
ATOM     13  N   UNL     1       0.570  -6.758  -2.712  0.00  0.00    -0.279 N 
ATOM     14  C   UNL     1      -0.393  -6.064  -3.403  0.00  0.00    +0.234 C 
ATOM     15  O   UNL     1      -0.926  -5.081  -2.935  0.00  0.00    -0.274 OA
ATOM     16  C   UNL     1      -0.755  -6.583  -4.778  0.00  0.00    +0.203 C 
ATOM     17  N   UNL     1      -0.885  -8.050  -4.705  0.00  0.00    -0.288 N 
ATOM     18  C   UNL     1       0.099  -8.721  -4.039  0.00  0.00    +0.237 C 
ATOM     19  O   UNL     1       0.110  -9.930  -3.946  0.00  0.00    -0.274 OA
ATOM     20  H   UNL     1       2.164  -6.051   1.195  0.00  0.00    +0.160 HD
ENDROOT
BRANCH   1  24
ATOM     21  C   UNL     1       0.658  -2.076  -1.122  0.00  0.00    +0.059 A 
ATOM     22  C   UNL     1       0.089  -2.853  -0.111  0.00  0.00    +0.015 A 
ATOM     23  C   UNL     1       0.147  -4.229  -0.188  0.00  0.00    +0.006 A 
ATOM     24  C   UNL     1       0.767  -4.840  -1.263  0.00  0.00    -0.025 A 
ATOM     25  C   UNL     1       1.334  -4.076  -2.268  0.00  0.00    +0.006 A 
ATOM     26  C   UNL     1       1.278  -2.699  -2.207  0.00  0.00    +0.015 A 
BRANCH  21  27
ATOM     27  C   UNL     1       0.601  -0.602  -1.046  0.00  0.00    +0.339 C 
ATOM     28  O   UNL     1       1.092   0.071  -1.930  0.00  0.00    -0.245 OA
BRANCH  27  30
ATOM     29  C   UNL     1      -0.017   1.425   0.010  0.00  0.00    +0.280 C 
ATOM     30  O   UNL     1       0.002  -0.004   0.002  0.00  0.00    -0.464 OA
ENDBRANCH  27  30
ENDBRANCH  21  27
ENDBRANCH   1  24
BRANCH  17  31
ATOM     31  C   UNL     1      -2.017  -8.754  -5.314  0.00  0.00    +0.144 C 
BRANCH  31  32
ATOM     32  C   UNL     1      -1.669  -9.126  -6.756  0.00  0.00    +0.162 C 
BRANCH  32  33
ATOM     33  C   UNL     1      -2.832  -9.850  -7.383  0.00  0.00    -0.018 A 
ATOM     34  C   UNL     1      -3.862  -9.132  -7.963  0.00  0.00    +0.006 A 
ATOM     35  C   UNL     1      -4.929  -9.796  -8.537  0.00  0.00    +0.000 A 
ATOM     36  C   UNL     1      -4.967 -11.178  -8.533  0.00  0.00    +0.000 A 
ATOM     37  C   UNL     1      -3.937 -11.896  -7.955  0.00  0.00    +0.000 A 
ATOM     38  C   UNL     1      -2.868 -11.232  -7.384  0.00  0.00    +0.006 A 
ENDBRANCH  32  33
BRANCH  32  39
ATOM     39  O   UNL     1      -1.389  -7.939  -7.501  0.00  0.00    -0.386 OA
ATOM     40  H   UNL     1      -2.127  -7.315  -7.537  0.00  0.00    +0.210 HD
ENDBRANCH  32  39
ENDBRANCH  31  32
ENDBRANCH  17  31
TORSDOF 7
