REMARK  Name = ZINC03344494
REMARK  8 active torsions:
REMARK  status: ('A' for Active; 'I' for Inactive)
REMARK    1  A    between atoms: C_1  and  C_2
REMARK    2  A    between atoms: C_3  and  C_35
REMARK    3  A    between atoms: C_11  and  C_13
REMARK    4  A    between atoms: C_13  and  S_14
REMARK    5  A    between atoms: S_14  and  C_15
REMARK    6  A    between atoms: C_17  and  C_30
REMARK    7  A    between atoms: C_22  and  C_24
REMARK    8  A    between atoms: C_24  and  N_58
REMARK                            x       y       z     vdW  Elec       q    Type
REMARK                         _______ _______ _______ _____ _____    ______ ____
ROOT
ATOM      1  C   UNL     1       1.391   3.869   0.351  0.00  0.00    +0.110 A 
ATOM      2  C   UNL     1       2.456   4.792   0.170  0.00  0.00    +0.048 A 
ATOM      3  C   UNL     1       3.883   4.542  -0.010  0.00  0.00    +0.008 A 
ATOM      4  C   UNL     1       4.715   5.601  -0.166  0.00  0.00    +0.057 A 
ATOM      5  S   UNL     1       3.621   7.005  -0.079  0.00  0.00    -0.076 S 
ATOM      6  C   UNL     1       2.085   6.152   0.162  0.00  0.00    +0.113 A 
ATOM      7  N   UNL     1       0.828   6.522   0.315  0.00  0.00    -0.227 NA
ATOM      8  C   UNL     1      -0.119   5.619   0.480  0.00  0.00    +0.115 A 
ATOM      9  N   UNL     1       0.156   4.328   0.492  0.00  0.00    -0.227 NA
ENDROOT
BRANCH   3  10
ATOM     10  C   UNL     1       4.411   3.162  -0.022  0.00  0.00    +0.021 A 
ATOM     11  C   UNL     1       4.073   2.116  -0.839  0.00  0.00    +0.016 A 
ATOM     12  C   UNL     1       4.708   0.904  -0.661  0.00  0.00    +0.008 A 
ATOM     13  C   UNL     1       5.644   0.786   0.314  0.00  0.00    +0.046 A 
ATOM     14  S   UNL     1       5.660   2.425   1.020  0.00  0.00    -0.097 S 
ENDBRANCH   3  10
BRANCH   1  15
ATOM     15  S   UNL     1       1.707   2.136   0.382  0.00  0.00    -0.097 S 
BRANCH  15  16
ATOM     16  C   UNL     1       0.026   1.514   0.633  0.00  0.00    +0.150 C 
BRANCH  16  27
ATOM     17  C   UNL     1      -0.811  -5.126   1.026  0.00  0.00    +0.045 C 
ATOM     18  C   UNL     1       0.336  -4.168   0.831  0.00  0.00    -0.026 A 
ATOM     19  C   UNL     1       1.588  -4.628   0.683  0.00  0.00    -0.008 A 
ATOM     20  S   UNL     1       2.554  -3.141   0.491  0.00  0.00    -0.073 S 
ATOM     21  C   UNL     1       1.248  -1.947   0.616  0.00  0.00    +0.116 A 
ATOM     22  C   UNL     1       0.099  -2.736   0.803  0.00  0.00    +0.075 A 
ATOM     23  C   UNL     1      -1.132  -2.015   0.937  0.00  0.00    +0.260 A 
ATOM     24  O   UNL     1      -2.183  -2.611   1.102  0.00  0.00    -0.267 OA
ATOM     25  N   UNL     1      -1.109  -0.671   0.883  0.00  0.00    -0.310 N 
ATOM     26  H   UNL     1      -1.964  -0.162   0.985  0.00  0.00    +0.170 HD
ATOM     27  C   UNL     1       0.051   0.009   0.693  0.00  0.00    +0.121 A 
ATOM     28  N   UNL     1       1.189  -0.619   0.568  0.00  0.00    -0.226 NA
ATOM     29  C   UNL     1       2.064  -6.058   0.680  0.00  0.00    +0.052 C 
ENDBRANCH  16  27
ENDBRANCH  15  16
ENDBRANCH   1  15
BRANCH   8  30
ATOM     30  C   UNL     1      -1.546   6.071   0.652  0.00  0.00    -0.001 C 
BRANCH  30  36
ATOM     31  C   UNL     1      -1.592   7.227  -1.476  0.00  0.00    -0.050 C 
ATOM     32  C   UNL     1      -2.254   7.246  -2.856  0.00  0.00    +0.141 C 
ATOM     33  O   UNL     1      -3.665   7.415  -2.700  0.00  0.00    -0.383 OA
ATOM     34  C   UNL     1      -4.284   6.393  -1.915  0.00  0.00    +0.141 C 
ATOM     35  C   UNL     1      -3.643   6.365  -0.525  0.00  0.00    -0.050 C 
ATOM     36  N   UNL     1      -2.191   6.137  -0.678  0.00  0.00    +0.387 N 
ATOM     37  H   UNL     1      -2.042   5.245  -1.165  0.00  0.00    -0.081 HD
ENDBRANCH  30  36
ENDBRANCH   8  30
TORSDOF 6
