REMARK  Name = ZINC32651567
REMARK  6 active torsions:
REMARK  status: ('A' for Active; 'I' for Inactive)
REMARK    1  A    between atoms: C_1  and  C_2
REMARK    2  A    between atoms: N_7  and  C_23
REMARK    3  A    between atoms: N_10  and  C_11
REMARK    4  A    between atoms: C_11  and  C_12
REMARK    5  A    between atoms: C_12  and  C_13
REMARK    6  A    between atoms: N_24  and  C_26
REMARK                            x       y       z     vdW  Elec       q    Type
REMARK                         _______ _______ _______ _____ _____    ______ ____
ROOT
ATOM      1  C   UNL     1       6.709   2.339  -0.050  0.00  0.00    +0.070 C 
ATOM      2  C   UNL     1       6.240   3.771  -0.038  0.00  0.00    +0.086 A 
ATOM      3  C   UNL     1       4.898   4.194  -0.023  0.00  0.00    +0.120 A 
ATOM      4  C   UNL     1       4.910   5.594  -0.016  0.00  0.00    +0.152 A 
ATOM      5  C   UNL     1       3.678   6.285  -0.000  0.00  0.00    +0.281 A 
ATOM      6  O   UNL     1       3.647   7.503   0.006  0.00  0.00    -0.265 OA
ATOM      7  N   UNL     1       2.535   5.564   0.002  0.00  0.00    -0.282 N 
ATOM      8  C   UNL     1       2.578   4.200   0.000  0.00  0.00    +0.199 A 
ATOM      9  N   UNL     1       3.710   3.541  -0.014  0.00  0.00    -0.212 NA
ATOM     10  N   UNL     1       1.397   3.497   0.007  0.00  0.00    -0.314 N 
ATOM     11  C   UNL     1       1.242   6.252   0.013  0.00  0.00    +0.155 C 
ATOM     12  N   UNL     1       6.223   5.981  -0.026  0.00  0.00    -0.260 N 
ATOM     13  N   UNL     1       7.013   4.824  -0.040  0.00  0.00    -0.174 NA
ATOM     14  C   UNL     1       6.715   7.361  -0.025  0.00  0.00    +0.173 C 
ATOM     15  H   UNL     1       0.437   4.034   0.020  0.00  0.00    +0.149 HD
ENDROOT
BRANCH  10  16
ATOM     16  C   UNL     1       1.417   2.032  -0.001  0.00  0.00    +0.109 C 
BRANCH  16  17
ATOM     17  C   UNL     1      -0.018   1.503   0.010  0.00  0.00    +0.056 C 
BRANCH  17  18
ATOM     18  C   UNL     1       0.002  -0.004   0.002  0.00  0.00    -0.021 A 
ATOM     19  C   UNL     1      -0.097  -0.798  -1.076  0.00  0.00    +0.087 A 
ATOM     20  N   UNL     1      -0.037  -2.111  -0.695  0.00  0.00    -0.360 N 
ATOM     21  H   UNL     1      -0.097  -2.906  -1.453  0.00  0.00    +0.165 HD
ATOM     22  C   UNL     1       0.097  -2.196   0.672  0.00  0.00    +0.047 A 
ATOM     23  C   UNL     1       0.128  -0.880   1.169  0.00  0.00    +0.003 A 
ATOM     24  C   UNL     1       0.259  -0.656   2.541  0.00  0.00    +0.010 A 
ATOM     25  C   UNL     1       0.357  -1.718   3.395  0.00  0.00    +0.001 A 
ATOM     26  C   UNL     1       0.327  -3.018   2.910  0.00  0.00    +0.002 A 
ATOM     27  C   UNL     1       0.199  -3.262   1.560  0.00  0.00    +0.026 A 
ENDBRANCH  17  18
ENDBRANCH  16  17
ENDBRANCH  10  16
TORSDOF 3
