REMARK  Name = ZINC66104520
REMARK  4 active torsions:
REMARK  status: ('A' for Active; 'I' for Inactive)
REMARK    1  A    between atoms: C_6  and  S_7
REMARK    2  A    between atoms: S_7  and  N_10
REMARK    3  A    between atoms: C_13  and  N_16
REMARK    4  A    between atoms: C_17  and  C_19
REMARK                            x       y       z     vdW  Elec       q    Type
REMARK                         _______ _______ _______ _____ _____    ______ ____
ROOT
ATOM      1  S   UNL     1      -1.513  -0.904   0.012  0.00  0.00    +0.061 S 
ATOM      2  O   UNL     1      -1.221  -2.185   0.553  0.00  0.00    -0.153 OA
ATOM      3  O   UNL     1      -2.492  -0.043   0.577  0.00  0.00    -0.153 OA
ENDROOT
BRANCH   1   9
ATOM      4  C   UNL     1      -0.017   1.378   0.010  0.00  0.00    +0.030 A 
ATOM      5  C   UNL     1       1.169   2.087   0.002  0.00  0.00    +0.025 A 
ATOM      6  C   UNL     1       2.380   1.409  -0.013  0.00  0.00    +0.037 A 
ATOM      7  C   UNL     1       2.396   0.020  -0.020  0.00  0.00    -0.024 A 
ATOM      8  C   UNL     1       1.208  -0.682  -0.013  0.00  0.00    +0.034 A 
ATOM      9  C   UNL     1       0.002  -0.004   0.002  0.00  0.00    +0.106 A 
ATOM     10  C   UNL     1       3.711  -0.715  -0.036  0.00  0.00    +0.046 C 
ATOM     11  C   UNL     1       4.733   0.084  -0.846  0.00  0.00    +0.101 C 
ATOM     12  C   UNL     1       4.727   1.522  -0.402  0.00  0.00    +0.218 C 
ATOM     13  O   UNL     1       5.766   2.148  -0.389  0.00  0.00    -0.275 OA
ATOM     14  N   UNL     1       3.584   2.120  -0.020  0.00  0.00    -0.285 N 
ATOM     15  H   UNL     1       3.595   3.051   0.251  0.00  0.00    +0.155 HD
ENDBRANCH   1   9
BRANCH   1  16
ATOM     16  N   UNL     1      -1.949  -1.145  -1.567  0.00  0.00    -0.176 NA
ATOM     17  C   UNL     1      -2.787  -0.165  -2.270  0.00  0.00    +0.111 C 
ATOM     18  C   UNL     1      -4.000  -0.888  -2.865  0.00  0.00    +0.039 C 
ATOM     19  C   UNL     1      -3.518  -2.047  -3.741  0.00  0.00    +0.075 C 
ATOM     20  C   UNL     1      -2.733  -3.043  -2.886  0.00  0.00    +0.039 C 
ATOM     21  C   UNL     1      -1.501  -2.341  -2.293  0.00  0.00    +0.111 C 
BRANCH  19  22
ATOM     22  N   UNL     1      -4.674  -2.720  -4.338  0.00  0.00    -0.312 N 
ATOM     23  C   UNL     1      -4.534  -3.404  -5.491  0.00  0.00    +0.216 C 
ATOM     24  O   UNL     1      -3.451  -3.462  -6.034  0.00  0.00    -0.276 OA
ATOM     25  H   UNL     1      -5.540  -2.674  -3.903  0.00  0.00    +0.149 HD
BRANCH  23  26
ATOM     26  C   UNL     1      -5.723  -4.097  -6.105  0.00  0.00    +0.075 C 
ATOM     27  C   UNL     1      -6.616  -3.165  -6.940  0.00  0.00    +0.013 C 
ATOM     28  C   UNL     1      -5.724  -3.516  -8.142  0.00  0.00    +0.001 C 
ATOM     29  C   UNL     1      -5.399  -4.832  -7.416  0.00  0.00    +0.013 C 
ENDBRANCH  23  26
ENDBRANCH  19  22
ENDBRANCH   1  16
TORSDOF 4
