REMARK  Name = ZINC06896812
REMARK  3 active torsions:
REMARK  status: ('A' for Active; 'I' for Inactive)
REMARK    1  A    between atoms: C_4  and  N_7
REMARK    2  A    between atoms: C_9  and  C_14
REMARK    3  A    between atoms: C_18  and  N_20
REMARK                            x       y       z     vdW  Elec       q    Type
REMARK                         _______ _______ _______ _____ _____    ______ ____
ROOT
ATOM      1  N   UNL     1       3.616  -0.643  -0.036  0.00  0.00    -0.295 N 
ATOM      2  C   UNL     1       3.764  -1.960   0.044  0.00  0.00    +0.120 A 
ATOM      3  C   UNL     1       5.216  -2.214  -0.013  0.00  0.00    +0.065 A 
ATOM      4  N   UNL     1       5.796  -0.998  -0.123  0.00  0.00    -0.333 N 
ATOM      5  H   UNL     1       6.749  -0.826  -0.183  0.00  0.00    +0.168 HD
ATOM      6  C   UNL     1       4.825  -0.068  -0.141  0.00  0.00    +0.163 A 
ATOM      7  S   UNL     1       5.093   1.618  -0.275  0.00  0.00    -0.013 S 
ENDROOT
BRANCH   1  11
ATOM      8  C   UNL     1      -0.017   1.379   0.010  0.00  0.00    +0.000 A 
ATOM      9  C   UNL     1       0.753   1.372  -1.140  0.00  0.00    +0.002 A 
ATOM     10  C   UNL     1       1.960   0.703  -1.160  0.00  0.00    +0.026 A 
ATOM     11  C   UNL     1       2.402   0.033  -0.021  0.00  0.00    +0.048 A 
ATOM     12  C   UNL     1       1.623   0.044   1.134  0.00  0.00    +0.026 A 
ATOM     13  C   UNL     1       0.418   0.716   1.145  0.00  0.00    +0.002 A 
ENDBRANCH   1  11
BRANCH   3  14
ATOM     14  C   UNL     1       5.888  -3.511   0.040  0.00  0.00    +0.002 A 
ATOM     15  C   UNL     1       5.134  -4.696   0.152  0.00  0.00    +0.010 A 
ATOM     16  C   UNL     1       5.773  -5.903   0.200  0.00  0.00    +0.003 A 
ATOM     17  C   UNL     1       7.158  -5.964   0.140  0.00  0.00    +0.033 A 
ATOM     18  C   UNL     1       7.910  -4.803   0.030  0.00  0.00    +0.127 A 
ATOM     19  C   UNL     1       7.292  -3.586  -0.026  0.00  0.00    +0.042 A 
BRANCH  18  20
ATOM     20  N   UNL     1       9.386  -4.884  -0.033  0.00  0.00    +0.056 N 
ATOM     21  O   UNL     1       9.984  -6.056   0.016  0.00  0.00    -0.126 OA
ATOM     22  O   UNL     1      10.102  -3.784  -0.137  0.00  0.00    -0.126 OA
ENDBRANCH  18  20
ENDBRANCH   3  14
TORSDOF 3
