REMARK  Name = ZINC03522038
REMARK  10 active torsions:
REMARK  status: ('A' for Active; 'I' for Inactive)
REMARK    1  A    between atoms: C_1  and  C_2
REMARK    2  A    between atoms: C_2  and  C_4
REMARK    3  A    between atoms: C_2  and  S_17
REMARK    4  A    between atoms: N_6  and  C_7
REMARK    5  A    between atoms: C_10  and  S_13
REMARK    6  A    between atoms: S_13  and  N_16
REMARK    7  A    between atoms: S_17  and  C_18
REMARK    8  A    between atoms: C_21  and  C_30
REMARK    9  A    between atoms: N_22  and  C_23
REMARK   10  A    between atoms: C_23  and  C_24
REMARK                            x       y       z     vdW  Elec       q    Type
REMARK                         _______ _______ _______ _____ _____    ______ ____
ROOT
ATOM      1  C   UNL     1      -6.427   2.431   3.508  0.00  0.00    +0.029 C 
ATOM      2  C   UNL     1      -5.318   3.456   3.264  0.00  0.00    +0.137 C 
ENDROOT
BRANCH   2   3
ATOM      3  C   UNL     1      -5.923   4.831   3.145  0.00  0.00    +0.230 C 
ATOM      4  O   UNL     1      -6.185   5.285   2.051  0.00  0.00    -0.274 OA
ATOM      5  N   UNL     1      -6.172   5.557   4.253  0.00  0.00    -0.285 N 
ATOM      6  H   UNL     1      -6.026   5.169   5.130  0.00  0.00    +0.155 HD
BRANCH   5   7
ATOM      7  C   UNL     1      -6.643   6.869   4.139  0.00  0.00    +0.034 A 
ATOM      8  C   UNL     1      -6.250   7.832   5.059  0.00  0.00    +0.025 A 
ATOM      9  C   UNL     1      -6.711   9.128   4.940  0.00  0.00    +0.030 A 
ATOM     10  C   UNL     1      -7.573   9.465   3.912  0.00  0.00    +0.105 A 
ATOM     11  C   UNL     1      -7.971   8.508   2.998  0.00  0.00    +0.030 A 
ATOM     12  C   UNL     1      -7.508   7.211   3.108  0.00  0.00    +0.025 A 
BRANCH  10  13
ATOM     13  S   UNL     1      -8.166  11.118   3.768  0.00  0.00    +0.056 S 
ATOM     14  O   UNL     1      -7.217  11.948   4.425  0.00  0.00    -0.153 OA
ATOM     15  O   UNL     1      -8.526  11.303   2.406  0.00  0.00    -0.153 OA
BRANCH  13  16
ATOM     16  N   UNL     1      -9.567  11.215   4.646  0.00  0.00    -0.204 NA
ATOM     17  H   UNL     1      -9.901  10.433   5.113  0.00  0.00    +0.144 HD
ATOM     18  H   UNL     1     -10.053  12.053   4.693  0.00  0.00    +0.144 HD
ENDBRANCH  13  16
ENDBRANCH  10  13
ENDBRANCH   5   7
ENDBRANCH   2   3
BRANCH   2  19
ATOM     19  S   UNL     1      -4.444   3.046   1.734  0.00  0.00    -0.073 S 
BRANCH  19  20
ATOM     20  C   UNL     1      -3.729   1.503   2.193  0.00  0.00    +0.193 A 
ATOM     21  N   UNL     1      -3.857   0.900   3.353  0.00  0.00    -0.122 NA
ATOM     22  N   UNL     1      -3.206  -0.208   3.351  0.00  0.00    -0.128 NA
ATOM     23  C   UNL     1      -2.626  -0.385   2.184  0.00  0.00    +0.172 A 
ATOM     24  N   UNL     1      -2.938   0.710   1.409  0.00  0.00    -0.297 N 
BRANCH  23  25
ATOM     25  C   UNL     1      -1.796  -1.533   1.784  0.00  0.00    +0.056 A 
ATOM     26  C   UNL     1      -1.223  -2.501   2.570  0.00  0.00    +0.019 A 
ATOM     27  C   UNL     1      -0.480  -3.489   1.963  0.00  0.00    +0.008 A 
ATOM     28  C   UNL     1      -0.338  -3.477   0.613  0.00  0.00    +0.046 A 
ATOM     29  S   UNL     1      -1.281  -2.033   0.150  0.00  0.00    -0.094 S 
ENDBRANCH  23  25
BRANCH  24  30
ATOM     30  C   UNL     1      -2.517   0.967   0.030  0.00  0.00    +0.161 C 
BRANCH  30  31
ATOM     31  C   UNL     1      -1.218   1.732   0.035  0.00  0.00    -0.028 A 
ATOM     32  C   UNL     1      -0.015   1.050   0.031  0.00  0.00    +0.005 A 
ATOM     33  C   UNL     1       1.176   1.752   0.030  0.00  0.00    +0.000 A 
ATOM     34  C   UNL     1       1.165   3.134   0.040  0.00  0.00    +0.000 A 
ATOM     35  C   UNL     1      -0.038   3.815   0.050  0.00  0.00    +0.000 A 
ATOM     36  C   UNL     1      -1.230   3.114   0.050  0.00  0.00    +0.005 A 
ENDBRANCH  30  31
ENDBRANCH  24  30
ENDBRANCH  19  20
ENDBRANCH   2  19
TORSDOF 9
