REMARK  Name = ZINC54392270
REMARK  8 active torsions:
REMARK  status: ('A' for Active; 'I' for Inactive)
REMARK    1  A    between atoms: C_1  and  C_2
REMARK    2  A    between atoms: C_3  and  N_11
REMARK    3  A    between atoms: C_7  and  N_8
REMARK    4  A    between atoms: C_12  and  C_14
REMARK    5  A    between atoms: C_14  and  C_16
REMARK    6  A    between atoms: C_14  and  N_17
REMARK    7  A    between atoms: C_25  and  N_26
REMARK    8  A    between atoms: C_27  and  C_29
REMARK                            x       y       z     vdW  Elec       q    Type
REMARK                         _______ _______ _______ _____ _____    ______ ____
ROOT
ATOM      1  C   UNL     1      -0.343  -0.122  -4.385  0.00  0.00    +0.017 C 
ATOM      2  C   UNL     1       0.840   0.819  -4.625  0.00  0.00    -0.004 C 
ENDROOT
BRANCH   1   3
ATOM      3  N   UNL     1      -0.464  -1.054  -5.515  0.00  0.00    +0.390 N 
ATOM      4  C   UNL     1      -0.553  -0.294  -6.771  0.00  0.00    -0.073 C 
ATOM      5  C   UNL     1      -0.369  -1.263  -7.940  0.00  0.00    +0.019 C 
ATOM      6  C   UNL     1      -1.302  -2.436  -7.782  0.00  0.00    -0.027 A 
ATOM      7  C   UNL     1      -1.907  -2.715  -6.576  0.00  0.00    -0.059 A 
ATOM      8  C   UNL     1      -2.757  -3.807  -6.468  0.00  0.00    +0.002 A 
ATOM      9  C   UNL     1      -3.002  -4.614  -7.562  0.00  0.00    +0.002 A 
ATOM     10  C   UNL     1      -2.400  -4.337  -8.773  0.00  0.00    +0.023 A 
ATOM     11  C   UNL     1      -1.549  -3.247  -8.886  0.00  0.00    +0.037 A 
ATOM     12  C   UNL     1      -1.678  -1.860  -5.358  0.00  0.00    -0.042 C 
ATOM     13  H   UNL     1       0.343  -1.659  -5.541  0.00  0.00    -0.080 HD
BRANCH  11  14
ATOM     14  N   UNL     1      -0.936  -2.963 -10.111  0.00  0.00    -0.285 N 
ATOM     15  C   UNL     1      -0.727  -3.951 -11.004  0.00  0.00    +0.214 C 
ATOM     16  O   UNL     1      -1.126  -5.072 -10.773  0.00  0.00    -0.276 OA
ATOM     17  C   UNL     1       0.004  -3.661 -12.290  0.00  0.00    +0.109 C 
ATOM     18  H   UNL     1      -0.663  -2.056 -10.318  0.00  0.00    +0.155 HD
ENDBRANCH  11  14
ENDBRANCH   1   3
BRANCH   1  20
ATOM     19  N   UNL     1       0.026  -0.251  -1.943  0.00  0.00    -0.287 N 
ATOM     20  C   UNL     1      -0.116  -0.900  -3.115  0.00  0.00    +0.203 C 
ATOM     21  O   UNL     1      -0.060  -2.112  -3.147  0.00  0.00    -0.277 OA
ATOM     22  H   UNL     1       0.045   0.719  -1.925  0.00  0.00    +0.155 HD
BRANCH  19  25
ATOM     23  C   UNL     1      -1.129   0.845   0.417  0.00  0.00    +0.048 C 
ATOM     24  C   UNL     1      -0.404  -0.477   0.423  0.00  0.00    +0.001 A 
ATOM     25  C   UNL     1       0.145  -0.974  -0.751  0.00  0.00    +0.038 A 
ATOM     26  C   UNL     1       0.812  -2.192  -0.741  0.00  0.00    +0.024 A 
ATOM     27  C   UNL     1       0.927  -2.905   0.437  0.00  0.00    +0.004 A 
ATOM     28  C   UNL     1       0.379  -2.407   1.605  0.00  0.00    +0.033 A 
ATOM     29  C   UNL     1      -0.281  -1.191   1.599  0.00  0.00    +0.131 A 
BRANCH  29  30
ATOM     30  N   UNL     1      -0.860  -0.659   2.852  0.00  0.00    +0.057 N 
ATOM     31  O   UNL     1      -1.008   0.533   2.991  0.00  0.00    -0.126 OA
ATOM     32  O   UNL     1      -1.186  -1.416   3.737  0.00  0.00    -0.126 OA
ENDBRANCH  29  30
ENDBRANCH  19  25
ENDBRANCH   1  20
TORSDOF 5
