REMARK  Name = ZINC02094732
REMARK  12 active torsions:
REMARK  status: ('A' for Active; 'I' for Inactive)
REMARK    1  A    between atoms: C_1  and  C_2
REMARK    2  A    between atoms: C_2  and  C_3
REMARK    3  A    between atoms: C_3  and  C_4
REMARK    4  A    between atoms: C_4  and  S_5
REMARK    5  A    between atoms: S_5  and  C_6
REMARK    6  A    between atoms: C_19  and  C_22
REMARK    7  A    between atoms: C_25  and  O_32
REMARK    8  A    between atoms: C_26  and  O_28
REMARK    9  A    between atoms: O_28  and  C_29
REMARK   10  A    between atoms: C_29  and  C_31
REMARK   11  A    between atoms: O_32  and  C_33
REMARK   12  A    between atoms: C_34  and  C_36
REMARK                            x       y       z     vdW  Elec       q    Type
REMARK                         _______ _______ _______ _____ _____    ______ ____
ROOT
ATOM      1  C   UNL     1       0.805   2.271  -0.255  0.00  0.00    +0.212 A 
ATOM      2  N   UNL     1      -0.303   1.537  -0.208  0.00  0.00    -0.184 NA
ATOM      3  C   UNL     1      -0.205   0.219  -0.168  0.00  0.00    +0.248 A 
ATOM      4  C   UNL     1       1.082  -0.367  -0.179  0.00  0.00    +0.156 A 
ATOM      5  N   UNL     1       2.145   0.421  -0.224  0.00  0.00    -0.141 NA
ATOM      6  N   UNL     1       2.004   1.701  -0.261  0.00  0.00    -0.122 NA
ATOM      7  C   UNL     1       1.215  -1.838  -0.143  0.00  0.00    +0.029 A 
ATOM      8  C   UNL     1       2.094  -2.469   0.729  0.00  0.00    +0.012 A 
ATOM      9  C   UNL     1       2.198  -3.846   0.720  0.00  0.00    +0.001 A 
ATOM     10  C   UNL     1       1.435  -4.601  -0.153  0.00  0.00    +0.002 A 
ATOM     11  C   UNL     1       0.552  -3.986  -1.023  0.00  0.00    +0.024 A 
ATOM     12  C   UNL     1       0.430  -2.609  -1.020  0.00  0.00    +0.049 A 
ATOM     13  N   UNL     1      -0.473  -1.955  -1.868  0.00  0.00    -0.231 N 
ATOM     14  C   UNL     1      -1.641  -1.307  -1.282  0.00  0.00    +0.303 C 
ATOM     15  O   UNL     1      -1.305  -0.569  -0.112  0.00  0.00    -0.448 OA
ATOM     16  C   UNL     1      -0.266  -1.925  -3.200  0.00  0.00    +0.220 C 
ATOM     17  O   UNL     1      -1.056  -1.356  -3.923  0.00  0.00    -0.275 OA
ATOM     18  C   UNL     1       0.946  -2.599  -3.790  0.00  0.00    +0.110 C 
ENDROOT
BRANCH  14  19
ATOM     19  C   UNL     1      -2.658  -2.360  -0.921  0.00  0.00    +0.015 A 
ATOM     20  C   UNL     1      -2.873  -3.430  -1.769  0.00  0.00    +0.013 A 
ATOM     21  C   UNL     1      -3.800  -4.401  -1.440  0.00  0.00    +0.050 A 
ATOM     22  C   UNL     1      -4.524  -4.297  -0.262  0.00  0.00    +0.162 A 
ATOM     23  C   UNL     1      -4.311  -3.217   0.589  0.00  0.00    +0.173 A 
ATOM     24  C   UNL     1      -3.376  -2.250   0.255  0.00  0.00    +0.059 A 
BRANCH  22  25
ATOM     25  O   UNL     1      -5.440  -5.249   0.060  0.00  0.00    -0.491 OA
ATOM     26  C   UNL     1      -5.605  -6.329  -0.860  0.00  0.00    +0.277 C 
ENDBRANCH  22  25
BRANCH  23  27
ATOM     27  O   UNL     1      -5.019  -3.110   1.744  0.00  0.00    -0.422 OA
BRANCH  27  28
ATOM     28  C   UNL     1      -4.537  -3.757   2.817  0.00  0.00    +0.309 C 
ATOM     29  O   UNL     1      -3.469  -4.320   2.753  0.00  0.00    -0.251 OA
ATOM     30  C   UNL     1      -5.326  -3.783   4.100  0.00  0.00    +0.136 C 
ENDBRANCH  27  28
ENDBRANCH  23  27
ENDBRANCH  14  19
BRANCH   1  31
ATOM     31  S   UNL     1       0.680   4.027  -0.310  0.00  0.00    -0.084 S 
BRANCH  31  32
ATOM     32  C   UNL     1       2.435   4.467  -0.360  0.00  0.00    +0.077 C 
BRANCH  32  33
ATOM     33  C   UNL     1       2.578   5.989  -0.413  0.00  0.00    +0.011 C 
BRANCH  33  35
ATOM     34  C   UNL     1       4.206   7.882  -0.509  0.00  0.00    +0.004 C 
ATOM     35  C   UNL     1       4.062   6.360  -0.456  0.00  0.00    -0.003 C 
ENDBRANCH  33  35
ENDBRANCH  32  33
ENDBRANCH  31  32
ENDBRANCH   1  31
TORSDOF 8
