REMARK  Name = ZINC12505161
REMARK  3 active torsions:
REMARK  status: ('A' for Active; 'I' for Inactive)
REMARK    1  A    between atoms: C_1  and  C_2
REMARK    2  A    between atoms: N_14  and  C_15
REMARK    3  A    between atoms: C_15  and  C_16
REMARK                            x       y       z     vdW  Elec       q    Type
REMARK                         _______ _______ _______ _____ _____    ______ ____
ROOT
ATOM      1  C   UNL     1      -0.823  -3.841   5.281  0.00  0.00    +0.007 C 
ATOM      2  C   UNL     1      -1.304  -2.406   5.056  0.00  0.00    -0.011 C 
ATOM      3  C   UNL     1      -0.915  -1.542   6.259  0.00  0.00    +0.022 C 
ATOM      4  C   UNL     1      -1.345  -0.096   6.003  0.00  0.00    +0.108 C 
ATOM      5  N   UNL     1      -0.689   0.403   4.787  0.00  0.00    -0.300 N 
ATOM      6  C   UNL     1      -1.084  -0.382   3.611  0.00  0.00    +0.108 C 
ATOM      7  C   UNL     1      -0.647  -1.837   3.796  0.00  0.00    +0.022 C 
ATOM      8  C   UNL     1      -0.953   1.751   4.597  0.00  0.00    +0.218 A 
ATOM      9  N   UNL     1      -2.130   2.274   4.409  0.00  0.00    -0.137 NA
ATOM     10  N   UNL     1      -1.970   3.659   4.258  0.00  0.00    -0.253 N 
ATOM     11  H   UNL     1      -2.848   4.298   4.084  0.00  0.00    +0.191 HD
ATOM     12  C   UNL     1      -0.653   3.927   4.370  0.00  0.00    +0.177 A 
ATOM     13  S   UNL     1       0.077   5.472   4.269  0.00  0.00    -0.011 S 
ATOM     14  N   UNL     1      -0.015   2.756   4.574  0.00  0.00    -0.289 N 
ENDROOT
BRANCH  14  15
ATOM     15  C   UNL     1       1.429   2.586   4.749  0.00  0.00    +0.158 C 
BRANCH  15  16
ATOM     16  C   UNL     1       2.082   2.344   3.387  0.00  0.00    +0.138 C 
ATOM     17  C   UNL     1       3.585   2.029   3.559  0.00  0.00    +0.035 C 
ATOM     18  C   UNL     1       4.258   2.725   2.354  0.00  0.00    +0.031 C 
ATOM     19  C   UNL     1       3.083   3.377   1.593  0.00  0.00    +0.160 C 
ATOM     20  O   UNL     1       2.049   3.549   2.587  0.00  0.00    -0.375 OA
ENDBRANCH  15  16
ENDBRANCH  14  15
TORSDOF 2
