REMARK  Name = ZINC33324508
REMARK  10 active torsions:
REMARK  status: ('A' for Active; 'I' for Inactive)
REMARK    1  A    between atoms: C_1  and  C_2
REMARK    2  A    between atoms: C_2  and  N_3
REMARK    3  A    between atoms: N_3  and  C_4
REMARK    4  A    between atoms: C_4  and  C_5
REMARK    5  A    between atoms: C_8  and  N_13
REMARK    6  A    between atoms: C_10  and  C_12
REMARK    7  A    between atoms: N_13  and  C_14
REMARK    8  A    between atoms: C_17  and  N_20
REMARK    9  A    between atoms: N_20  and  S_21
REMARK   10  A    between atoms: S_21  and  C_24
REMARK                            x       y       z     vdW  Elec       q    Type
REMARK                         _______ _______ _______ _____ _____    ______ ____
ROOT
ATOM      1  C   UNL     1       1.566   4.693   3.489  0.00  0.00    +0.032 A 
ATOM      2  C   UNL     1       0.397   5.060   2.836  0.00  0.00    +0.025 A 
ATOM      3  C   UNL     1      -0.013   4.370   1.712  0.00  0.00    +0.026 A 
ATOM      4  C   UNL     1       0.745   3.308   1.236  0.00  0.00    +0.048 A 
ATOM      5  C   UNL     1       1.911   2.937   1.892  0.00  0.00    +0.026 A 
ATOM      6  C   UNL     1       2.324   3.632   3.012  0.00  0.00    +0.025 A 
ENDROOT
BRANCH   1   7
ATOM      7  N   UNL     1       1.981   5.394   4.629  0.00  0.00    -0.301 N 
ATOM      8  H   UNL     1       1.876   6.488   4.670  0.00  0.00    +0.154 HD
BRANCH   7  12
ATOM      9  N   UNL     1       3.101   1.292   6.904  0.00  0.00    -0.316 N 
ATOM     10  C   UNL     1       3.079   2.676   6.832  0.00  0.00    +0.126 A 
ATOM     11  C   UNL     1       2.516   3.317   5.732  0.00  0.00    +0.085 A 
ATOM     12  C   UNL     1       2.525   4.708   5.705  0.00  0.00    +0.105 A 
ATOM     13  N   UNL     1       3.057   5.372   6.730  0.00  0.00    -0.332 N 
ATOM     14  C   UNL     1       3.575   4.728   7.756  0.00  0.00    +0.107 A 
ATOM     15  N   UNL     1       3.591   3.412   7.816  0.00  0.00    -0.219 NA
ATOM     16  C   UNL     1       4.167   5.520   8.893  0.00  0.00    +0.086 C 
ATOM     17  H   UNL     1       3.068   6.471   6.727  0.00  0.00    +0.168 HD
BRANCH   9  19
ATOM     18  C   UNL     1       3.720   0.311   4.751  0.00  0.00    +0.024 C 
ATOM     19  C   UNL     1       2.604   0.492   5.782  0.00  0.00    +0.103 C 
ENDBRANCH   9  19
BRANCH   9  20
ATOM     20  C   UNL     1       3.620   0.629   8.103  0.00  0.00    +0.103 C 
ATOM     21  C   UNL     1       2.479   0.408   9.098  0.00  0.00    +0.024 C 
ENDBRANCH   9  20
ENDBRANCH   7  12
ENDBRANCH   1   7
BRANCH   4  22
ATOM     22  N   UNL     1       0.331   2.608   0.097  0.00  0.00    -0.216 N 
ATOM     23  H   UNL     1      -0.092   1.598   0.196  0.00  0.00    +0.174 HD
BRANCH  22  24
ATOM     24  S   UNL     1       0.477   3.302  -1.400  0.00  0.00    +0.072 S 
ATOM     25  O   UNL     1      -0.150   4.574  -1.321  0.00  0.00    -0.150 OA
ATOM     26  O   UNL     1       0.083   2.316  -2.345  0.00  0.00    -0.150 OA
BRANCH  24  27
ATOM     27  C   UNL     1       2.192   3.602  -1.670  0.00  0.00    +0.109 A 
ATOM     28  C   UNL     1       2.724   4.857  -1.379  0.00  0.00    +0.029 A 
ATOM     29  C   UNL     1       4.043   5.123  -1.581  0.00  0.00    +0.010 A 
ATOM     30  C   UNL     1       4.885   4.119  -2.091  0.00  0.00    -0.018 A 
ATOM     31  C   UNL     1       6.252   4.357  -2.314  0.00  0.00    +0.008 A 
ATOM     32  C   UNL     1       7.037   3.361  -2.808  0.00  0.00    +0.001 A 
ATOM     33  C   UNL     1       6.505   2.106  -3.099  0.00  0.00    +0.001 A 
ATOM     34  C   UNL     1       5.186   1.840  -2.896  0.00  0.00    +0.008 A 
ATOM     35  C   UNL     1       4.344   2.843  -2.386  0.00  0.00    -0.016 A 
ATOM     36  C   UNL     1       2.977   2.606  -2.164  0.00  0.00    +0.037 A 
ENDBRANCH  24  27
ENDBRANCH  22  24
ENDBRANCH   4  22
TORSDOF 7
