REMARK  Name = ZINC59040501
REMARK  6 active torsions:
REMARK  status: ('A' for Active; 'I' for Inactive)
REMARK    1  A    between atoms: C_6  and  C_26
REMARK    2  A    between atoms: C_7  and  N_9
REMARK    3  A    between atoms: C_10  and  C_12
REMARK    4  A    between atoms: C_12  and  S_13
REMARK    5  A    between atoms: S_13  and  C_14
REMARK    6  A    between atoms: N_19  and  N_20
REMARK                            x       y       z     vdW  Elec       q    Type
REMARK                         _______ _______ _______ _____ _____    ______ ____
ROOT
ATOM      1  C   UNL     1       3.069  -4.689   5.102  0.00  0.00    +0.173 C 
ENDROOT
BRANCH   1   3
ATOM      2  N   UNL     1       1.958  -3.300   3.383  0.00  0.00    -0.278 N 
ATOM      3  C   UNL     1       2.879  -3.390   4.363  0.00  0.00    +0.228 C 
ATOM      4  O   UNL     1       3.556  -2.425   4.649  0.00  0.00    -0.275 OA
ATOM      5  H   UNL     1       1.417  -4.072   3.154  0.00  0.00    +0.155 HD
BRANCH   2  12
ATOM      6  C   UNL     1      -0.019   1.526   0.010  0.00  0.00    +0.005 C 
ATOM      7  C   UNL     1       1.414   2.067  -0.000  0.00  0.00    +0.005 C 
ATOM      8  C   UNL     1       2.067   1.773   1.358  0.00  0.00    +0.043 C 
ATOM      9  C   UNL     1       1.810   0.338   1.702  0.00  0.00    -0.004 A 
ATOM     10  C   UNL     1       0.907  -0.485   1.127  0.00  0.00    -0.018 A 
ATOM     11  C   UNL     1       0.893  -1.829   1.677  0.00  0.00    +0.084 A 
ATOM     12  C   UNL     1       1.783  -2.103   2.702  0.00  0.00    +0.090 A 
ATOM     13  S   UNL     1       2.603  -0.656   2.932  0.00  0.00    -0.077 S 
ATOM     14  C   UNL     1       0.002  -0.004   0.002  0.00  0.00    +0.037 C 
BRANCH  11  15
ATOM     15  C   UNL     1      -0.004  -2.829   1.181  0.00  0.00    +0.102 C 
ATOM     16  N   UNL     1      -0.716  -3.622   0.788  0.00  0.00    -0.191 NA
ENDBRANCH  11  15
ENDBRANCH   2  12
ENDBRANCH   1   3
BRANCH   1  17
ATOM     17  S   UNL     1       4.371  -4.491   6.349  0.00  0.00    -0.075 S 
BRANCH  17  18
ATOM     18  C   UNL     1       4.471  -6.074   7.116  0.00  0.00    +0.211 A 
ATOM     19  N   UNL     1       5.301  -6.404   8.112  0.00  0.00    -0.186 NA
ATOM     20  C   UNL     1       5.113  -7.663   8.446  0.00  0.00    +0.232 A 
ATOM     21  N   UNL     1       4.141  -8.164   7.654  0.00  0.00    -0.245 N 
ATOM     22  N   UNL     1       3.740  -7.118   6.808  0.00  0.00    -0.144 NA
ATOM     23  N   UNL     1       5.792  -8.352   9.435  0.00  0.00    -0.205 N 
ATOM     24  H   UNL     1       5.582  -9.283   9.609  0.00  0.00    +0.177 HD
ATOM     25  H   UNL     1       3.788  -9.068   7.669  0.00  0.00    +0.192 HD
BRANCH  23  26
ATOM     26  N   UNL     1       6.783  -7.706  10.185  0.00  0.00    -0.189 NA
ATOM     27  C   UNL     1       7.411  -8.344  11.100  0.00  0.00    +0.037 C 
ATOM     28  C   UNL     1       7.206  -9.793  11.486  0.00  0.00    +0.052 C 
ATOM     29  C   UNL     1       8.186 -10.092  12.640  0.00  0.00    +0.006 C 
ATOM     30  C   UNL     1       8.472  -8.697  13.252  0.00  0.00    +0.006 C 
ATOM     31  C   UNL     1       8.505  -7.788  11.995  0.00  0.00    +0.052 C 
ENDBRANCH  23  26
ENDBRANCH  17  18
ENDBRANCH   1  17
TORSDOF 6
