REMARK  Name = ZINC33058379
REMARK  8 active torsions:
REMARK  status: ('A' for Active; 'I' for Inactive)
REMARK    1  A    between atoms: C_1  and  C_2
REMARK    2  A    between atoms: C_5  and  S_8
REMARK    3  A    between atoms: S_8  and  C_11
REMARK    4  A    between atoms: C_12  and  N_32
REMARK    5  A    between atoms: C_13  and  C_24
REMARK    6  A    between atoms: C_15  and  N_16
REMARK    7  A    between atoms: N_16  and  C_17
REMARK    8  A    between atoms: C_24  and  C_26
REMARK                            x       y       z     vdW  Elec       q    Type
REMARK                         _______ _______ _______ _____ _____    ______ ____
ROOT
ATOM      1  C   UNL     1      -3.726   3.419   1.368  0.00  0.00    +0.143 A 
ATOM      2  C   UNL     1      -2.473   3.334   0.816  0.00  0.00    +0.070 A 
ATOM      3  C   UNL     1      -1.790   2.114   0.907  0.00  0.00    +0.084 A 
ATOM      4  S   UNL     1      -2.964   1.094   1.783  0.00  0.00    -0.066 S 
ATOM      5  C   UNL     1      -4.259   2.305   1.987  0.00  0.00    +0.098 A 
ENDROOT
BRANCH   1   6
ATOM      6  S   UNL     1      -4.640   4.923   1.290  0.00  0.00    +0.029 S 
ATOM      7  O   UNL     1      -5.797   4.738   2.093  0.00  0.00    -0.164 OA
ATOM      8  O   UNL     1      -3.712   5.974   1.521  0.00  0.00    -0.164 OA
BRANCH   6  13
ATOM      9  C   UNL     1      -6.568   5.544  -4.394  0.00  0.00    +0.044 C 
ATOM     10  C   UNL     1      -6.087   5.390  -2.974  0.00  0.00    -0.050 A 
ATOM     11  C   UNL     1      -6.868   4.724  -2.048  0.00  0.00    +0.005 A 
ATOM     12  C   UNL     1      -6.426   4.581  -0.746  0.00  0.00    +0.027 A 
ATOM     13  C   UNL     1      -5.203   5.105  -0.370  0.00  0.00    +0.094 A 
ATOM     14  C   UNL     1      -4.425   5.775  -1.295  0.00  0.00    +0.027 A 
ATOM     15  C   UNL     1      -4.864   5.914  -2.598  0.00  0.00    +0.005 A 
ENDBRANCH   6  13
ENDBRANCH   1   6
BRANCH   2  16
ATOM     16  N   UNL     1      -1.896   4.430   0.184  0.00  0.00    -0.355 N 
ATOM     17  H   UNL     1      -0.890   4.346  -0.254  0.00  0.00    +0.142 HD
ATOM     18  H   UNL     1      -2.445   5.381   0.121  0.00  0.00    +0.142 HD
ENDBRANCH   2  16
BRANCH   5  19
ATOM     19  N   UNL     1      -5.489   2.162   2.603  0.00  0.00    -0.307 N 
ATOM     20  H   UNL     1      -6.143   3.037   2.737  0.00  0.00    +0.153 HD
BRANCH  19  21
ATOM     21  C   UNL     1      -5.902   0.905   3.057  0.00  0.00    +0.032 A 
ATOM     22  C   UNL     1      -5.523  -0.241   2.372  0.00  0.00    +0.026 A 
ATOM     23  C   UNL     1      -5.926  -1.482   2.826  0.00  0.00    +0.040 A 
ATOM     24  C   UNL     1      -6.719  -1.582   3.956  0.00  0.00    +0.124 A 
ATOM     25  C   UNL     1      -7.104  -0.440   4.638  0.00  0.00    +0.040 A 
ATOM     26  C   UNL     1      -6.697   0.802   4.192  0.00  0.00    +0.026 A 
ATOM     27  F   UNL     1      -7.117  -2.796   4.395  0.00  0.00    -0.205 F 
ENDBRANCH  19  21
ENDBRANCH   5  19
BRANCH   3  28
ATOM     28  C   UNL     1      -0.513   1.778   0.427  0.00  0.00    +0.202 C 
ATOM     29  O   UNL     1       0.105   2.569  -0.266  0.00  0.00    -0.286 OA
BRANCH  28  30
ATOM     30  C   UNL     1       0.080   0.463   0.758  0.00  0.00    +0.023 A 
ATOM     31  C   UNL     1      -0.318  -0.215   1.911  0.00  0.00    +0.012 A 
ATOM     32  C   UNL     1       0.235  -1.443   2.211  0.00  0.00    +0.001 A 
ATOM     33  C   UNL     1       1.189  -1.998   1.377  0.00  0.00    +0.000 A 
ATOM     34  C   UNL     1       1.592  -1.328   0.235  0.00  0.00    +0.001 A 
ATOM     35  C   UNL     1       1.043  -0.102  -0.079  0.00  0.00    +0.012 A 
ENDBRANCH  28  30
ENDBRANCH   3  28
TORSDOF 7
