REMARK  Name = ZINC08883514
REMARK  6 active torsions:
REMARK  status: ('A' for Active; 'I' for Inactive)
REMARK    1  A    between atoms: C_1  and  C_2
REMARK    2  A    between atoms: C_2  and  C_4
REMARK    3  A    between atoms: C_2  and  N_12
REMARK    4  A    between atoms: C_13  and  C_15
REMARK    5  A    between atoms: C_15  and  C_16
REMARK    6  A    between atoms: C_16  and  N_17
REMARK                            x       y       z     vdW  Elec       q    Type
REMARK                         _______ _______ _______ _____ _____    ______ ____
ROOT
ATOM      1  N   UNL     1      -0.453   1.393   3.718  0.00  0.00    -0.309 N 
ATOM      2  C   UNL     1       0.000   1.080   2.488  0.00  0.00    +0.215 C 
ATOM      3  O   UNL     1       0.994   0.397   2.363  0.00  0.00    -0.276 OA
ATOM      4  H   UNL     1      -1.248   1.939   3.817  0.00  0.00    +0.149 HD
ENDROOT
BRANCH   1   6
ATOM      5  C   UNL     1       1.400   1.865   5.243  0.00  0.00    +0.033 C 
ATOM      6  C   UNL     1       0.256   0.907   4.905  0.00  0.00    +0.100 C 
BRANCH   6   7
ATOM      7  C   UNL     1      -0.701   0.837   6.067  0.00  0.00    -0.025 A 
ATOM      8  C   UNL     1      -1.634   1.840   6.255  0.00  0.00    +0.008 A 
ATOM      9  C   UNL     1      -2.516   1.776   7.318  0.00  0.00    +0.041 A 
ATOM     10  C   UNL     1      -2.458   0.712   8.201  0.00  0.00    +0.158 A 
ATOM     11  C   UNL     1      -1.518  -0.291   8.016  0.00  0.00    +0.159 A 
ATOM     12  C   UNL     1      -0.641  -0.226   6.948  0.00  0.00    +0.046 A 
ATOM     13  F   UNL     1      -1.460  -1.330   8.877  0.00  0.00    -0.202 F 
ATOM     14  F   UNL     1      -3.316   0.651   9.243  0.00  0.00    -0.202 F 
ENDBRANCH   6   7
ENDBRANCH   1   6
BRANCH   2  15
ATOM     15  C   UNL     1      -0.729   1.579   1.267  0.00  0.00    +0.115 C 
BRANCH  15  16
ATOM     16  C   UNL     1      -0.013   1.086   0.008  0.00  0.00    +0.127 C 
BRANCH  16  17
ATOM     17  N   UNL     1      -0.721   1.571  -1.179  0.00  0.00    -0.224 N 
ATOM     18  C   UNL     1      -0.456   2.743  -1.795  0.00  0.00    +0.247 C 
ATOM     19  O   UNL     1       0.381   3.564  -1.486  0.00  0.00    -0.273 OA
ATOM     20  C   UNL     1      -1.422   2.813  -2.950  0.00  0.00    +0.113 C 
ATOM     21  C   UNL     1      -0.677   2.903  -4.288  0.00  0.00    +0.035 C 
ATOM     22  C   UNL     1      -1.577   3.818  -5.158  0.00  0.00    +0.003 C 
ATOM     23  C   UNL     1      -2.099   4.860  -4.136  0.00  0.00    +0.003 C 
ATOM     24  C   UNL     1      -2.327   4.043  -2.845  0.00  0.00    +0.035 C 
ATOM     25  N   UNL     1      -2.195   1.572  -2.857  0.00  0.00    -0.285 N 
ATOM     26  C   UNL     1      -1.709   0.905  -1.791  0.00  0.00    +0.309 C 
ATOM     27  O   UNL     1      -2.123  -0.178  -1.425  0.00  0.00    -0.252 OA
ATOM     28  H   UNL     1      -2.909   1.286  -3.447  0.00  0.00    +0.151 HD
ENDBRANCH  16  17
ENDBRANCH  15  16
ENDBRANCH   2  15
TORSDOF 5
