REMARK  Name = ZINC07986624
REMARK  7 active torsions:
REMARK  status: ('A' for Active; 'I' for Inactive)
REMARK    1  A    between atoms: C_1  and  O_2
REMARK    2  A    between atoms: O_2  and  C_3
REMARK    3  A    between atoms: C_7  and  C_10
REMARK    4  A    between atoms: C_8  and  O_9
REMARK    5  A    between atoms: C_13  and  C_23
REMARK    6  A    between atoms: C_16  and  C_18
REMARK    7  A    between atoms: C_18  and  N_50
REMARK                            x       y       z     vdW  Elec       q    Type
REMARK                         _______ _______ _______ _____ _____    ______ ____
ROOT
ATOM      1  C   UNL     1       6.139   1.936  -0.046  0.00  0.00    +0.140 C 
ATOM      2  C   UNL     1       4.970   0.931  -0.039  0.00  0.00    +0.087 C 
ATOM      3  C   UNL     1       3.737   1.806  -0.024  0.00  0.00    +0.075 C 
ATOM      4  N   UNL     1       4.090   3.048  -0.026  0.00  0.00    -0.180 NA
ATOM      5  N   UNL     1       5.469   3.246  -0.034  0.00  0.00    -0.187 N 
ATOM      6  C   UNL     1       6.089   4.443  -0.034  0.00  0.00    +0.219 C 
ATOM      7  O   UNL     1       7.301   4.498  -0.045  0.00  0.00    -0.276 OA
ENDROOT
BRANCH   1  12
ATOM      8  C   UNL     1       8.790   0.655   2.333  0.00  0.00    +0.162 A 
ATOM      9  C   UNL     1       8.562   1.448   3.446  0.00  0.00    +0.049 A 
ATOM     10  C   UNL     1       7.554   2.395   3.426  0.00  0.00    +0.004 A 
ATOM     11  C   UNL     1       6.772   2.551   2.297  0.00  0.00    +0.009 A 
ATOM     12  C   UNL     1       6.994   1.762   1.183  0.00  0.00    +0.020 A 
ATOM     13  C   UNL     1       7.999   0.809   1.199  0.00  0.00    +0.164 A 
BRANCH   8  15
ATOM     14  C   UNL     1      10.548  -0.383   3.553  0.00  0.00    +0.277 C 
ATOM     15  O   UNL     1       9.780  -0.277   2.352  0.00  0.00    -0.491 OA
ENDBRANCH   8  15
BRANCH  13  16
ATOM     16  O   UNL     1       8.215   0.028   0.106  0.00  0.00    -0.503 OA
ATOM     17  H   UNL     1       8.848   0.399  -0.523  0.00  0.00    +0.292 HD
ENDBRANCH  13  16
ENDBRANCH   1  12
BRANCH   3  18
ATOM     18  C   UNL     1       2.353   1.320  -0.013  0.00  0.00    +0.035 A 
ATOM     19  C   UNL     1       1.174   2.044   0.002  0.00  0.00    +0.017 A 
ATOM     20  C   UNL     1      -0.016   1.354   0.009  0.00  0.00    +0.008 A 
ATOM     21  C   UNL     1       0.002  -0.004   0.002  0.00  0.00    +0.046 A 
ATOM     22  S   UNL     1       1.751  -0.361  -0.017  0.00  0.00    -0.095 S 
ENDBRANCH   3  18
BRANCH   6  23
ATOM     23  C   UNL     1       5.277   5.712  -0.021  0.00  0.00    +0.021 C 
BRANCH  23  28
ATOM     24  C   UNL     1       7.161   6.778  -1.136  0.00  0.00    -0.078 C 
ATOM     25  C   UNL     1       7.637   8.242  -1.312  0.00  0.00    -0.020 C 
ATOM     26  C   UNL     1       6.346   9.057  -1.068  0.00  0.00    -0.020 C 
ATOM     27  C   UNL     1       5.431   8.126  -0.252  0.00  0.00    -0.078 C 
ATOM     28  N   UNL     1       6.191   6.894  -0.036  0.00  0.00    +0.385 N 
ATOM     29  H   UNL     1       6.688   6.946   0.861  0.00  0.00    -0.081 HD
ENDBRANCH  23  28
ENDBRANCH   6  23
TORSDOF 6
