REMARK  Name = ZINC06002241
REMARK  4 active torsions:
REMARK  status: ('A' for Active; 'I' for Inactive)
REMARK    1  A    between atoms: C_1  and  C_2
REMARK    2  A    between atoms: C_2  and  S_3
REMARK    3  A    between atoms: S_3  and  C_4
REMARK    4  A    between atoms: C_15  and  C_17
REMARK                            x       y       z     vdW  Elec       q    Type
REMARK                         _______ _______ _______ _____ _____    ______ ____
ROOT
ATOM      1  C   UNL     1       1.107   3.282   0.009  0.00  0.00    +0.171 A 
ATOM      2  N   UNL     1       1.138   1.920   0.002  0.00  0.00    -0.302 N 
ATOM      3  H   UNL     1       2.102   1.391  -0.011  0.00  0.00    +0.171 HD
ATOM      4  C   UNL     1      -0.015   1.217   0.009  0.00  0.00    +0.258 A 
ATOM      5  O   UNL     1       0.002  -0.004   0.002  0.00  0.00    -0.267 OA
ATOM      6  C   UNL     1      -1.228   1.913   0.018  0.00  0.00    +0.069 A 
ATOM      7  C   UNL     1      -1.204   3.297   0.028  0.00  0.00    +0.135 A 
ATOM      8  N   UNL     1      -0.033   3.942   0.022  0.00  0.00    -0.208 NA
ATOM      9  N   UNL     1      -2.392   4.002   0.036  0.00  0.00    -0.302 N 
ATOM     10  C   UNL     1      -3.561   3.403  -0.348  0.00  0.00    +0.017 C 
ATOM     11  C   UNL     1      -3.676   2.058  -0.371  0.00  0.00    +0.024 C 
ATOM     12  C   UNL     1      -2.530   1.168   0.039  0.00  0.00    +0.092 C 
ATOM     13  C   UNL     1      -4.871   1.442  -0.782  0.00  0.00    +0.162 C 
ATOM     14  O   UNL     1      -4.945   0.229  -0.785  0.00  0.00    -0.292 OA
ATOM     15  C   UNL     1      -6.060   2.253  -1.220  0.00  0.00    +0.080 C 
ATOM     16  C   UNL     1      -5.569   3.584  -1.798  0.00  0.00    +0.014 C 
ATOM     17  C   UNL     1      -4.719   4.288  -0.739  0.00  0.00    +0.051 C 
ATOM     18  H   UNL     1      -2.404   5.055   0.353  0.00  0.00    +0.153 HD
ENDROOT
BRANCH  12  19
ATOM     19  C   UNL     1      -2.783   0.648   1.431  0.00  0.00    -0.035 A 
ATOM     20  C   UNL     1      -2.915   1.532   2.486  0.00  0.00    +0.004 A 
ATOM     21  C   UNL     1      -3.151   1.056   3.762  0.00  0.00    +0.000 A 
ATOM     22  C   UNL     1      -3.247  -0.305   3.984  0.00  0.00    +0.000 A 
ATOM     23  C   UNL     1      -3.110  -1.189   2.931  0.00  0.00    +0.000 A 
ATOM     24  C   UNL     1      -2.878  -0.713   1.654  0.00  0.00    +0.004 A 
ENDBRANCH  12  19
BRANCH   1  25
ATOM     25  S   UNL     1       2.624   4.179   0.003  0.00  0.00    -0.088 S 
BRANCH  25  27
ATOM     26  C   UNL     1       3.158   6.858   0.014  0.00  0.00    +0.016 C 
ATOM     27  C   UNL     1       1.987   5.873   0.017  0.00  0.00    +0.074 C 
ENDBRANCH  25  27
ENDBRANCH   1  25
TORSDOF 3
