REMARK  Name = ZINC36207457
REMARK  4 active torsions:
REMARK  status: ('A' for Active; 'I' for Inactive)
REMARK    1  A    between atoms: C_6  and  S_7
REMARK    2  A    between atoms: S_7  and  N_10
REMARK    3  A    between atoms: C_21  and  S_23
REMARK    4  A    between atoms: S_23  and  N_26
REMARK                            x       y       z     vdW  Elec       q    Type
REMARK                         _______ _______ _______ _____ _____    ______ ____
ROOT
ATOM      1  C   UNL     1      -0.017   1.379   0.010  0.00  0.00    +0.029 A 
ATOM      2  C   UNL     1       1.165   2.090   0.002  0.00  0.00    +0.011 A 
ATOM      3  C   UNL     1       2.386   1.413  -0.013  0.00  0.00    -0.014 A 
ATOM      4  C   UNL     1       2.395   0.021  -0.021  0.00  0.00    -0.033 A 
ATOM      5  C   UNL     1       1.209  -0.682  -0.013  0.00  0.00    +0.033 A 
ATOM      6  C   UNL     1       0.002  -0.004   0.002  0.00  0.00    +0.106 A 
ATOM      7  C   UNL     1       3.836  -0.425  -0.037  0.00  0.00    +0.071 C 
ATOM      8  C   UNL     1       4.663   0.838  -0.039  0.00  0.00    -0.033 A 
ATOM      9  C   UNL     1       3.782   1.916  -0.024  0.00  0.00    -0.014 A 
ATOM     10  C   UNL     1       4.291   3.216  -0.023  0.00  0.00    +0.011 A 
ATOM     11  C   UNL     1       5.655   3.421  -0.036  0.00  0.00    +0.029 A 
ATOM     12  C   UNL     1       6.522   2.344  -0.050  0.00  0.00    +0.106 A 
ATOM     13  C   UNL     1       6.025   1.052  -0.051  0.00  0.00    +0.033 A 
ENDROOT
BRANCH   6  14
ATOM     14  S   UNL     1      -1.512  -0.904   0.012  0.00  0.00    +0.061 S 
ATOM     15  O   UNL     1      -1.220  -2.185   0.553  0.00  0.00    -0.153 OA
ATOM     16  O   UNL     1      -2.492  -0.044   0.577  0.00  0.00    -0.153 OA
BRANCH  14  17
ATOM     17  N   UNL     1      -1.949  -1.146  -1.567  0.00  0.00    -0.180 NA
ATOM     18  C   UNL     1      -2.788  -0.169  -2.278  0.00  0.00    +0.090 C 
ATOM     19  C   UNL     1      -2.114   0.171  -3.611  0.00  0.00    -0.065 C 
ATOM     20  N   UNL     1      -1.858  -1.066  -4.359  0.00  0.00    +0.381 N 
ATOM     21  C   UNL     1      -0.894  -1.901  -3.631  0.00  0.00    -0.065 C 
ATOM     22  C   UNL     1      -1.504  -2.341  -2.300  0.00  0.00    +0.090 C 
ATOM     23  H   UNL     1      -2.723  -1.573  -4.473  0.00  0.00    -0.086 HD
ATOM     24  H   UNL     1      -1.483  -0.837  -5.268  0.00  0.00    -0.086 HD
ENDBRANCH  14  17
ENDBRANCH   6  14
BRANCH  12  25
ATOM     25  S   UNL     1       8.263   2.616  -0.067  0.00  0.00    +0.061 S 
ATOM     26  O   UNL     1       8.851   1.451  -0.630  0.00  0.00    -0.153 OA
ATOM     27  O   UNL     1       8.467   3.912  -0.614  0.00  0.00    -0.153 OA
BRANCH  25  28
ATOM     28  N   UNL     1       8.763   2.683   1.510  0.00  0.00    -0.174 NA
ATOM     29  C   UNL     1       8.791   3.960   2.239  0.00  0.00    +0.124 C 
ATOM     30  C   UNL     1      10.175   4.127   2.877  0.00  0.00    +0.098 C 
ATOM     31  N   UNL     1      10.483   2.942   3.688  0.00  0.00    -0.313 NA
ATOM     32  C   UNL     1      10.560   1.733   2.857  0.00  0.00    +0.098 C 
ATOM     33  C   UNL     1       9.186   1.467   2.221  0.00  0.00    +0.124 C 
ATOM     34  H   UNL     1      11.334   3.075   4.213  0.00  0.00    +0.122 HD
ENDBRANCH  25  28
ENDBRANCH  12  25
TORSDOF 4
