REMARK  Name = ZINC33293716
REMARK  5 active torsions:
REMARK  status: ('A' for Active; 'I' for Inactive)
REMARK    1  A    between atoms: C_6  and  C_7
REMARK    2  A    between atoms: C_7  and  N_8
REMARK    3  A    between atoms: C_12  and  C_13
REMARK    4  A    between atoms: C_16  and  C_18
REMARK    5  A    between atoms: C_21  and  N_24
REMARK                            x       y       z     vdW  Elec       q    Type
REMARK                         _______ _______ _______ _____ _____    ______ ____
ROOT
ATOM      1  N   UNL     1      -1.154  -0.600  -1.676  0.00  0.00    -0.224 N 
ATOM      2  C   UNL     1      -2.060   0.179  -2.249  0.00  0.00    +0.261 C 
ATOM      3  O   UNL     1      -2.346   1.269  -1.801  0.00  0.00    -0.269 OA
ATOM      4  C   UNL     1      -2.706  -0.365  -3.481  0.00  0.00    +0.083 C 
ATOM      5  C   UNL     1      -3.686   0.224  -4.293  0.00  0.00    +0.066 C 
ATOM      6  S   UNL     1      -1.959  -1.863  -3.648  0.00  0.00    -0.026 S 
ATOM      7  C   UNL     1      -0.880  -1.797  -2.231  0.00  0.00    +0.286 C 
ATOM      8  O   UNL     1      -0.086  -2.635  -1.854  0.00  0.00    -0.262 OA
ENDROOT
BRANCH   5   9
ATOM      9  C   UNL     1      -4.327   1.381  -3.877  0.00  0.00    +0.130 A 
ATOM     10  C   UNL     1      -5.276   2.182  -4.663  0.00  0.00    +0.050 A 
ATOM     11  C   UNL     1      -5.652   3.218  -3.867  0.00  0.00    +0.050 A 
ATOM     12  C   UNL     1      -4.972   3.078  -2.635  0.00  0.00    +0.136 A 
ATOM     13  O   UNL     1      -4.201   1.978  -2.671  0.00  0.00    -0.455 OA
BRANCH  12  14
ATOM     14  C   UNL     1      -5.093   3.986  -1.497  0.00  0.00    +0.017 A 
ATOM     15  C   UNL     1      -5.944   5.105  -1.570  0.00  0.00    +0.014 A 
ATOM     16  C   UNL     1      -6.050   5.950  -0.496  0.00  0.00    +0.033 A 
ATOM     17  C   UNL     1      -5.324   5.706   0.660  0.00  0.00    +0.126 A 
ATOM     18  C   UNL     1      -4.482   4.607   0.743  0.00  0.00    +0.033 A 
ATOM     19  C   UNL     1      -4.365   3.745  -0.317  0.00  0.00    +0.014 A 
BRANCH  17  20
ATOM     20  N   UNL     1      -5.447   6.626   1.813  0.00  0.00    +0.056 N 
ATOM     21  O   UNL     1      -6.244   7.672   1.739  0.00  0.00    -0.126 OA
ATOM     22  O   UNL     1      -4.759   6.399   2.913  0.00  0.00    -0.126 OA
ENDBRANCH  17  20
ENDBRANCH  12  14
ENDBRANCH   5   9
BRANCH   1  23
ATOM     23  C   UNL     1      -0.459  -0.165  -0.462  0.00  0.00    +0.152 C 
BRANCH  23  29
ATOM     24  C   UNL     1       0.748   1.953  -1.028  0.00  0.00    +0.006 A 
ATOM     25  C   UNL     1       1.895   2.641  -1.376  0.00  0.00    +0.015 A 
ATOM     26  C   UNL     1       3.088   1.960  -1.537  0.00  0.00    +0.018 A 
ATOM     27  C   UNL     1       3.132   0.590  -1.350  0.00  0.00    +0.015 A 
ATOM     28  C   UNL     1       1.984  -0.097  -1.002  0.00  0.00    +0.006 A 
ATOM     29  C   UNL     1       0.793   0.584  -0.841  0.00  0.00    -0.030 A 
ATOM     30 BR   UNL     1       4.658   2.900  -2.014  0.00  0.00    -0.050 Br
ENDBRANCH  23  29
ENDBRANCH   1  23
TORSDOF 5
