REMARK  Name = ZINC53513971
REMARK  3 active torsions:
REMARK  status: ('A' for Active; 'I' for Inactive)
REMARK    1  A    between atoms: C_5  and  C_7
REMARK    2  A    between atoms: C_7  and  N_8
REMARK    3  A    between atoms: C_14  and  N_17
REMARK                            x       y       z     vdW  Elec       q    Type
REMARK                         _______ _______ _______ _____ _____    ______ ____
ROOT
ATOM      1  N   UNL     1       1.490  -2.679   1.333  0.00  0.00    -0.295 N 
ATOM      2  C   UNL     1       1.552  -4.005   1.567  0.00  0.00    +0.302 C 
ATOM      3  O   UNL     1       1.302  -4.792   0.675  0.00  0.00    -0.253 OA
ATOM      4  N   UNL     1       1.890  -4.457   2.791  0.00  0.00    -0.286 N 
ATOM      5  C   UNL     1       2.081  -3.523   3.909  0.00  0.00    +0.111 C 
ATOM      6  C   UNL     1       3.460  -3.770   4.529  0.00  0.00    +0.044 C 
ATOM      7  C   UNL     1       3.584  -5.245   4.915  0.00  0.00    +0.095 C 
ATOM      8  C   UNL     1       3.454  -6.115   3.662  0.00  0.00    +0.044 C 
ATOM      9  C   UNL     1       2.070  -5.895   3.034  0.00  0.00    +0.111 C 
ATOM     10  H   UNL     1       1.616  -2.051   2.061  0.00  0.00    +0.151 HD
ENDROOT
BRANCH   7  11
ATOM     11  N   UNL     1       4.889  -5.479   5.538  0.00  0.00    -0.289 N 
ATOM     12  C   UNL     1       5.102  -5.962   6.827  0.00  0.00    +0.070 A 
ATOM     13  C   UNL     1       4.251  -6.346   7.852  0.00  0.00    +0.028 A 
ATOM     14  C   UNL     1       4.774  -6.795   9.049  0.00  0.00    +0.002 A 
ATOM     15  C   UNL     1       6.145  -6.862   9.229  0.00  0.00    +0.002 A 
ATOM     16  C   UNL     1       7.001  -6.480   8.215  0.00  0.00    +0.028 A 
ATOM     17  C   UNL     1       6.484  -6.029   7.009  0.00  0.00    +0.067 A 
ATOM     18  N   UNL     1       7.069  -5.585   5.826  0.00  0.00    -0.306 N 
ATOM     19  H   UNL     1       8.021  -5.520   5.652  0.00  0.00    +0.170 HD
ATOM     20  C   UNL     1       6.087  -5.268   4.961  0.00  0.00    +0.328 A 
ATOM     21  O   UNL     1       6.256  -4.851   3.830  0.00  0.00    -0.247 OA
ENDBRANCH   7  11
BRANCH   1  22
ATOM     22  C   UNL     1       1.231  -2.186  -0.022  0.00  0.00    +0.142 C 
BRANCH  22  27
ATOM     23  C   UNL     1      -0.012   1.379   0.007  0.00  0.00    +0.000 A 
ATOM     24  C   UNL     1       1.175   2.086   0.001  0.00  0.00    +0.001 A 
ATOM     25  C   UNL     1       2.382   1.412  -0.013  0.00  0.00    +0.020 A 
ATOM     26  C   UNL     1       2.400   0.028  -0.021  0.00  0.00    +0.046 A 
ATOM     27  C   UNL     1       1.212  -0.679  -0.014  0.00  0.00    -0.012 A 
ATOM     28  C   UNL     1       0.006  -0.004   0.000  0.00  0.00    +0.006 A 
ATOM     29 CL   UNL     1       3.915  -0.820  -0.039  0.00  0.00    -0.083 Cl
ENDBRANCH  22  27
ENDBRANCH   1  22
TORSDOF 3
