REMARK  Name = ZINC14074354
REMARK  6 active torsions:
REMARK  status: ('A' for Active; 'I' for Inactive)
REMARK    1  A    between atoms: C_6  and  C_7
REMARK    2  A    between atoms: C_9  and  C_12
REMARK    3  A    between atoms: C_12  and  O_13
REMARK    4  A    between atoms: O_13  and  C_14
REMARK    5  A    between atoms: C_14  and  C_16
REMARK    6  A    between atoms: C_21  and  N_22
REMARK                            x       y       z     vdW  Elec       q    Type
REMARK                         _______ _______ _______ _____ _____    ______ ____
ROOT
ATOM      1  C   UNL     1       3.449  -1.270   0.143  0.00  0.00    +0.331 C 
ENDROOT
BRANCH   1   4
ATOM      2  C   UNL     1       2.672  -4.770  -0.111  0.00  0.00    +0.202 A 
ATOM      3  N   UNL     1       2.914  -3.579  -0.703  0.00  0.00    -0.188 NA
ATOM      4  C   UNL     1       3.131  -2.737   0.277  0.00  0.00    +0.265 A 
ATOM      5  O   UNL     1       3.022  -3.425   1.418  0.00  0.00    -0.334 OA
ATOM      6  N   UNL     1       2.755  -4.584   1.180  0.00  0.00    -0.056 NA
BRANCH   2  12
ATOM      7  C   UNL     1       2.307  -6.098  -2.191  0.00  0.00    +0.013 A 
ATOM      8  C   UNL     1       2.029  -7.291  -2.826  0.00  0.00    +0.021 A 
ATOM      9  C   UNL     1       1.801  -8.437  -2.083  0.00  0.00    +0.041 A 
ATOM     10  C   UNL     1       1.857  -8.393  -0.700  0.00  0.00    +0.021 A 
ATOM     11  C   UNL     1       2.139  -7.206  -0.056  0.00  0.00    +0.013 A 
ATOM     12  C   UNL     1       2.369  -6.050  -0.799  0.00  0.00    +0.023 A 
ATOM     13 CL   UNL     1       1.446  -9.933  -2.887  0.00  0.00    -0.084 Cl
ENDBRANCH   2  12
ENDBRANCH   1   4
BRANCH   1  14
ATOM     14  O   UNL     1       2.214  -0.505   0.143  0.00  0.00    -0.451 OA
BRANCH  14  15
ATOM     15  C   UNL     1       2.324   0.833   0.030  0.00  0.00    +0.341 C 
ATOM     16  O   UNL     1       3.421   1.347  -0.066  0.00  0.00    -0.245 OA
BRANCH  15  17
ATOM     17  C   UNL     1       1.114   1.673   0.023  0.00  0.00    +0.080 A 
ATOM     18  C   UNL     1      -0.153   1.081   0.009  0.00  0.00    +0.018 A 
ATOM     19  C   UNL     1      -1.280   1.871  -0.004  0.00  0.00    +0.021 A 
ATOM     20  C   UNL     1      -1.167   3.254   0.008  0.00  0.00    +0.043 A 
ATOM     21  C   UNL     1       0.077   3.854   0.022  0.00  0.00    +0.043 A 
ATOM     22  C   UNL     1       1.226   3.073   0.029  0.00  0.00    +0.040 A 
ATOM     23 CL   UNL     1      -2.598   4.237  -0.002  0.00  0.00    -0.083 Cl
BRANCH  22  24
ATOM     24  N   UNL     1       2.478   3.673   0.043  0.00  0.00    -0.357 N 
ATOM     25  H   UNL     1       3.277   3.129  -0.032  0.00  0.00    +0.142 HD
ATOM     26  H   UNL     1       2.553   4.636   0.129  0.00  0.00    +0.142 HD
ENDBRANCH  22  24
ENDBRANCH  15  17
ENDBRANCH  14  15
ENDBRANCH   1  14
TORSDOF 6
