REMARK  Name = ZINC41394680
REMARK  6 active torsions:
REMARK  status: ('A' for Active; 'I' for Inactive)
REMARK    1  A    between atoms: C_1  and  C_2
REMARK    2  A    between atoms: C_2  and  C_3
REMARK    3  A    between atoms: C_2  and  C_4
REMARK    4  A    between atoms: C_7  and  C_10
REMARK    5  A    between atoms: N_13  and  S_17
REMARK    6  A    between atoms: S_17  and  C_20
REMARK                            x       y       z     vdW  Elec       q    Type
REMARK                         _______ _______ _______ _____ _____    ______ ____
ROOT
ATOM      1  C   UNL     1       2.797  -1.919   4.683  0.00  0.00    +0.164 C 
ATOM      2  C   UNL     1       2.413  -1.063   5.896  0.00  0.00    +0.146 C 
ATOM      3  N   UNL     1       2.986  -1.682   7.101  0.00  0.00    -0.171 NA
ATOM      4  C   UNL     1       2.746  -3.117   7.323  0.00  0.00    +0.137 C 
ATOM      5  C   UNL     1       3.115  -3.873   6.041  0.00  0.00    +0.178 C 
ATOM      6  O   UNL     1       2.435  -3.279   4.932  0.00  0.00    -0.369 OA
ENDROOT
BRANCH   1  10
ATOM      7  C   UNL     1       0.731  -0.503   1.223  0.00  0.00    -0.045 A 
ATOM      8  C   UNL     1       2.050  -0.148   1.434  0.00  0.00    +0.004 A 
ATOM      9  C   UNL     1       2.719  -0.606   2.554  0.00  0.00    +0.006 A 
ATOM     10  C   UNL     1       2.068  -1.419   3.463  0.00  0.00    -0.018 A 
ATOM     11  C   UNL     1       0.749  -1.773   3.252  0.00  0.00    +0.006 A 
ATOM     12  C   UNL     1       0.079  -1.312   2.135  0.00  0.00    +0.004 A 
BRANCH   7  14
ATOM     13  C   UNL     1      -0.019   1.526   0.010  0.00  0.00    +0.012 C 
ATOM     14  C   UNL     1       0.002  -0.004   0.002  0.00  0.00    +0.013 C 
ATOM     15  C   UNL     1       0.718  -0.497  -1.257  0.00  0.00    +0.012 C 
ENDBRANCH   7  14
ENDBRANCH   1  10
BRANCH   3  16
ATOM     16  S   UNL     1       3.876  -0.791   8.177  0.00  0.00    +0.067 S 
ATOM     17  O   UNL     1       4.718  -1.706   8.864  0.00  0.00    -0.152 OA
ATOM     18  O   UNL     1       4.388   0.321   7.456  0.00  0.00    -0.152 OA
BRANCH  16  19
ATOM     19  C   UNL     1       2.754  -0.143   9.370  0.00  0.00    +0.143 A 
ATOM     20  C   UNL     1       2.353  -0.684  10.547  0.00  0.00    +0.036 A 
ATOM     21  C   UNL     1       1.454   0.012  11.333  0.00  0.00    +0.010 A 
ATOM     22  C   UNL     1       0.999   1.214  10.904  0.00  0.00    +0.047 A 
ATOM     23  S   UNL     1       1.855   1.399   9.348  0.00  0.00    -0.077 S 
ENDBRANCH  16  19
ENDBRANCH   3  16
TORSDOF 4
