REMARK  Name = ZINC00350099
REMARK  4 active torsions:
REMARK  status: ('A' for Active; 'I' for Inactive)
REMARK    1  A    between atoms: C_1  and  C_2
REMARK    2  A    between atoms: C_5  and  S_8
REMARK    3  A    between atoms: S_8  and  N_11
REMARK    4  A    between atoms: C_14  and  C_16
REMARK                            x       y       z     vdW  Elec       q    Type
REMARK                         _______ _______ _______ _____ _____    ______ ____
ROOT
ATOM      1  N   UNL     1      -2.444   1.074   0.019  0.00  0.00    -0.094 N 
ATOM      2  C   UNL     1      -1.218   1.641   0.017  0.00  0.00    +0.234 A 
ATOM      3  N   UNL     1      -1.372   2.946   0.030  0.00  0.00    -0.192 NA
ATOM      4  C   UNL     1      -2.680   3.246   0.032  0.00  0.00    +0.185 A 
ATOM      5  N   UNL     1      -3.371   2.129   0.030  0.00  0.00    -0.126 NA
ATOM      6  N   UNL     1      -0.011   0.966   0.007  0.00  0.00    -0.326 N 
ATOM      7  H   UNL     1       0.002  -0.004   0.002  0.00  0.00    +0.145 HD
ATOM      8  H   UNL     1       0.822   1.462   0.002  0.00  0.00    +0.145 HD
ENDROOT
BRANCH   4   9
ATOM      9  C   UNL     1      -3.252   4.615   0.043  0.00  0.00    +0.021 A 
ATOM     10  C   UNL     1      -4.633   4.795   0.046  0.00  0.00    +0.013 A 
ATOM     11  C   UNL     1      -5.160   6.070   0.060  0.00  0.00    +0.021 A 
ATOM     12  C   UNL     1      -4.319   7.170   0.062  0.00  0.00    +0.041 A 
ATOM     13  C   UNL     1      -2.945   6.996   0.055  0.00  0.00    +0.021 A 
ATOM     14  C   UNL     1      -2.409   5.724   0.045  0.00  0.00    +0.013 A 
ATOM     15 CL   UNL     1      -4.988   8.771   0.074  0.00  0.00    -0.084 Cl
ENDBRANCH   4   9
BRANCH   1  16
ATOM     16  S   UNL     1      -2.787  -0.546   0.013  0.00  0.00    +0.102 S 
ATOM     17  O   UNL     1      -4.091  -0.683  -0.533  0.00  0.00    -0.146 OA
ATOM     18  O   UNL     1      -1.655  -1.198  -0.547  0.00  0.00    -0.146 OA
BRANCH  16  23
ATOM     19  C   UNL     1      -3.129  -2.320   5.770  0.00  0.00    +0.044 C 
ATOM     20  C   UNL     1      -3.044  -1.878   4.332  0.00  0.00    -0.050 A 
ATOM     21  C   UNL     1      -4.176  -1.427   3.679  0.00  0.00    +0.005 A 
ATOM     22  C   UNL     1      -4.097  -1.020   2.360  0.00  0.00    +0.029 A 
ATOM     23  C   UNL     1      -2.887  -1.064   1.694  0.00  0.00    +0.113 A 
ATOM     24  C   UNL     1      -1.756  -1.520   2.345  0.00  0.00    +0.029 A 
ATOM     25  C   UNL     1      -1.833  -1.923   3.665  0.00  0.00    +0.005 A 
ENDBRANCH  16  23
ENDBRANCH   1  16
TORSDOF 3
