REMARK  Name = ZINC12821263
REMARK  8 active torsions:
REMARK  status: ('A' for Active; 'I' for Inactive)
REMARK    1  A    between atoms: C_4  and  C_7
REMARK    2  A    between atoms: C_7  and  N_8
REMARK    3  A    between atoms: C_9  and  N_36
REMARK    4  A    between atoms: C_10  and  N_17
REMARK    5  A    between atoms: N_17  and  C_18
REMARK    6  A    between atoms: C_18  and  C_19
REMARK    7  A    between atoms: C_19  and  C_20
REMARK    8  A    between atoms: C_26  and  C_28
REMARK                            x       y       z     vdW  Elec       q    Type
REMARK                         _______ _______ _______ _____ _____    ______ ____
ROOT
ATOM      1  N   UNL     1      -3.797  -5.381  -2.784  0.00  0.00    -0.276 N 
ATOM      2  C   UNL     1      -3.793  -4.006  -2.810  0.00  0.00    +0.128 A 
ATOM      3  C   UNL     1      -3.022  -3.317  -1.895  0.00  0.00    +0.140 A 
ATOM      4  C   UNL     1      -2.271  -4.047  -0.954  0.00  0.00    +0.277 A 
ATOM      5  O   UNL     1      -1.585  -3.464  -0.132  0.00  0.00    -0.266 OA
ATOM      6  N   UNL     1      -2.314  -5.394  -0.969  0.00  0.00    -0.273 N 
ATOM      7  H   UNL     1      -1.781  -5.913  -0.301  0.00  0.00    +0.173 HD
ATOM      8  C   UNL     1      -3.067  -6.047  -1.872  0.00  0.00    +0.331 A 
ATOM      9  O   UNL     1      -3.088  -7.263  -1.862  0.00  0.00    -0.246 OA
ENDROOT
BRANCH   3  10
ATOM     10  N   UNL     1      -2.993  -1.908  -1.898  0.00  0.00    -0.260 N 
ATOM     11  C   UNL     1      -4.111  -1.210  -1.617  0.00  0.00    +0.251 C 
ATOM     12  O   UNL     1      -4.101   0.005  -1.677  0.00  0.00    -0.270 OA
BRANCH  11  13
ATOM     13  C   UNL     1      -5.350  -1.921  -1.236  0.00  0.00    +0.043 A 
ATOM     14  C   UNL     1      -5.285  -3.217  -0.723  0.00  0.00    +0.051 A 
ATOM     15  C   UNL     1      -6.446  -3.875  -0.364  0.00  0.00    +0.127 A 
ATOM     16  C   UNL     1      -7.674  -3.254  -0.523  0.00  0.00    +0.076 A 
ATOM     17  C   UNL     1      -7.745  -1.970  -1.037  0.00  0.00    +0.127 A 
ATOM     18  C   UNL     1      -6.590  -1.300  -1.395  0.00  0.00    +0.051 A 
ATOM     19  F   UNL     1      -8.947  -1.371  -1.190  0.00  0.00    -0.205 F 
ATOM     20  F   UNL     1      -6.383  -5.128   0.137  0.00  0.00    -0.205 F 
ENDBRANCH  11  13
BRANCH  10  21
ATOM     21  C   UNL     1      -1.747  -1.202  -2.207  0.00  0.00    +0.118 C 
BRANCH  21  22
ATOM     22  C   UNL     1      -1.037  -0.826  -0.905  0.00  0.00    +0.050 C 
BRANCH  22  23
ATOM     23  C   UNL     1       0.241  -0.095  -1.223  0.00  0.00    -0.072 C 
ATOM     24  C   UNL     1       0.214   1.200  -1.233  0.00  0.00    -0.028 C 
ATOM     25  C   UNL     1       1.401   2.063  -1.541  0.00  0.00    +0.027 C 
ATOM     26  C   UNL     1       2.691   1.250  -1.417  0.00  0.00    +0.004 C 
ATOM     27  C   UNL     1       2.522  -0.053  -2.209  0.00  0.00    +0.005 C 
ATOM     28  C   UNL     1       1.467  -0.912  -1.508  0.00  0.00    +0.030 C 
ENDBRANCH  22  23
ENDBRANCH  21  22
ENDBRANCH  10  21
ENDBRANCH   3  10
BRANCH   2  29
ATOM     29  N   UNL     1      -4.543  -3.325  -3.739  0.00  0.00    -0.343 N 
ATOM     30  H   UNL     1      -4.482  -2.359  -3.797  0.00  0.00    +0.144 HD
ATOM     31  H   UNL     1      -5.133  -3.811  -4.335  0.00  0.00    +0.144 HD
ENDBRANCH   2  29
BRANCH   1  32
ATOM     32  C   UNL     1      -4.606  -6.125  -3.753  0.00  0.00    +0.163 C 
BRANCH  32  36
ATOM     33  C   UNL     1      -8.550  -6.663  -2.202  0.00  0.00    +0.000 A 
ATOM     34  C   UNL     1      -8.281  -5.610  -3.056  0.00  0.00    +0.000 A 
ATOM     35  C   UNL     1      -7.005  -5.436  -3.558  0.00  0.00    +0.005 A 
ATOM     36  C   UNL     1      -5.997  -6.314  -3.205  0.00  0.00    -0.028 A 
ATOM     37  C   UNL     1      -6.267  -7.370  -2.355  0.00  0.00    +0.005 A 
ATOM     38  C   UNL     1      -7.542  -7.541  -1.849  0.00  0.00    +0.000 A 
ENDBRANCH  32  36
ENDBRANCH   1  32
TORSDOF 8
