REMARK  Name = ZINC13981860
REMARK  9 active torsions:
REMARK  status: ('A' for Active; 'I' for Inactive)
REMARK    1  A    between atoms: C_1  and  C_2
REMARK    2  A    between atoms: C_5  and  C_8
REMARK    3  A    between atoms: C_9  and  C_10
REMARK    4  A    between atoms: N_12  and  C_13
REMARK    5  A    between atoms: C_13  and  N_15
REMARK    6  A    between atoms: N_15  and  C_16
REMARK    7  A    between atoms: C_19  and  S_22
REMARK    8  A    between atoms: S_22  and  N_25
REMARK    9  A    between atoms: N_25  and  C_26
REMARK                            x       y       z     vdW  Elec       q    Type
REMARK                         _______ _______ _______ _____ _____    ______ ____
ROOT
ATOM      1  N   UNL     1       6.959   5.226   0.629  0.00  0.00    -0.297 N 
ATOM      2  H   UNL     1       7.812   5.297   1.320  0.00  0.00    +0.154 HD
ENDROOT
BRANCH   1   3
ATOM      3  C   UNL     1       6.474   3.972   0.244  0.00  0.00    +0.033 A 
ATOM      4  C   UNL     1       6.098   3.745  -1.073  0.00  0.00    +0.025 A 
ATOM      5  C   UNL     1       5.620   2.505  -1.450  0.00  0.00    +0.030 A 
ATOM      6  C   UNL     1       5.515   1.490  -0.517  0.00  0.00    +0.109 A 
ATOM      7  C   UNL     1       5.883   1.714   0.797  0.00  0.00    +0.030 A 
ATOM      8  C   UNL     1       6.367   2.950   1.179  0.00  0.00    +0.025 A 
BRANCH   6   9
ATOM      9  S   UNL     1       4.905  -0.090  -1.002  0.00  0.00    +0.072 S 
ATOM     10  O   UNL     1       4.218   0.099  -2.231  0.00  0.00    -0.150 OA
ATOM     11  O   UNL     1       4.279  -0.652   0.143  0.00  0.00    -0.150 OA
BRANCH   9  12
ATOM     12  N   UNL     1       6.220  -1.041  -1.337  0.00  0.00    -0.216 N 
ATOM     13  H   UNL     1       6.406  -1.950  -0.746  0.00  0.00    +0.174 HD
BRANCH  12  14
ATOM     14  C   UNL     1       7.092  -0.688  -2.369  0.00  0.00    +0.048 A 
ATOM     15  C   UNL     1       8.466  -0.743  -2.169  0.00  0.00    +0.024 A 
ATOM     16  C   UNL     1       9.326  -0.392  -3.191  0.00  0.00    +0.002 A 
ATOM     17  C   UNL     1       8.821   0.013  -4.413  0.00  0.00    +0.000 A 
ATOM     18  C   UNL     1       7.454   0.069  -4.616  0.00  0.00    +0.002 A 
ATOM     19  C   UNL     1       6.588  -0.280  -3.598  0.00  0.00    +0.024 A 
ENDBRANCH  12  14
ENDBRANCH   9  12
ENDBRANCH   6   9
ENDBRANCH   1   3
BRANCH   1  20
ATOM     20  C   UNL     1       6.381   6.347   0.153  0.00  0.00    +0.141 C 
ATOM     21  S   UNL     1       4.970   6.240  -0.810  0.00  0.00    -0.018 S 
BRANCH  20  24
ATOM     22  C   UNL     1       6.337   8.673  -0.040  0.00  0.00    +0.242 C 
ATOM     23  O   UNL     1       5.334   8.597  -0.725  0.00  0.00    -0.270 OA
ATOM     24  N   UNL     1       6.914   7.552   0.435  0.00  0.00    -0.264 N 
ATOM     25  H   UNL     1       7.821   7.621   1.054  0.00  0.00    +0.157 HD
BRANCH  22  27
ATOM     26  C   UNL     1       6.338  11.103  -0.210  0.00  0.00    +0.013 C 
ATOM     27  C   UNL     1       6.916   9.981   0.266  0.00  0.00    +0.068 C 
BRANCH  26  32
ATOM     28  C   UNL     1       8.612  16.243   0.995  0.00  0.00    +0.044 C 
ATOM     29  C   UNL     1       8.016  14.896   0.679  0.00  0.00    -0.050 A 
ATOM     30  C   UNL     1       6.875  14.813  -0.100  0.00  0.00    +0.004 A 
ATOM     31  C   UNL     1       6.324  13.584  -0.394  0.00  0.00    +0.008 A 
ATOM     32  C   UNL     1       6.920  12.419   0.098  0.00  0.00    -0.025 A 
ATOM     33  C   UNL     1       8.069  12.511   0.889  0.00  0.00    +0.008 A 
ATOM     34  C   UNL     1       8.612  13.747   1.170  0.00  0.00    +0.004 A 
ENDBRANCH  26  32
ENDBRANCH  22  27
ENDBRANCH  20  24
ENDBRANCH   1  20
TORSDOF 8
