REMARK  Name = ZINC08254114
REMARK  8 active torsions:
REMARK  status: ('A' for Active; 'I' for Inactive)
REMARK    1  A    between atoms: C_1  and  O_2
REMARK    2  A    between atoms: O_2  and  C_3
REMARK    3  A    between atoms: C_8  and  N_9
REMARK    4  A    between atoms: C_15  and  C_17
REMARK    5  A    between atoms: C_25  and  C_27
REMARK    6  A    between atoms: C_27  and  N_28
REMARK    7  A    between atoms: C_30  and  C_33
REMARK    8  A    between atoms: C_33  and  O_39
REMARK                            x       y       z     vdW  Elec       q    Type
REMARK                         _______ _______ _______ _____ _____    ______ ____
ROOT
ATOM      1  C   UNL     1       2.150   1.493   1.235  0.00  0.00    +0.062 C 
ATOM      2  C   UNL     1       2.111  -0.037   1.193  0.00  0.00    -0.065 C 
ATOM      3  C   UNL     1       2.089  -0.024  -1.229  0.00  0.00    -0.078 C 
ATOM      4  C   UNL     1       2.127   1.506  -1.256  0.00  0.00    -0.015 C 
ATOM      5  C   UNL     1       1.426   2.042  -0.001  0.00  0.00    -0.004 C 
ATOM      6  C   UNL     1      -0.019   1.527   0.010  0.00  0.00    -0.010 C 
ATOM      7  C   UNL     1       0.002  -0.004   0.002  0.00  0.00    -0.046 C 
ATOM      8  N   UNL     1       1.395  -0.502  -0.014  0.00  0.00    +0.383 N 
ATOM      9  H   UNL     1       1.381  -1.528  -0.019  0.00  0.00    -0.081 HD
ENDROOT
BRANCH   1  16
ATOM     10  N   UNL     1       3.399   1.693   6.055  0.00  0.00    -0.324 N 
ATOM     11  C   UNL     1       2.325   2.674   5.852  0.00  0.00    +0.124 C 
ATOM     12  C   UNL     1       1.260   2.077   4.925  0.00  0.00    +0.126 C 
ATOM     13  N   UNL     1       1.919   1.612   3.695  0.00  0.00    -0.298 N 
ATOM     14  C   UNL     1       3.087   0.728   3.823  0.00  0.00    +0.126 C 
ATOM     15  C   UNL     1       4.083   1.383   4.793  0.00  0.00    +0.124 C 
ATOM     16  C   UNL     1       1.460   1.981   2.483  0.00  0.00    +0.217 C 
ATOM     17  O   UNL     1       0.492   2.707   2.396  0.00  0.00    -0.275 OA
BRANCH  10  23
ATOM     18  C   UNL     1       4.513   1.391   8.182  0.00  0.00    +0.141 A 
ATOM     19  C   UNL     1       5.417   1.833   9.133  0.00  0.00    +0.047 A 
ATOM     20  C   UNL     1       6.106   3.016   8.938  0.00  0.00    +0.004 A 
ATOM     21  C   UNL     1       5.898   3.759   7.790  0.00  0.00    +0.002 A 
ATOM     22  C   UNL     1       5.001   3.323   6.833  0.00  0.00    +0.027 A 
ATOM     23  C   UNL     1       4.307   2.137   7.023  0.00  0.00    +0.072 A 
BRANCH  18  25
ATOM     24  C   UNL     1       4.092  -0.480   9.587  0.00  0.00    +0.277 C 
ATOM     25  O   UNL     1       3.831   0.231   8.376  0.00  0.00    -0.493 OA
ENDBRANCH  18  25
ENDBRANCH  10  23
ENDBRANCH   1  16
BRANCH   7  26
ATOM     26  C   UNL     1      -0.700  -0.531   1.255  0.00  0.00    +0.130 C 
BRANCH  26  27
ATOM     27  N   UNL     1      -0.786  -1.992   1.189  0.00  0.00    -0.253 N 
ATOM     28  C   UNL     1      -0.332  -2.856   2.127  0.00  0.00    +0.136 A 
ATOM     29  C   UNL     1      -0.615  -4.096   1.664  0.00  0.00    +0.114 A 
ATOM     30  N   UNL     1      -1.219  -3.933   0.482  0.00  0.00    -0.132 NA
ATOM     31  N   UNL     1      -1.310  -2.674   0.232  0.00  0.00    -0.065 NA
BRANCH  29  32
ATOM     32  C   UNL     1      -0.309  -5.404   2.347  0.00  0.00    +0.111 C 
ATOM     33  C   UNL     1       1.201  -5.529   2.557  0.00  0.00    +0.041 C 
ATOM     34  C   UNL     1       1.512  -6.857   3.251  0.00  0.00    +0.003 C 
ATOM     35  C   UNL     1       1.021  -8.015   2.379  0.00  0.00    +0.000 C 
ATOM     36  C   UNL     1      -0.489  -7.890   2.168  0.00  0.00    +0.003 C 
ATOM     37  C   UNL     1      -0.800  -6.562   1.475  0.00  0.00    +0.041 C 
BRANCH  32  38
ATOM     38  O   UNL     1      -0.971  -5.447   3.613  0.00  0.00    -0.382 OA
ATOM     39  H   UNL     1      -0.708  -4.741   4.218  0.00  0.00    +0.211 HD
ENDBRANCH  32  38
ENDBRANCH  29  32
ENDBRANCH  26  27
ENDBRANCH   7  26
TORSDOF 7
