REMARK  Name = ZINC36206494
REMARK  14 active torsions:
REMARK  status: ('A' for Active; 'I' for Inactive)
REMARK    1  A    between atoms: C_1  and  C_2
REMARK    2  A    between atoms: C_5  and  C_36
REMARK    3  A    between atoms: C_6  and  C_8
REMARK    4  A    between atoms: C_17  and  C_19
REMARK    5  A    between atoms: C_19  and  N_20
REMARK    6  A    between atoms: N_20  and  C_21
REMARK    7  A    between atoms: N_20  and  C_32
REMARK    8  A    between atoms: C_21  and  C_22
REMARK    9  A    between atoms: C_22  and  C_24
REMARK   10  A    between atoms: C_22  and  O_31
REMARK   11  A    between atoms: C_24  and  C_25
REMARK   12  A    between atoms: C_32  and  C_33
REMARK   13  A    between atoms: C_33  and  C_34
REMARK   14  A    between atoms: C_33  and  C_35
REMARK                            x       y       z     vdW  Elec       q    Type
REMARK                         _______ _______ _______ _____ _____    ______ ____
ROOT
ATOM      1  C   UNL     1       0.634  -3.051   0.928  0.00  0.00    +0.004 A 
ATOM      2  C   UNL     1      -0.420  -2.637   1.673  0.00  0.00    +0.056 A 
ATOM      3  S   UNL     1      -0.071  -3.305   3.288  0.00  0.00    -0.076 S 
ATOM      4  C   UNL     1       1.465  -4.116   2.930  0.00  0.00    +0.116 A 
ATOM      5  C   UNL     1       1.670  -3.855   1.565  0.00  0.00    +0.080 A 
ATOM      6  C   UNL     1       2.862  -4.410   1.000  0.00  0.00    +0.260 A 
ATOM      7  O   UNL     1       3.129  -4.234  -0.176  0.00  0.00    -0.267 OA
ATOM      8  N   UNL     1       3.684  -5.128   1.787  0.00  0.00    -0.312 N 
ATOM      9  H   UNL     1       4.494  -5.506   1.409  0.00  0.00    +0.170 HD
ATOM     10  C   UNL     1       3.403  -5.334   3.099  0.00  0.00    +0.094 A 
ATOM     11  N   UNL     1       2.328  -4.833   3.646  0.00  0.00    -0.229 NA
ENDROOT
BRANCH   1  17
ATOM     12  C   UNL     1       1.129   0.395  -2.650  0.00  0.00    +0.044 C 
ATOM     13  C   UNL     1       0.967  -1.044  -2.232  0.00  0.00    -0.050 A 
ATOM     14  C   UNL     1       0.905  -2.039  -3.192  0.00  0.00    +0.003 A 
ATOM     15  C   UNL     1       0.755  -3.362  -2.816  0.00  0.00    +0.004 A 
ATOM     16  C   UNL     1       0.667  -3.696  -1.480  0.00  0.00    -0.043 A 
ATOM     17  C   UNL     1       0.729  -2.698  -0.509  0.00  0.00    -0.013 A 
ATOM     18  C   UNL     1       0.885  -1.367  -0.893  0.00  0.00    +0.012 A 
ATOM     19  C   UNL     1       0.503  -5.138  -1.072  0.00  0.00    +0.044 C 
ENDBRANCH   1  17
BRANCH  10  20
ATOM     20  C   UNL     1       4.353  -6.146   3.942  0.00  0.00    -0.003 C 
BRANCH  20  21
ATOM     21  N   UNL     1       3.751  -6.392   5.259  0.00  0.00    +0.386 N 
ATOM     22  H   UNL     1       3.275  -5.559   5.572  0.00  0.00    -0.081 HD
BRANCH  21  23
ATOM     23  C   UNL     1       4.804  -6.745   6.220  0.00  0.00    -0.046 C 
BRANCH  23  24
ATOM     24  C   UNL     1       4.228  -6.729   7.638  0.00  0.00    +0.102 C 
BRANCH  24  25
ATOM     25  O   UNL     1       3.335  -7.833   7.801  0.00  0.00    -0.393 OA
ATOM     26  H   UNL     1       3.765  -8.697   7.747  0.00  0.00    +0.210 HD
ENDBRANCH  24  25
BRANCH  24  27
ATOM     27  C   UNL     1       5.367  -6.839   8.653  0.00  0.00    +0.064 C 
BRANCH  27  28
ATOM     28  C   UNL     1       4.812  -6.700  10.047  0.00  0.00    -0.045 A 
ATOM     29  C   UNL     1       4.715  -5.451  10.631  0.00  0.00    +0.004 A 
ATOM     30  C   UNL     1       4.206  -5.324  11.910  0.00  0.00    +0.000 A 
ATOM     31  C   UNL     1       3.793  -6.445  12.605  0.00  0.00    +0.000 A 
ATOM     32  C   UNL     1       3.890  -7.694  12.021  0.00  0.00    +0.000 A 
ATOM     33  C   UNL     1       4.395  -7.821  10.740  0.00  0.00    +0.004 A 
ENDBRANCH  27  28
ENDBRANCH  24  27
ENDBRANCH  23  24
ENDBRANCH  21  23
BRANCH  21  34
ATOM     34  C   UNL     1       2.789  -7.497   5.159  0.00  0.00    -0.075 C 
BRANCH  34  35
ATOM     35  C   UNL     1       1.502  -6.995   4.502  0.00  0.00    -0.034 C 
ATOM     36  C   UNL     1       0.581  -8.182   4.211  0.00  0.00    +0.005 C 
ATOM     37  C   UNL     1       0.794  -6.020   5.445  0.00  0.00    +0.005 C 
ENDBRANCH  34  35
ENDBRANCH  21  34
ENDBRANCH  20  21
ENDBRANCH  10  20
TORSDOF 10
