REMARK  Name = ZINC64958362
REMARK  9 active torsions:
REMARK  status: ('A' for Active; 'I' for Inactive)
REMARK    1  A    between atoms: C_1  and  C_2
REMARK    2  A    between atoms: C_7  and  C_12
REMARK    3  A    between atoms: C_12  and  N_13
REMARK    4  A    between atoms: C_14  and  C_16
REMARK    5  A    between atoms: N_21  and  S_23
REMARK    6  A    between atoms: S_23  and  C_26
REMARK    7  A    between atoms: N_28  and  C_31
REMARK    8  A    between atoms: C_31  and  C_32
REMARK    9  A    between atoms: C_31  and  C_33
REMARK                            x       y       z     vdW  Elec       q    Type
REMARK                         _______ _______ _______ _____ _____    ______ ____
ROOT
ATOM      1  N   UNL     1       2.513  -4.326   1.543  0.00  0.00    -0.311 N 
ATOM      2  C   UNL     1       3.747  -4.801   1.802  0.00  0.00    +0.218 C 
ATOM      3  O   UNL     1       3.881  -5.862   2.374  0.00  0.00    -0.275 OA
ATOM      4  H   UNL     1       2.406  -3.477   1.085  0.00  0.00    +0.149 HD
ENDROOT
BRANCH   2   5
ATOM      5  C   UNL     1       4.961  -4.014   1.381  0.00  0.00    +0.091 C 
ATOM      6  C   UNL     1       4.944  -2.644   2.062  0.00  0.00    +0.015 C 
ATOM      7  C   UNL     1       6.159  -1.832   1.610  0.00  0.00    +0.018 C 
ATOM      8  C   UNL     1       7.440  -2.562   2.025  0.00  0.00    +0.109 C 
ATOM      9  N   UNL     1       7.397  -3.931   1.493  0.00  0.00    -0.174 NA
ATOM     10  C   UNL     1       6.229  -4.770   1.792  0.00  0.00    +0.122 C 
BRANCH   9  11
ATOM     11  S   UNL     1       8.643  -4.519   0.573  0.00  0.00    +0.080 S 
ATOM     12  O   UNL     1       8.102  -5.565  -0.222  0.00  0.00    -0.151 OA
ATOM     13  O   UNL     1       9.296  -3.391   0.006  0.00  0.00    -0.151 OA
BRANCH  11  14
ATOM     14  C   UNL     1       9.796  -5.267   1.675  0.00  0.00    +0.211 A 
ATOM     15  C   UNL     1      10.833  -4.651   2.274  0.00  0.00    +0.136 A 
ATOM     16  N   UNL     1      11.465  -5.594   3.039  0.00  0.00    -0.332 N 
ATOM     17  C   UNL     1      10.792  -6.753   2.882  0.00  0.00    +0.201 A 
ATOM     18  N   UNL     1       9.792  -6.550   2.068  0.00  0.00    -0.216 NA
BRANCH  16  19
ATOM     19  C   UNL     1      12.650  -5.383   3.874  0.00  0.00    +0.082 C 
ATOM     20  C   UNL     1      12.313  -5.708   5.331  0.00  0.00    +0.030 C 
ATOM     21  C   UNL     1      13.780  -6.298   3.396  0.00  0.00    +0.030 C 
ENDBRANCH  16  19
ENDBRANCH  11  14
ENDBRANCH   9  11
ENDBRANCH   2   5
BRANCH   1  22
ATOM     22  C   UNL     1       1.332  -5.091   1.952  0.00  0.00    +0.150 C 
BRANCH  22  29
ATOM     23  C   UNL     1      -0.018   1.503   0.010  0.00  0.00    +0.044 C 
ATOM     24  C   UNL     1       0.002  -0.004   0.002  0.00  0.00    -0.048 A 
ATOM     25  C   UNL     1       0.005  -0.672  -1.235  0.00  0.00    +0.005 A 
ATOM     26  C   UNL     1       0.022  -2.017  -1.335  0.00  0.00    +0.027 A 
ATOM     27  C   UNL     1       0.040  -2.834  -0.114  0.00  0.00    +0.060 A 
ATOM     28  N   UNL     1       0.057  -4.120   0.090  0.00  0.00    -0.362 N 
ATOM     29  C   UNL     1       0.067  -4.335   1.542  0.00  0.00    +0.191 C 
ATOM     30  N   UNL     1       0.053  -3.002   2.159  0.00  0.00    -0.362 N 
ATOM     31  C   UNL     1       0.037  -2.127   1.195  0.00  0.00    +0.060 A 
ATOM     32  C   UNL     1       0.022  -0.657   1.181  0.00  0.00    +0.030 A 
ATOM     33  H   UNL     1       0.062  -4.809  -0.593  0.00  0.00    +0.162 HD
ATOM     34  H   UNL     1       0.055  -2.810   3.109  0.00  0.00    +0.162 HD
ENDBRANCH  22  29
ENDBRANCH   1  22
TORSDOF 6
