REMARK  Name = ZINC56352951
REMARK  3 active torsions:
REMARK  status: ('A' for Active; 'I' for Inactive)
REMARK    1  A    between atoms: C_5  and  C_7
REMARK    2  A    between atoms: C_7  and  N_8
REMARK    3  A    between atoms: C_15  and  C_18
REMARK                            x       y       z     vdW  Elec       q    Type
REMARK                         _______ _______ _______ _____ _____    ______ ____
ROOT
ATOM      1  N   UNL     1       1.482  -2.681   1.333  0.00  0.00    -0.295 N 
ATOM      2  C   UNL     1       1.546  -4.007   1.567  0.00  0.00    +0.302 C 
ATOM      3  O   UNL     1       1.297  -4.795   0.675  0.00  0.00    -0.253 OA
ATOM      4  N   UNL     1       1.884  -4.459   2.791  0.00  0.00    -0.285 N 
ATOM      5  C   UNL     1       2.073  -3.525   3.909  0.00  0.00    +0.109 C 
ATOM      6  C   UNL     1       3.451  -3.771   4.529  0.00  0.00    +0.020 C 
ATOM      7  C   UNL     1       3.577  -5.246   4.916  0.00  0.00    +0.016 C 
ATOM      8  C   UNL     1       3.449  -6.116   3.663  0.00  0.00    +0.093 C 
ATOM      9  C   UNL     1       2.065  -5.897   3.034  0.00  0.00    +0.122 C 
ATOM     10  H   UNL     1       1.608  -2.053   2.061  0.00  0.00    +0.151 HD
ENDROOT
BRANCH   8  11
ATOM     11  C   UNL     1       3.606  -7.567   4.040  0.00  0.00    +0.223 C 
ATOM     12  O   UNL     1       3.800  -7.875   5.196  0.00  0.00    -0.275 OA
ATOM     13  N   UNL     1       3.530  -8.521   3.091  0.00  0.00    -0.270 N 
ATOM     14  C   UNL     1       3.568  -9.867   3.452  0.00  0.00    +0.125 A 
ATOM     15  C   UNL     1       3.383 -10.846   2.482  0.00  0.00    +0.045 A 
ATOM     16  C   UNL     1       3.424 -12.178   2.853  0.00  0.00    +0.025 A 
ATOM     17  C   UNL     1       3.650 -12.487   4.189  0.00  0.00    +0.059 A 
ATOM     18  C   UNL     1       3.826 -11.463   5.099  0.00  0.00    +0.132 A 
ATOM     19  N   UNL     1       3.787 -10.202   4.714  0.00  0.00    -0.239 NA
ATOM     20 CL   UNL     1       3.711 -14.143   4.708  0.00  0.00    -0.082 Cl
ATOM     21  H   UNL     1       3.447  -8.271   2.157  0.00  0.00    +0.156 HD
ENDBRANCH   8  11
BRANCH   1  22
ATOM     22  C   UNL     1       1.224  -2.189  -0.023  0.00  0.00    +0.144 C 
BRANCH  22  27
ATOM     23  C   UNL     1      -0.022   1.375   0.007  0.00  0.00    +0.000 A 
ATOM     24  C   UNL     1       1.165   2.084   0.001  0.00  0.00    +0.003 A 
ATOM     25  C   UNL     1       2.372   1.412  -0.012  0.00  0.00    +0.038 A 
ATOM     26  C   UNL     1       2.393   0.027  -0.020  0.00  0.00    +0.128 A 
ATOM     27  C   UNL     1       1.204  -0.682  -0.014  0.00  0.00    +0.005 A 
ATOM     28  C   UNL     1      -0.003  -0.007  -0.001  0.00  0.00    +0.008 A 
ATOM     29  F   UNL     1       3.572  -0.631  -0.034  0.00  0.00    -0.205 F 
ENDBRANCH  22  27
ENDBRANCH   1  22
TORSDOF 3
