REMARK  Name = ZINC04574826
REMARK  9 active torsions:
REMARK  status: ('A' for Active; 'I' for Inactive)
REMARK    1  A    between atoms: C_1  and  C_2
REMARK    2  A    between atoms: C_3  and  C_30
REMARK    3  A    between atoms: C_4  and  C_21
REMARK    4  A    between atoms: C_9  and  S_11
REMARK    5  A    between atoms: S_11  and  C_12
REMARK    6  A    between atoms: C_12  and  C_13
REMARK    7  A    between atoms: C_24  and  C_27
REMARK    8  A    between atoms: C_27  and  C_28
REMARK    9  A    between atoms: C_27  and  C_29
REMARK                            x       y       z     vdW  Elec       q    Type
REMARK                         _______ _______ _______ _____ _____    ______ ____
ROOT
ATOM      1  C   UNL     1      -0.018   1.503   0.010  0.00  0.00    +0.061 C 
ATOM      2  C   UNL     1       0.002  -0.004   0.002  0.00  0.00    +0.018 C 
ATOM      3  C   UNL     1      -1.163  -0.668   0.004  0.00  0.00    +0.060 C 
ATOM      4  C   UNL     1      -1.252  -2.171  -0.015  0.00  0.00    +0.177 C 
ATOM      5  N   UNL     1       0.065  -2.740   0.257  0.00  0.00    -0.220 N 
ATOM      6  C   UNL     1       1.211  -2.015   0.250  0.00  0.00    +0.219 A 
ATOM      7  N   UNL     1       2.201  -2.821   0.522  0.00  0.00    -0.187 NA
ATOM      8  C   UNL     1       1.730  -4.062   0.711  0.00  0.00    +0.211 A 
ATOM      9  N   UNL     1       0.424  -4.053   0.558  0.00  0.00    -0.141 NA
ATOM     10  N   UNL     1       1.213  -0.651  -0.013  0.00  0.00    -0.287 N 
ATOM     11  H   UNL     1       2.038  -0.174  -0.197  0.00  0.00    +0.155 HD
ENDROOT
BRANCH   4  12
ATOM     12  C   UNL     1      -1.728  -2.628  -1.370  0.00  0.00    -0.018 A 
ATOM     13  C   UNL     1      -0.990  -2.328  -2.499  0.00  0.00    +0.006 A 
ATOM     14  C   UNL     1      -1.426  -2.748  -3.742  0.00  0.00    +0.004 A 
ATOM     15  C   UNL     1      -2.600  -3.468  -3.855  0.00  0.00    -0.045 A 
ATOM     16  C   UNL     1      -3.338  -3.769  -2.726  0.00  0.00    +0.004 A 
ATOM     17  C   UNL     1      -2.900  -3.353  -1.483  0.00  0.00    +0.006 A 
BRANCH  15  18
ATOM     18  C   UNL     1      -3.076  -3.925  -5.210  0.00  0.00    +0.013 C 
ATOM     19  C   UNL     1      -3.173  -5.452  -5.229  0.00  0.00    +0.012 C 
ATOM     20  C   UNL     1      -4.453  -3.323  -5.497  0.00  0.00    +0.012 C 
ENDBRANCH  15  18
ENDBRANCH   4  12
BRANCH   3  21
ATOM     21  C   UNL     1      -2.365   0.079   0.026  0.00  0.00    +0.241 C 
ATOM     22  O   UNL     1      -2.325   1.296   0.042  0.00  0.00    -0.271 OA
ATOM     23  N   UNL     1      -3.553  -0.556   0.029  0.00  0.00    -0.325 N 
ATOM     24  H   UNL     1      -3.585  -1.526   0.016  0.00  0.00    +0.145 HD
ATOM     25  H   UNL     1      -4.377  -0.044   0.044  0.00  0.00    +0.145 HD
ENDBRANCH   3  21
BRANCH   8  26
ATOM     26  S   UNL     1       2.705  -5.478   1.102  0.00  0.00    -0.080 S 
BRANCH  26  27
ATOM     27  C   UNL     1       4.400  -4.837   1.172  0.00  0.00    +0.115 C 
BRANCH  27  28
ATOM     28  C   UNL     1       5.348  -5.961   1.503  0.00  0.00    -0.002 A 
ATOM     29  C   UNL     1       5.644  -6.252   2.821  0.00  0.00    +0.007 A 
ATOM     30  C   UNL     1       6.513  -7.282   3.124  0.00  0.00    +0.000 A 
ATOM     31  C   UNL     1       7.088  -8.024   2.109  0.00  0.00    +0.003 A 
ATOM     32  C   UNL     1       6.794  -7.736   0.790  0.00  0.00    +0.038 A 
ATOM     33  C   UNL     1       5.919  -6.707   0.485  0.00  0.00    +0.127 A 
ATOM     34  F   UNL     1       5.627  -6.428  -0.804  0.00  0.00    -0.205 F 
ENDBRANCH  27  28
ENDBRANCH  26  27
ENDBRANCH   8  26
TORSDOF 6
