REMARK  Name = ZINC20079474
REMARK  7 active torsions:
REMARK  status: ('A' for Active; 'I' for Inactive)
REMARK    1  A    between atoms: C_1  and  C_2
REMARK    2  A    between atoms: C_5  and  C_39
REMARK    3  A    between atoms: C_9  and  C_14
REMARK    4  A    between atoms: C_14  and  C_16
REMARK    5  A    between atoms: C_14  and  N_27
REMARK    6  A    between atoms: N_20  and  C_21
REMARK    7  A    between atoms: N_30  and  C_33
REMARK                            x       y       z     vdW  Elec       q    Type
REMARK                         _______ _______ _______ _____ _____    ______ ____
ROOT
ATOM      1  C   UNL     1       3.512   0.638  -0.028  0.00  0.00    +0.162 C 
ENDROOT
BRANCH   1  10
ATOM      2  C   UNL     1       6.236   3.053   3.696  0.00  0.00    +0.044 C 
ATOM      3  C   UNL     1       5.940   1.660   4.189  0.00  0.00    -0.041 A 
ATOM      4  C   UNL     1       6.380   1.260   5.420  0.00  0.00    +0.004 A 
ATOM      5  C   UNL     1       6.112  -0.020   5.884  0.00  0.00    +0.005 A 
ATOM      6  C   UNL     1       5.397  -0.912   5.114  0.00  0.00    -0.026 A 
ATOM      7  C   UNL     1       4.940  -0.528   3.858  0.00  0.00    +0.052 A 
ATOM      8  C   UNL     1       5.213   0.772   3.390  0.00  0.00    +0.002 A 
ATOM      9  C   UNL     1       4.726   1.167   2.068  0.00  0.00    +0.021 A 
ATOM     10  C   UNL     1       4.027   0.263   1.338  0.00  0.00    +0.042 A 
ATOM     11  C   UNL     1       3.775  -1.026   1.855  0.00  0.00    +0.254 A 
ATOM     12  O   UNL     1       3.139  -1.821   1.185  0.00  0.00    -0.268 OA
ATOM     13  N   UNL     1       4.223  -1.400   3.067  0.00  0.00    -0.322 N 
ATOM     14  H   UNL     1       4.009  -2.418   3.424  0.00  0.00    +0.169 HD
ATOM     15  C   UNL     1       5.113  -2.299   5.630  0.00  0.00    +0.046 C 
ENDBRANCH   1  10
BRANCH   1  16
ATOM     16  N   UNL     1       3.993  -0.335  -1.017  0.00  0.00    -0.292 NA
ATOM     17  C   UNL     1       5.460  -0.427  -0.995  0.00  0.00    +0.067 C 
ATOM     18  C   UNL     1       5.915  -1.506  -1.981  0.00  0.00    -0.063 C 
ATOM     19  N   UNL     1       5.431  -1.171  -3.327  0.00  0.00    +0.383 N 
ATOM     20  C   UNL     1       3.965  -1.079  -3.349  0.00  0.00    -0.063 C 
ATOM     21  C   UNL     1       3.509  -0.001  -2.364  0.00  0.00    +0.067 C 
ATOM     22  H   UNL     1       5.838  -0.186  -3.599  0.00  0.00    -0.081 HD
BRANCH  19  23
ATOM     23  C   UNL     1       5.913  -2.144  -4.317  0.00  0.00    -0.068 C 
ATOM     24  C   UNL     1       5.330  -3.523  -4.000  0.00  0.00    -0.015 C 
ATOM     25  C   UNL     1       5.832  -4.537  -5.031  0.00  0.00    -0.002 C 
ATOM     26  C   UNL     1       7.359  -4.605  -4.978  0.00  0.00    -0.000 C 
ATOM     27  C   UNL     1       7.942  -3.225  -5.295  0.00  0.00    -0.002 C 
ATOM     28  C   UNL     1       7.440  -2.212  -4.264  0.00  0.00    -0.015 C 
ENDBRANCH  19  23
ENDBRANCH   1  16
BRANCH   1  29
ATOM     29  C   UNL     1       2.005   0.637  -0.014  0.00  0.00    +0.173 A 
ATOM     30  N   UNL     1       1.223  -0.415  -0.012  0.00  0.00    -0.111 NA
ATOM     31  N   UNL     1       0.002  -0.004   0.002  0.00  0.00    -0.023 NA
ATOM     32  N   UNL     1      -0.015   1.283   0.009  0.00  0.00    -0.044 NA
ATOM     33  N   UNL     1       1.200   1.716  -0.000  0.00  0.00    -0.224 N 
BRANCH  33  34
ATOM     34  C   UNL     1       1.625   3.118   0.003  0.00  0.00    +0.111 C 
ATOM     35  C   UNL     1       1.095   3.808   1.261  0.00  0.00    +0.027 C 
ATOM     36  C   UNL     1       1.538   5.273   1.264  0.00  0.00    +0.002 C 
ATOM     37  C   UNL     1       0.984   5.976   0.024  0.00  0.00    +0.000 C 
ATOM     38  C   UNL     1       1.514   5.286  -1.234  0.00  0.00    +0.002 C 
ATOM     39  C   UNL     1       1.070   3.821  -1.237  0.00  0.00    +0.027 C 
ENDBRANCH  33  34
ENDBRANCH   1  29
TORSDOF 5
