REMARK  Name = ZINC64218930
REMARK  15 active torsions:
REMARK  status: ('A' for Active; 'I' for Inactive)
REMARK    1  A    between atoms: C_1  and  O_2
REMARK    2  A    between atoms: O_2  and  C_3
REMARK    3  A    between atoms: C_7  and  C_11
REMARK    4  A    between atoms: C_8  and  O_9
REMARK    5  A    between atoms: O_9  and  C_10
REMARK    6  A    between atoms: C_11  and  C_13
REMARK    7  A    between atoms: C_11  and  C_28
REMARK    8  A    between atoms: C_13  and  N_14
REMARK    9  A    between atoms: N_14  and  C_15
REMARK   10  A    between atoms: C_15  and  C_16
REMARK   11  A    between atoms: C_16  and  C_18
REMARK   12  A    between atoms: C_16  and  O_27
REMARK   13  A    between atoms: C_18  and  O_19
REMARK   14  A    between atoms: O_19  and  C_20
REMARK   15  A    between atoms: C_20  and  C_21
REMARK                            x       y       z     vdW  Elec       q    Type
REMARK                         _______ _______ _______ _____ _____    ______ ____
ROOT
ATOM      1  C   UNL     1       1.394  -4.134   2.219  0.00  0.00    +0.034 C 
ENDROOT
BRANCH   1   2
ATOM      2  C   UNL     1       2.837  -4.570   2.229  0.00  0.00    -0.036 C 
ATOM      3  C   UNL     1       3.455  -5.356   1.318  0.00  0.00    -0.001 A 
ATOM      4  C   UNL     1       2.986  -6.016   0.093  0.00  0.00    +0.010 A 
ATOM      5  C   UNL     1       3.859  -6.756  -0.628  0.00  0.00    +0.001 A 
ATOM      6  C   UNL     1       5.196  -6.910  -0.235  0.00  0.00    +0.002 A 
ATOM      7  C   UNL     1       5.699  -6.335   0.877  0.00  0.00    +0.026 A 
ATOM      8  C   UNL     1       4.871  -5.533   1.710  0.00  0.00    +0.043 A 
ATOM      9  N   UNL     1       5.119  -4.882   2.821  0.00  0.00    -0.380 N 
ATOM     10  C   UNL     1       3.888  -4.212   3.255  0.00  0.00    +0.145 C 
ATOM     11  H   UNL     1       5.974  -4.846   3.276  0.00  0.00    +0.160 HD
ENDBRANCH   1   2
BRANCH   1  16
ATOM     12  C   UNL     1       0.626  -0.619   1.042  0.00  0.00    +0.162 A 
ATOM     13  C   UNL     1       1.202   0.137   2.051  0.00  0.00    +0.049 A 
ATOM     14  C   UNL     1       1.836  -0.490   3.108  0.00  0.00    +0.004 A 
ATOM     15  C   UNL     1       1.897  -1.870   3.161  0.00  0.00    +0.008 A 
ATOM     16  C   UNL     1       1.325  -2.630   2.158  0.00  0.00    +0.003 A 
ATOM     17  C   UNL     1       0.683  -2.008   1.099  0.00  0.00    +0.165 A 
BRANCH  12  19
ATOM     18  C   UNL     1      -0.017   1.425   0.010  0.00  0.00    +0.277 C 
ATOM     19  O   UNL     1       0.002  -0.004   0.002  0.00  0.00    -0.491 OA
ENDBRANCH  12  19
BRANCH  17  20
ATOM     20  O   UNL     1       0.115  -2.754   0.114  0.00  0.00    -0.491 OA
ATOM     21  C   UNL     1       0.940  -3.091  -1.003  0.00  0.00    +0.277 C 
ENDBRANCH  17  20
ENDBRANCH   1  16
BRANCH   1  22
ATOM     22  C   UNL     1       0.704  -4.625   3.493  0.00  0.00    -0.070 C 
BRANCH  22  23
ATOM     23  N   UNL     1       0.666  -6.093   3.495  0.00  0.00    +0.381 N 
ATOM     24  H   UNL     1       0.153  -6.417   2.688  0.00  0.00    -0.086 HD
ATOM     25  H   UNL     1       1.608  -6.454   3.462  0.00  0.00    -0.086 HD
BRANCH  23  26
ATOM     26  C   UNL     1       0.004  -6.564   4.718  0.00  0.00    -0.049 C 
BRANCH  26  27
ATOM     27  C   UNL     1      -0.036  -8.094   4.720  0.00  0.00    +0.123 C 
BRANCH  27  28
ATOM     28  O   UNL     1      -0.763  -8.553   3.578  0.00  0.00    -0.391 OA
ATOM     29  H   UNL     1      -1.678  -8.243   3.544  0.00  0.00    +0.210 HD
ENDBRANCH  27  28
BRANCH  27  30
ATOM     30  C   UNL     1      -0.726  -8.585   5.994  0.00  0.00    +0.189 C 
BRANCH  30  31
ATOM     31  O   UNL     1      -0.660 -10.011   6.052  0.00  0.00    -0.375 OA
BRANCH  31  32
ATOM     32  C   UNL     1      -1.279 -10.575   7.210  0.00  0.00    +0.191 C 
BRANCH  32  33
ATOM     33  C   UNL     1      -1.149 -12.099   7.167  0.00  0.00    +0.144 C 
ATOM     34  C   UNL     1      -1.919 -12.724   8.351  0.00  0.00    +0.036 C 
ATOM     35  C   UNL     1      -0.976 -13.880   8.783  0.00  0.00    +0.031 C 
ATOM     36  C   UNL     1       0.410 -13.253   8.492  0.00  0.00    +0.160 C 
ATOM     37  O   UNL     1       0.227 -12.473   7.298  0.00  0.00    -0.374 OA
ENDBRANCH  32  33
ENDBRANCH  31  32
ENDBRANCH  30  31
ENDBRANCH  27  30
ENDBRANCH  26  27
ENDBRANCH  23  26
ENDBRANCH  22  23
ENDBRANCH   1  22
TORSDOF 13
