REMARK  Name = ZINC02410255
REMARK  6 active torsions:
REMARK  status: ('A' for Active; 'I' for Inactive)
REMARK    1  A    between atoms: C_4  and  N_7
REMARK    2  A    between atoms: C_15  and  C_19
REMARK    3  A    between atoms: C_15  and  N_23
REMARK    4  A    between atoms: C_24  and  C_26
REMARK    5  A    between atoms: C_26  and  C_27
REMARK    6  A    between atoms: C_27  and  C_28
REMARK                            x       y       z     vdW  Elec       q    Type
REMARK                         _______ _______ _______ _____ _____    ______ ____
ROOT
ATOM      1  N   UNL     1       3.424  -0.722  -0.061  0.00  0.00    -0.249 N 
ATOM      2  C   UNL     1       3.524  -2.096   0.026  0.00  0.00    +0.125 A 
ATOM      3  C   UNL     1       4.769  -2.653   0.064  0.00  0.00    +0.097 A 
ATOM      4  C   UNL     1       5.907  -1.838   0.016  0.00  0.00    +0.262 A 
ATOM      5  N   UNL     1       5.758  -0.500  -0.069  0.00  0.00    -0.274 N 
ATOM      6  C   UNL     1       4.528   0.043  -0.111  0.00  0.00    +0.335 A 
ATOM      7  O   UNL     1       4.412   1.250  -0.192  0.00  0.00    -0.246 OA
ATOM      8  O   UNL     1       7.020  -2.333   0.050  0.00  0.00    -0.267 OA
ATOM      9  C   UNL     1       4.570  -4.147   0.158  0.00  0.00    +0.240 C 
ATOM     10  C   UNL     1       3.063  -4.305   0.164  0.00  0.00    +0.256 C 
ATOM     11  O   UNL     1       2.442  -5.345   0.228  0.00  0.00    -0.272 OA
ATOM     12  N   UNL     1       2.551  -3.064   0.085  0.00  0.00    -0.269 N 
ATOM     13  H   UNL     1       6.541   0.073  -0.103  0.00  0.00    +0.173 HD
ATOM     14  H   UNL     1       1.600  -2.874   0.070  0.00  0.00    +0.156 HD
ENDROOT
BRANCH   1  18
ATOM     15  C   UNL     1      -0.338   1.068  -0.185  0.00  0.00    +0.000 A 
ATOM     16  C   UNL     1       0.478   1.099  -1.301  0.00  0.00    +0.002 A 
ATOM     17  C   UNL     1       1.725   0.506  -1.263  0.00  0.00    +0.026 A 
ATOM     18  C   UNL     1       2.159  -0.120  -0.102  0.00  0.00    +0.053 A 
ATOM     19  C   UNL     1       1.338  -0.149   1.017  0.00  0.00    +0.026 A 
ATOM     20  C   UNL     1       0.091   0.445   0.972  0.00  0.00    +0.002 A 
ENDBRANCH   1  18
BRANCH   9  21
ATOM     21  C   UNL     1       5.181  -4.849  -1.057  0.00  0.00    +0.424 C 
ATOM     22  F   UNL     1       6.569  -4.679  -1.046  0.00  0.00    -0.167 F 
ATOM     23  F   UNL     1       4.878  -6.214  -1.008  0.00  0.00    -0.167 F 
ATOM     24  F   UNL     1       4.652  -4.296  -2.229  0.00  0.00    -0.167 F 
ENDBRANCH   9  21
BRANCH   9  25
ATOM     25  N   UNL     1       5.149  -4.667   1.400  0.00  0.00    -0.291 N 
ATOM     26  C   UNL     1       4.687  -4.236   2.590  0.00  0.00    +0.214 C 
ATOM     27  O   UNL     1       3.854  -3.356   2.635  0.00  0.00    -0.276 OA
ATOM     28  H   UNL     1       5.864  -5.322   1.365  0.00  0.00    +0.150 HD
BRANCH  26  29
ATOM     29  C   UNL     1       5.205  -4.849   3.866  0.00  0.00    +0.096 C 
BRANCH  29  30
ATOM     30  C   UNL     1       4.523  -4.185   5.064  0.00  0.00    +0.013 C 
BRANCH  30  31
ATOM     31  C   UNL     1       5.050  -4.807   6.359  0.00  0.00    -0.011 C 
ATOM     32  C   UNL     1       4.637  -6.279   6.423  0.00  0.00    +0.003 C 
ATOM     33  C   UNL     1       5.163  -6.900   7.718  0.00  0.00    +0.000 C 
ATOM     34  C   UNL     1       4.576  -6.153   8.918  0.00  0.00    +0.000 C 
ATOM     35  C   UNL     1       4.989  -4.681   8.854  0.00  0.00    +0.000 C 
ATOM     36  C   UNL     1       4.463  -4.060   7.559  0.00  0.00    +0.003 C 
ENDBRANCH  30  31
ENDBRANCH  29  30
ENDBRANCH  26  29
ENDBRANCH   9  25
TORSDOF 6
