REMARK  Name = ZINC02324460
REMARK  8 active torsions:
REMARK  status: ('A' for Active; 'I' for Inactive)
REMARK    1  A    between atoms: C_1  and  C_2
REMARK    2  A    between atoms: C_2  and  C_3
REMARK    3  A    between atoms: C_3  and  C_4
REMARK    4  A    between atoms: C_4  and  N_5
REMARK    5  A    between atoms: N_13  and  N_14
REMARK    6  A    between atoms: C_15  and  C_17
REMARK    7  A    between atoms: C_17  and  N_18
REMARK    8  A    between atoms: N_18  and  C_19
REMARK                            x       y       z     vdW  Elec       q    Type
REMARK                         _______ _______ _______ _____ _____    ______ ____
ROOT
ATOM      1  N   UNL     1       5.355  -3.482  -3.599  0.00  0.00    -0.205 N 
ATOM      2  C   UNL     1       6.556  -3.829  -4.104  0.00  0.00    +0.249 C 
ATOM      3  O   UNL     1       6.646  -4.189  -5.258  0.00  0.00    -0.272 OA
ATOM      4  H   UNL     1       5.282  -3.194  -2.676  0.00  0.00    +0.177 HD
ENDROOT
BRANCH   1  13
ATOM      5  N   UNL     1       1.425  -2.500  -2.470  0.00  0.00    -0.266 N 
ATOM      6  C   UNL     1       0.791  -2.758  -3.682  0.00  0.00    +0.046 A 
ATOM      7  C   UNL     1      -0.541  -2.655  -4.068  0.00  0.00    +0.025 A 
ATOM      8  C   UNL     1      -0.916  -2.979  -5.356  0.00  0.00    +0.017 A 
ATOM      9  C   UNL     1       0.025  -3.409  -6.278  0.00  0.00    +0.019 A 
ATOM     10  C   UNL     1       1.352  -3.517  -5.912  0.00  0.00    +0.027 A 
ATOM     11  C   UNL     1       1.739  -3.192  -4.617  0.00  0.00    +0.029 A 
ATOM     12  C   UNL     1       3.045  -3.198  -3.917  0.00  0.00    +0.153 C 
ATOM     13  N   UNL     1       4.213  -3.536  -4.408  0.00  0.00    -0.174 NA
ATOM     14  C   UNL     1       2.746  -2.733  -2.547  0.00  0.00    +0.271 C 
ATOM     15  O   UNL     1       3.552  -2.590  -1.647  0.00  0.00    -0.268 OA
ATOM     16 BR   UNL     1      -0.509  -3.848  -8.038  0.00  0.00    -0.050 Br
BRANCH   5  17
ATOM     17  C   UNL     1       0.739  -2.027  -1.265  0.00  0.00    +0.114 C 
BRANCH  17  18
ATOM     18  C   UNL     1       0.718  -0.497  -1.257  0.00  0.00    +0.019 C 
BRANCH  18  20
ATOM     19  C   UNL     1      -0.019   1.526   0.010  0.00  0.00    +0.004 C 
ATOM     20  C   UNL     1       0.002  -0.004   0.002  0.00  0.00    -0.002 C 
ENDBRANCH  18  20
ENDBRANCH  17  18
ENDBRANCH   5  17
ENDBRANCH   1  13
BRANCH   2  21
ATOM     21  C   UNL     1       7.784  -3.771  -3.234  0.00  0.00    +0.199 C 
BRANCH  21  22
ATOM     22  N   UNL     1       8.953  -4.194  -4.010  0.00  0.00    -0.335 N 
ATOM     23  H   UNL     1       8.850  -4.455  -4.938  0.00  0.00    +0.147 HD
BRANCH  22  24
ATOM     24  C   UNL     1      10.214  -4.223  -3.413  0.00  0.00    +0.028 A 
ATOM     25  C   UNL     1      10.354  -3.851  -2.070  0.00  0.00    +0.023 A 
ATOM     26  C   UNL     1      11.570  -3.869  -1.463  0.00  0.00    +0.010 A 
ATOM     27  C   UNL     1      12.709  -4.267  -2.186  0.00  0.00    -0.018 A 
ATOM     28  C   UNL     1      13.978  -4.296  -1.584  0.00  0.00    +0.008 A 
ATOM     29  C   UNL     1      15.060  -4.686  -2.312  0.00  0.00    +0.001 A 
ATOM     30  C   UNL     1      14.930  -5.058  -3.649  0.00  0.00    +0.001 A 
ATOM     31  C   UNL     1      13.717  -5.042  -4.265  0.00  0.00    +0.008 A 
ATOM     32  C   UNL     1      12.576  -4.645  -3.546  0.00  0.00    -0.016 A 
ATOM     33  C   UNL     1      11.308  -4.622  -4.149  0.00  0.00    +0.031 A 
ENDBRANCH  22  24
ENDBRANCH  21  22
ENDBRANCH   2  21
TORSDOF 7
