REMARK  Name = ZINC04708299
REMARK  6 active torsions:
REMARK  status: ('A' for Active; 'I' for Inactive)
REMARK    1  A    between atoms: C_1  and  C_2
REMARK    2  A    between atoms: C_3  and  C_22
REMARK    3  A    between atoms: C_5  and  C_7
REMARK    4  A    between atoms: C_9  and  C_20
REMARK    5  A    between atoms: C_10  and  N_19
REMARK    6  A    between atoms: C_22  and  N_23
REMARK                            x       y       z     vdW  Elec       q    Type
REMARK                         _______ _______ _______ _____ _____    ______ ____
ROOT
ATOM      1  C   UNL     1       4.141  -3.608   3.867  0.00  0.00    +0.052 C 
ATOM      2  C   UNL     1       3.485  -3.366   2.532  0.00  0.00    -0.008 A 
ATOM      3  C   UNL     1       3.865  -3.794   1.304  0.00  0.00    -0.018 A 
ATOM      4  C   UNL     1       3.097  -3.451   0.207  0.00  0.00    +0.017 A 
ATOM      5  C   UNL     1       1.992  -2.687   0.391  0.00  0.00    +0.003 A 
ATOM      6  S   UNL     1       2.004  -2.441   2.159  0.00  0.00    -0.097 S 
ENDROOT
BRANCH   5   7
ATOM      7  C   UNL     1       1.006  -2.183  -0.631  0.00  0.00    +0.108 C 
ATOM      8  C   UNL     1      -0.362  -2.714  -0.308  0.00  0.00    +0.099 C 
ATOM      9  C   UNL     1      -1.280  -1.922   0.297  0.00  0.00    +0.198 C 
ATOM     10  O   UNL     1      -0.998  -0.653   0.628  0.00  0.00    -0.445 OA
ATOM     11  C   UNL     1       0.002  -0.004   0.002  0.00  0.00    +0.115 C 
ATOM     12  C   UNL     1       0.994  -0.673  -0.613  0.00  0.00    +0.046 C 
ATOM     13  C   UNL     1       2.050   0.006  -1.251  0.00  0.00    +0.163 C 
ATOM     14  O   UNL     1       2.918  -0.633  -1.810  0.00  0.00    -0.292 OA
ATOM     15  C   UNL     1       2.122   1.509  -1.252  0.00  0.00    +0.080 C 
ATOM     16  C   UNL     1       1.415   2.040  -0.001  0.00  0.00    +0.016 C 
ATOM     17  C   UNL     1      -0.018   1.507   0.010  0.00  0.00    +0.075 C 
BRANCH   9  18
ATOM     18  N   UNL     1      -2.524  -2.429   0.578  0.00  0.00    -0.328 N 
ATOM     19  H   UNL     1      -3.189  -1.871   1.012  0.00  0.00    +0.145 HD
ATOM     20  H   UNL     1      -2.739  -3.346   0.344  0.00  0.00    +0.145 HD
ENDBRANCH   9  18
BRANCH   8  21
ATOM     21  C   UNL     1      -0.698  -4.066  -0.643  0.00  0.00    +0.101 C 
ATOM     22  N   UNL     1      -0.964  -5.138  -0.908  0.00  0.00    -0.191 NA
ENDBRANCH   8  21
ENDBRANCH   5   7
BRANCH   3  23
ATOM     23  C   UNL     1       5.103  -4.637   1.137  0.00  0.00    +0.159 C 
BRANCH  23  24
ATOM     24  N   UNL     1       4.769  -6.045   1.366  0.00  0.00    -0.326 N 
ATOM     25  C   UNL     1       4.900  -6.725   2.537  0.00  0.00    +0.200 A 
ATOM     26  N   UNL     1       4.511  -7.957   2.385  0.00  0.00    -0.236 NA
ATOM     27  C   UNL     1       4.103  -8.153   1.104  0.00  0.00    +0.089 A 
ATOM     28  C   UNL     1       4.258  -6.927   0.434  0.00  0.00    +0.069 A 
ATOM     29  C   UNL     1       3.922  -6.827  -0.909  0.00  0.00    +0.028 A 
ATOM     30  C   UNL     1       3.429  -7.930  -1.573  0.00  0.00    +0.002 A 
ATOM     31  C   UNL     1       3.271  -9.138  -0.910  0.00  0.00    +0.002 A 
ATOM     32  C   UNL     1       3.601  -9.256   0.411  0.00  0.00    +0.030 A 
ENDBRANCH  23  24
ENDBRANCH   3  23
TORSDOF 5
