REMARK  Name = ZINC24474651
REMARK  6 active torsions:
REMARK  status: ('A' for Active; 'I' for Inactive)
REMARK    1  A    between atoms: C_4  and  C_7
REMARK    2  A    between atoms: C_7  and  C_8
REMARK    3  A    between atoms: N_13  and  S_14
REMARK    4  A    between atoms: S_14  and  C_17
REMARK    5  A    between atoms: C_21  and  S_23
REMARK    6  A    between atoms: S_23  and  N_26
REMARK                            x       y       z     vdW  Elec       q    Type
REMARK                         _______ _______ _______ _____ _____    ______ ____
ROOT
ATOM      1  S   UNL     1       3.985   0.871   0.490  0.00  0.00    +0.061 S 
ATOM      2  O   UNL     1       4.331   2.248   0.460  0.00  0.00    -0.153 OA
ATOM      3  O   UNL     1       4.394   0.005   1.541  0.00  0.00    -0.153 OA
ENDROOT
BRANCH   1   4
ATOM      4  C   UNL     1       4.592   0.166  -1.007  0.00  0.00    +0.107 A 
ATOM      5  C   UNL     1       4.800   0.968  -2.114  0.00  0.00    +0.028 A 
ATOM      6  C   UNL     1       5.276   0.415  -3.288  0.00  0.00    +0.004 A 
ATOM      7  C   UNL     1       5.544  -0.940  -3.355  0.00  0.00    +0.028 A 
ATOM      8  C   UNL     1       5.336  -1.741  -2.249  0.00  0.00    +0.107 A 
ATOM      9  C   UNL     1       4.865  -1.187  -1.073  0.00  0.00    +0.057 A 
BRANCH   8  10
ATOM     10  S   UNL     1       5.678  -3.467  -2.334  0.00  0.00    +0.056 S 
ATOM     11  O   UNL     1       4.884  -4.089  -1.333  0.00  0.00    -0.153 OA
ATOM     12  O   UNL     1       5.596  -3.830  -3.706  0.00  0.00    -0.153 OA
BRANCH  10  13
ATOM     13  N   UNL     1       7.258  -3.676  -1.883  0.00  0.00    -0.204 NA
ATOM     14  H   UNL     1       7.513  -4.746  -1.923  0.00  0.00    +0.144 HD
ATOM     15  H   UNL     1       7.399  -3.304  -0.857  0.00  0.00    +0.144 HD
ENDBRANCH  10  13
ENDBRANCH   8  10
ENDBRANCH   1   4
BRANCH   1  20
ATOM     16  C   UNL     1       1.440   1.882  -0.003  0.00  0.00    +0.084 C 
ATOM     17  C   UNL     1      -0.005   1.349   0.083  0.00  0.00    +0.022 C 
ATOM     18  C   UNL     1       0.186  -0.189   0.021  0.00  0.00    +0.019 C 
ATOM     19  C   UNL     1       1.510  -0.369   0.805  0.00  0.00    +0.110 C 
ATOM     20  N   UNL     1       2.332   0.796   0.431  0.00  0.00    -0.173 NA
BRANCH  16  21
ATOM     21  C   UNL     1       1.605   3.091   0.919  0.00  0.00    +0.055 C 
BRANCH  21  25
ATOM     22  C   UNL     1      -0.830   6.304  -0.494  0.00  0.00    +0.000 A 
ATOM     23  C   UNL     1      -1.302   5.462   0.495  0.00  0.00    +0.000 A 
ATOM     24  C   UNL     1      -0.514   4.422   0.953  0.00  0.00    +0.004 A 
ATOM     25  C   UNL     1       0.746   4.224   0.421  0.00  0.00    -0.046 A 
ATOM     26  C   UNL     1       1.221   5.070  -0.565  0.00  0.00    +0.004 A 
ATOM     27  C   UNL     1       0.431   6.106  -1.026  0.00  0.00    +0.000 A 
ENDBRANCH  21  25
ENDBRANCH  16  21
ENDBRANCH   1  20
TORSDOF 6
