REMARK  Name = ZINC39931571
REMARK  6 active torsions:
REMARK  status: ('A' for Active; 'I' for Inactive)
REMARK    1  A    between atoms: C_1  and  C_2
REMARK    2  A    between atoms: C_5  and  C_8
REMARK    3  A    between atoms: C_8  and  C_10
REMARK    4  A    between atoms: C_11  and  N_27
REMARK    5  A    between atoms: C_13  and  C_22
REMARK    6  A    between atoms: C_14  and  C_20
REMARK                            x       y       z     vdW  Elec       q    Type
REMARK                         _______ _______ _______ _____ _____    ______ ____
ROOT
ATOM      1  C   UNL     1       0.178  -4.963   1.192  0.00  0.00    +0.083 A 
ATOM      2  C   UNL     1       0.318  -6.329   1.383  0.00  0.00    +0.053 A 
ATOM      3  C   UNL     1       0.427  -6.829   2.694  0.00  0.00    +0.041 A 
ATOM      4  C   UNL     1       0.577  -8.192   3.106  0.00  0.00    +0.049 A 
ATOM      5  C   UNL     1       0.668  -8.476   4.479  0.00  0.00    +0.102 A 
ATOM      6  C   UNL     1       0.611  -7.426   5.415  0.00  0.00    +0.136 A 
ATOM      7  N   UNL     1       0.472  -6.175   5.005  0.00  0.00    -0.224 NA
ATOM      8  C   UNL     1       0.384  -5.865   3.728  0.00  0.00    +0.114 A 
ATOM      9  S   UNL     1       0.203  -4.326   2.857  0.00  0.00    -0.063 S 
ATOM     10  N   UNL     1       0.701  -7.702   6.767  0.00  0.00    -0.342 N 
ATOM     11  H   UNL     1       0.802  -8.618   7.069  0.00  0.00    +0.144 HD
ATOM     12  H   UNL     1       0.662  -6.980   7.413  0.00  0.00    +0.144 HD
ENDROOT
BRANCH   4  13
ATOM     13  C   UNL     1       0.633  -9.273   2.112  0.00  0.00    +0.137 A 
ATOM     14  C   UNL     1       1.703 -10.084   1.870  0.00  0.00    +0.050 A 
ATOM     15  C   UNL     1       1.318 -10.967   0.846  0.00  0.00    +0.042 A 
ATOM     16  C   UNL     1       0.046 -10.658   0.514  0.00  0.00    +0.196 A 
ATOM     17  O   UNL     1      -0.365  -9.640   1.284  0.00  0.00    -0.463 OA
ENDBRANCH   4  13
BRANCH   2  18
ATOM     18  N   UNL     1       0.349  -7.190   0.298  0.00  0.00    -0.356 N 
ATOM     19  H   UNL     1       0.790  -8.051   0.375  0.00  0.00    +0.142 HD
ATOM     20  H   UNL     1      -0.070  -6.933  -0.538  0.00  0.00    +0.142 HD
ENDBRANCH   2  18
BRANCH   1  21
ATOM     21  C   UNL     1       0.053  -4.253  -0.021  0.00  0.00    +0.202 C 
ATOM     22  O   UNL     1      -0.058  -4.858  -1.073  0.00  0.00    -0.286 OA
BRANCH  21  27
ATOM     23  C   UNL     1       0.067   1.503   0.001  0.00  0.00    +0.044 C 
ATOM     24  C   UNL     1       0.064  -0.004  -0.005  0.00  0.00    -0.050 A 
ATOM     25  C   UNL     1      -0.551  -0.688  -1.039  0.00  0.00    +0.004 A 
ATOM     26  C   UNL     1      -0.558  -2.067  -1.050  0.00  0.00    +0.012 A 
ATOM     27  C   UNL     1       0.057  -2.773  -0.016  0.00  0.00    +0.023 A 
ATOM     28  C   UNL     1       0.676  -2.078   1.024  0.00  0.00    +0.012 A 
ATOM     29  C   UNL     1       0.680  -0.698   1.021  0.00  0.00    +0.004 A 
ENDBRANCH  21  27
ENDBRANCH   1  21
BRANCH   5  30
ATOM     30  C   UNL     1       0.817  -9.829   4.924  0.00  0.00    +0.103 C 
ATOM     31  N   UNL     1       0.936 -10.902   5.277  0.00  0.00    -0.191 NA
ENDBRANCH   5  30
TORSDOF 5
