REMARK  Name = ZINC40071340
REMARK  5 active torsions:
REMARK  status: ('A' for Active; 'I' for Inactive)
REMARK    1  A    between atoms: C_4  and  N_7
REMARK    2  A    between atoms: C_11  and  C_14
REMARK    3  A    between atoms: N_16  and  C_17
REMARK    4  A    between atoms: C_17  and  C_18
REMARK    5  A    between atoms: C_18  and  N_24
REMARK                            x       y       z     vdW  Elec       q    Type
REMARK                         _______ _______ _______ _____ _____    ______ ____
ROOT
ATOM      1  C   UNL     1       5.439  -5.351  -0.886  0.00  0.00    +0.218 C 
ATOM      2  O   UNL     1       5.783  -4.553  -0.041  0.00  0.00    -0.275 OA
ATOM      3  N   UNL     1       4.300  -6.055  -0.724  0.00  0.00    -0.316 N 
ATOM      4  H   UNL     1       4.025  -6.693  -1.401  0.00  0.00    +0.149 HD
ENDROOT
BRANCH   1   9
ATOM      5  N   UNL     1       7.668  -7.170  -3.315  0.00  0.00    -0.313 N 
ATOM      6  C   UNL     1       8.833  -6.280  -3.400  0.00  0.00    +0.106 C 
ATOM      7  C   UNL     1       8.351  -4.828  -3.318  0.00  0.00    +0.020 C 
ATOM      8  C   UNL     1       7.510  -4.644  -2.053  0.00  0.00    +0.016 C 
ATOM      9  C   UNL     1       6.284  -5.557  -2.117  0.00  0.00    +0.092 C 
ATOM     10  C   UNL     1       6.739  -7.013  -2.188  0.00  0.00    +0.119 C 
BRANCH   5  14
ATOM     11  C   UNL     1       6.979 -10.029  -6.126  0.00  0.00    +0.130 A 
ATOM     12  C   UNL     1       7.934  -9.052  -6.333  0.00  0.00    +0.132 A 
ATOM     13  N   UNL     1       8.149  -8.128  -5.411  0.00  0.00    -0.237 NA
ATOM     14  C   UNL     1       7.445  -8.139  -4.287  0.00  0.00    +0.140 A 
ATOM     15  C   UNL     1       6.483  -9.126  -4.082  0.00  0.00    +0.154 A 
ATOM     16  N   UNL     1       6.275 -10.044  -5.006  0.00  0.00    -0.258 NA
ENDBRANCH   5  14
ENDBRANCH   1   9
BRANCH   3  17
ATOM     17  C   UNL     1       3.479  -5.854   0.472  0.00  0.00    +0.092 C 
BRANCH  17  18
ATOM     18  C   UNL     1       2.204  -6.694   0.362  0.00  0.00    -0.050 C 
ATOM     19  C   UNL     1       1.311  -6.426   1.575  0.00  0.00    -0.010 C 
ATOM     20  C   UNL     1       2.061  -6.803   2.854  0.00  0.00    -0.001 C 
ATOM     21  C   UNL     1       2.430  -8.287   2.810  0.00  0.00    -0.000 C 
ATOM     22  C   UNL     1       3.323  -8.555   1.598  0.00  0.00    -0.001 C 
ATOM     23  C   UNL     1       2.573  -8.178   0.318  0.00  0.00    -0.010 C 
BRANCH  18  24
ATOM     24  N   UNL     1       1.484  -6.332  -0.866  0.00  0.00    +0.384 N 
ATOM     25  C   UNL     1       1.207  -4.890  -0.862  0.00  0.00    -0.078 C 
ATOM     26  C   UNL     1       0.529  -4.494  -2.176  0.00  0.00    -0.019 C 
ATOM     27  C   UNL     1      -0.784  -5.267  -2.319  0.00  0.00    -0.004 C 
ATOM     28  C   UNL     1      -0.492  -6.769  -2.247  0.00  0.00    -0.019 C 
ATOM     29  C   UNL     1       0.224  -7.081  -0.931  0.00  0.00    -0.078 C 
ATOM     30  H   UNL     1       2.053  -6.561  -1.668  0.00  0.00    -0.081 HD
ENDBRANCH  18  24
ENDBRANCH  17  18
ENDBRANCH   3  17
TORSDOF 5
