REMARK  Name = ZINC04312303
REMARK  3 active torsions:
REMARK  status: ('A' for Active; 'I' for Inactive)
REMARK    1  A    between atoms: C_4  and  C_8
REMARK    2  A    between atoms: N_9  and  N_10
REMARK    3  A    between atoms: C_11  and  C_13
REMARK                            x       y       z     vdW  Elec       q    Type
REMARK                         _______ _______ _______ _____ _____    ______ ____
ROOT
ATOM      1  N   UNL     1       4.941  -2.660  -0.062  0.00  0.00    -0.202 N 
ATOM      2  C   UNL     1       4.963  -4.008  -0.069  0.00  0.00    +0.284 C 
ATOM      3  O   UNL     1       3.920  -4.633  -0.062  0.00  0.00    -0.267 OA
ATOM      4  H   UNL     1       5.773  -2.161  -0.068  0.00  0.00    +0.178 HD
ENDROOT
BRANCH   2   5
ATOM      5  C   UNL     1       6.254  -4.724  -0.086  0.00  0.00    +0.152 A 
ATOM      6  C   UNL     1       6.439  -6.126  -0.102  0.00  0.00    +0.005 A 
ATOM      7  C   UNL     1       7.776  -6.320  -0.114  0.00  0.00    +0.040 A 
ATOM      8  N   UNL     1       8.354  -5.097  -0.107  0.00  0.00    -0.281 N 
ATOM      9  H   UNL     1       9.311  -4.936  -0.113  0.00  0.00    +0.189 HD
ATOM     10  N   UNL     1       7.455  -4.180  -0.096  0.00  0.00    -0.169 NA
ATOM     11  C   UNL     1       8.087  -7.800  -0.132  0.00  0.00    +0.055 C 
ATOM     12  C   UNL     1       6.777  -8.491   0.304  0.00  0.00    +0.011 C 
ATOM     13  C   UNL     1       5.712  -7.449  -0.109  0.00  0.00    +0.039 C 
ENDBRANCH   2   5
BRANCH   1  15
ATOM     14  C   UNL     1       3.695  -0.682  -0.038  0.00  0.00    +0.141 C 
ATOM     15  N   UNL     1       3.716  -1.980  -0.046  0.00  0.00    -0.187 NA
BRANCH  14  19
ATOM     16  C   UNL     1      -0.017   1.379   0.010  0.00  0.00    +0.003 A 
ATOM     17  C   UNL     1       1.168   2.095   0.002  0.00  0.00    +0.021 A 
ATOM     18  C   UNL     1       2.378   1.431  -0.013  0.00  0.00    +0.051 A 
ATOM     19  C   UNL     1       2.406   0.034  -0.021  0.00  0.00    +0.031 A 
ATOM     20  C   UNL     1       1.205  -0.682  -0.013  0.00  0.00    +0.051 A 
ATOM     21  C   UNL     1       0.002  -0.004   0.002  0.00  0.00    +0.021 A 
ATOM     22 CL   UNL     1       1.226  -2.417  -0.023  0.00  0.00    -0.083 Cl
ATOM     23 CL   UNL     1       3.863   2.331  -0.024  0.00  0.00    -0.083 Cl
ENDBRANCH  14  19
ENDBRANCH   1  15
TORSDOF 3
