REMARK  Name = ZINC06196048
REMARK  10 active torsions:
REMARK  status: ('A' for Active; 'I' for Inactive)
REMARK    1  A    between atoms: C_1  and  C_2
REMARK    2  A    between atoms: C_2  and  O_3
REMARK    3  A    between atoms: O_3  and  C_4
REMARK    4  A    between atoms: C_6  and  C_11
REMARK    5  A    between atoms: C_9  and  O_10
REMARK    6  A    between atoms: C_16  and  C_21
REMARK    7  A    between atoms: C_27  and  C_37
REMARK    8  A    between atoms: C_28  and  C_29
REMARK    9  A    between atoms: C_29  and  O_31
REMARK   10  A    between atoms: O_31  and  C_32
REMARK                            x       y       z     vdW  Elec       q    Type
REMARK                         _______ _______ _______ _____ _____    ______ ____
ROOT
ATOM      1  C   UNL     1       1.033  -2.227   0.502  0.00  0.00    +0.092 C 
ATOM      2  C   UNL     1       1.077  -0.721   0.557  0.00  0.00    +0.024 C 
ATOM      3  C   UNL     1       2.120  -0.082   1.127  0.00  0.00    +0.016 C 
ATOM      4  C   UNL     1       2.162   1.425   1.201  0.00  0.00    +0.060 C 
ATOM      5  C   UNL     1       1.424   2.018  -0.001  0.00  0.00    +0.039 C 
ATOM      6  C   UNL     1      -0.018   1.500   0.010  0.00  0.00    +0.088 C 
ATOM      7  C   UNL     1       0.002  -0.004   0.002  0.00  0.00    +0.162 C 
ATOM      8  O   UNL     1      -0.927  -0.611  -0.493  0.00  0.00    -0.292 OA
ATOM      9  N   UNL     1       3.168  -0.791   1.650  0.00  0.00    -0.321 N 
ATOM     10  C   UNL     1       3.384  -2.090   1.282  0.00  0.00    +0.016 C 
ATOM     11  C   UNL     1       2.396  -2.814   0.727  0.00  0.00    +0.065 C 
ATOM     12  C   UNL     1       4.738  -2.714   1.499  0.00  0.00    +0.061 C 
ATOM     13  H   UNL     1       3.846  -0.317   2.374  0.00  0.00    +0.152 HD
ENDROOT
BRANCH   1  16
ATOM     14  C   UNL     1      -1.877  -3.949   2.187  0.00  0.00    +0.162 A 
ATOM     15  C   UNL     1      -1.012  -3.482   1.210  0.00  0.00    +0.054 A 
ATOM     16  C   UNL     1       0.094  -2.734   1.566  0.00  0.00    -0.032 A 
ATOM     17  C   UNL     1       0.344  -2.455   2.897  0.00  0.00    +0.008 A 
ATOM     18  C   UNL     1      -0.517  -2.913   3.876  0.00  0.00    +0.049 A 
ATOM     19  C   UNL     1      -1.628  -3.663   3.526  0.00  0.00    +0.158 A 
BRANCH  19  20
ATOM     20  O   UNL     1      -2.473  -4.119   4.489  0.00  0.00    -0.503 OA
ATOM     21  H   UNL     1      -2.276  -3.893   5.547  0.00  0.00    +0.292 HD
ENDBRANCH  19  20
BRANCH  14  22
ATOM     22  O   UNL     1      -2.966  -4.686   1.839  0.00  0.00    -0.489 OA
BRANCH  22  24
ATOM     23  C   UNL     1      -4.424  -5.777   0.250  0.00  0.00    +0.048 C 
ATOM     24  C   UNL     1      -3.158  -4.940   0.446  0.00  0.00    +0.226 C 
ENDBRANCH  22  24
ENDBRANCH  14  22
ENDBRANCH   1  16
BRANCH   5  25
ATOM     25  C   UNL     1       1.422   3.522   0.099  0.00  0.00    -0.006 A 
ATOM     26  C   UNL     1       1.919   4.436  -0.771  0.00  0.00    +0.011 A 
ATOM     27  C   UNL     1       1.803   5.780  -0.470  0.00  0.00    +0.008 A 
ATOM     28  C   UNL     1       1.196   6.145   0.686  0.00  0.00    +0.045 A 
ATOM     29  S   UNL     1       0.758   4.563   1.389  0.00  0.00    -0.101 S 
ENDBRANCH   5  25
BRANCH  11  30
ATOM     30  C   UNL     1       2.647  -4.153   0.348  0.00  0.00    +0.338 C 
ATOM     31  O   UNL     1       3.748  -4.640   0.525  0.00  0.00    -0.245 OA
BRANCH  30  32
ATOM     32  O   UNL     1       1.664  -4.891  -0.210  0.00  0.00    -0.458 OA
BRANCH  32  33
ATOM     33  C   UNL     1       1.988  -6.237  -0.568  0.00  0.00    +0.177 C 
ATOM     34  C   UNL     1       2.467  -6.293  -2.033  0.00  0.00    +0.044 C 
ATOM     35  C   UNL     1       1.883  -7.623  -2.572  0.00  0.00    +0.004 C 
ATOM     36  C   UNL     1       0.491  -7.684  -1.897  0.00  0.00    +0.004 C 
ATOM     37  C   UNL     1       0.732  -7.121  -0.481  0.00  0.00    +0.044 C 
ENDBRANCH  32  33
ENDBRANCH  30  32
ENDBRANCH  11  30
TORSDOF 8
