REMARK  Name = ZINC27522976
REMARK  10 active torsions:
REMARK  status: ('A' for Active; 'I' for Inactive)
REMARK    1  A    between atoms: C_1  and  C_2
REMARK    2  A    between atoms: C_2  and  O_3
REMARK    3  A    between atoms: O_3  and  C_4
REMARK    4  A    between atoms: C_7  and  C_10
REMARK    5  A    between atoms: C_12  and  N_26
REMARK    6  A    between atoms: N_16  and  C_17
REMARK    7  A    between atoms: C_20  and  O_23
REMARK    8  A    between atoms: O_23  and  C_24
REMARK    9  A    between atoms: C_24  and  C_25
REMARK   10  A    between atoms: C_32  and  N_37
REMARK                            x       y       z     vdW  Elec       q    Type
REMARK                         _______ _______ _______ _____ _____    ______ ____
ROOT
ATOM      1  C   UNL     1       2.494  -0.560  -6.533  0.00  0.00    +0.141 C 
ATOM      2  C   UNL     1       1.922  -0.156  -7.887  0.00  0.00    +0.196 C 
ATOM      3  C   UNL     1       0.791   0.418  -7.086  0.00  0.00    +0.244 C 
ATOM      4  O   UNL     1      -0.226   1.005  -7.388  0.00  0.00    -0.273 OA
ATOM      5  N   UNL     1       1.321   0.044  -5.915  0.00  0.00    -0.260 N 
ENDROOT
BRANCH   2   6
ATOM      6  N   UNL     1       2.722   0.848  -8.594  0.00  0.00    -0.220 N 
ATOM      7  C   UNL     1       3.743   0.562  -9.421  0.00  0.00    +0.255 C 
ATOM      8  O   UNL     1       4.143  -0.551  -9.696  0.00  0.00    -0.270 OA
ATOM      9  C   UNL     1       4.296   1.831  -9.941  0.00  0.00    +0.050 A 
ATOM     10  C   UNL     1       5.327   2.153 -10.809  0.00  0.00    +0.016 A 
ATOM     11  C   UNL     1       5.597   3.483 -11.091  0.00  0.00    +0.033 A 
ATOM     12  C   UNL     1       4.846   4.489 -10.512  0.00  0.00    +0.127 A 
ATOM     13  C   UNL     1       3.811   4.181  -9.643  0.00  0.00    +0.046 A 
ATOM     14  C   UNL     1       3.530   2.856  -9.352  0.00  0.00    +0.052 A 
ATOM     15  C   UNL     1       2.534   2.176  -8.496  0.00  0.00    +0.255 C 
ATOM     16  O   UNL     1       1.689   2.725  -7.819  0.00  0.00    -0.270 OA
BRANCH  12  17
ATOM     17  N   UNL     1       5.148   5.904 -10.824  0.00  0.00    +0.056 N 
ATOM     18  O   UNL     1       6.056   6.178 -11.589  0.00  0.00    -0.126 OA
ATOM     19  O   UNL     1       4.489   6.793 -10.317  0.00  0.00    -0.126 OA
ENDBRANCH  12  17
ENDBRANCH   2   6
BRANCH   1  23
ATOM     20  C   UNL     1       6.146   1.437  -5.566  0.00  0.00    +0.121 A 
ATOM     21  C   UNL     1       6.151   0.079  -5.848  0.00  0.00    +0.046 A 
ATOM     22  C   UNL     1       4.969  -0.564  -6.160  0.00  0.00    +0.009 A 
ATOM     23  C   UNL     1       3.782   0.144  -6.192  0.00  0.00    -0.024 A 
ATOM     24  C   UNL     1       3.776   1.499  -5.917  0.00  0.00    +0.009 A 
ATOM     25  C   UNL     1       4.954   2.146  -5.598  0.00  0.00    +0.046 A 
BRANCH  20  26
ATOM     26  O   UNL     1       7.308   2.072  -5.259  0.00  0.00    -0.492 OA
BRANCH  26  28
ATOM     27  C   UNL     1       8.624   4.008  -4.658  0.00  0.00    +0.048 C 
ATOM     28  C   UNL     1       7.228   3.472  -4.980  0.00  0.00    +0.225 C 
ENDBRANCH  26  28
ENDBRANCH  20  26
ENDBRANCH   1  23
BRANCH   5  29
ATOM     29  C   UNL     1       0.904   0.187  -4.585  0.00  0.00    +0.037 A 
ATOM     30  C   UNL     1      -0.291   0.833  -4.298  0.00  0.00    +0.027 A 
ATOM     31  C   UNL     1      -0.701   0.974  -2.987  0.00  0.00    +0.047 A 
ATOM     32  C   UNL     1       0.080   0.469  -1.957  0.00  0.00    +0.121 A 
ATOM     33  C   UNL     1       1.277  -0.172  -2.244  0.00  0.00    +0.047 A 
ATOM     34  C   UNL     1       1.686  -0.317  -3.555  0.00  0.00    +0.027 A 
BRANCH  32  35
ATOM     35  O   UNL     1      -0.324   0.608  -0.667  0.00  0.00    -0.492 OA
BRANCH  35  36
ATOM     36  C   UNL     1       0.529   0.064   0.343  0.00  0.00    +0.225 C 
ATOM     37  C   UNL     1      -0.087   0.315   1.721  0.00  0.00    +0.048 C 
ENDBRANCH  35  36
ENDBRANCH  32  35
ENDBRANCH   5  29
TORSDOF 8
