REMARK  Name = ZINC59804205
REMARK  7 active torsions:
REMARK  status: ('A' for Active; 'I' for Inactive)
REMARK    1  A    between atoms: C_5  and  N_7
REMARK    2  A    between atoms: C_8  and  C_10
REMARK    3  A    between atoms: C_10  and  C_11
REMARK    4  A    between atoms: C_11  and  S_12
REMARK    5  A    between atoms: S_12  and  C_13
REMARK    6  A    between atoms: C_16  and  C_19
REMARK    7  A    between atoms: N_17  and  N_18
REMARK                            x       y       z     vdW  Elec       q    Type
REMARK                         _______ _______ _______ _____ _____    ______ ____
ROOT
ATOM      1  C   UNL     1      -2.969  -7.075   0.551  0.00  0.00    +0.209 A 
ATOM      2  N   UNL     1      -3.998  -6.258   0.542  0.00  0.00    -0.121 NA
ATOM      3  N   UNL     1      -5.092  -6.925   0.648  0.00  0.00    -0.127 NA
ATOM      4  C   UNL     1      -4.829  -8.208   0.731  0.00  0.00    +0.182 A 
ATOM      5  N   UNL     1      -3.461  -8.344   0.666  0.00  0.00    -0.224 N 
ENDROOT
BRANCH   4   6
ATOM      6  C   UNL     1      -5.816  -9.300   0.863  0.00  0.00    +0.021 A 
ATOM      7  C   UNL     1      -5.402 -10.574   1.258  0.00  0.00    +0.014 A 
ATOM      8  C   UNL     1      -6.327 -11.589   1.380  0.00  0.00    +0.039 A 
ATOM      9  C   UNL     1      -7.665 -11.348   1.112  0.00  0.00    +0.123 A 
ATOM     10  C   UNL     1      -8.081 -10.085   0.720  0.00  0.00    +0.039 A 
ATOM     11  C   UNL     1      -7.165  -9.061   0.600  0.00  0.00    +0.014 A 
ATOM     12  F   UNL     1      -8.567 -12.346   1.233  0.00  0.00    -0.205 F 
ENDBRANCH   4   6
BRANCH   5  13
ATOM     13  N   UNL     1      -2.745  -9.507   0.710  0.00  0.00    -0.295 N 
ATOM     14  H   UNL     1      -2.506  -9.748   1.661  0.00  0.00    +0.163 HD
ATOM     15  H   UNL     1      -3.247 -10.258   0.261  0.00  0.00    +0.163 HD
ENDBRANCH   5  13
BRANCH   1  16
ATOM     16  S   UNL     1      -1.271  -6.620   0.429  0.00  0.00    -0.084 S 
BRANCH  16  17
ATOM     17  C   UNL     1      -1.311  -4.811   0.304  0.00  0.00    +0.086 C 
BRANCH  17  18
ATOM     18  C   UNL     1       0.119  -4.276   0.191  0.00  0.00    +0.107 C 
BRANCH  18  20
ATOM     19  N   UNL     1       1.237  -2.080  -0.022  0.00  0.00    -0.285 N 
ATOM     20  C   UNL     1       0.086  -2.773   0.087  0.00  0.00    +0.218 C 
ATOM     21  O   UNL     1      -0.976  -2.187   0.102  0.00  0.00    -0.275 OA
ATOM     22  H   UNL     1       2.080  -2.551  -0.115  0.00  0.00    +0.155 HD
BRANCH  19  27
ATOM     23  C   UNL     1       0.153   1.372   0.637  0.00  0.00    +0.002 A 
ATOM     24  C   UNL     1       1.173   2.086   0.035  0.00  0.00    +0.001 A 
ATOM     25  C   UNL     1       2.214   1.421  -0.586  0.00  0.00    +0.017 A 
ATOM     26  C   UNL     1       2.239   0.040  -0.607  0.00  0.00    +0.039 A 
ATOM     27  C   UNL     1       1.216  -0.681  -0.003  0.00  0.00    +0.047 A 
ATOM     28  C   UNL     1       0.172  -0.009   0.620  0.00  0.00    +0.024 A 
ATOM     29 BR   UNL     1       3.662  -0.869  -1.458  0.00  0.00    -0.048 Br
ENDBRANCH  19  27
ENDBRANCH  18  20
ENDBRANCH  17  18
ENDBRANCH  16  17
ENDBRANCH   1  16
TORSDOF 7
