REMARK  Name = ZINC28561760
REMARK  6 active torsions:
REMARK  status: ('A' for Active; 'I' for Inactive)
REMARK    1  A    between atoms: C_1  and  C_2
REMARK    2  A    between atoms: C_2  and  C_3
REMARK    3  A    between atoms: N_6  and  N_20
REMARK    4  A    between atoms: C_7  and  S_10
REMARK    5  A    between atoms: S_10  and  C_11
REMARK    6  A    between atoms: C_11  and  C_12
REMARK                            x       y       z     vdW  Elec       q    Type
REMARK                         _______ _______ _______ _____ _____    ______ ____
ROOT
ATOM      1  C   UNL     1       4.350   2.531  -0.027  0.00  0.00    +0.129 A 
ATOM      2  C   UNL     1       3.487   3.648  -0.013  0.00  0.00    +0.293 A 
ATOM      3  O   UNL     1       3.932   4.784  -0.011  0.00  0.00    -0.264 OA
ATOM      4  N   UNL     1       2.152   3.424  -0.006  0.00  0.00    -0.206 N 
ATOM      5  C   UNL     1       1.708   2.135  -0.003  0.00  0.00    +0.210 A 
ATOM      6  N   UNL     1       2.569   1.131  -0.016  0.00  0.00    -0.122 NA
ATOM      7  N   UNL     1       3.839   1.322  -0.028  0.00  0.00    -0.146 NA
ENDROOT
BRANCH   4   8
ATOM      8  N   UNL     1       1.270   4.467   0.003  0.00  0.00    -0.293 N 
ATOM      9  H   UNL     1       0.187   4.271   0.008  0.00  0.00    +0.163 HD
ATOM     10  H   UNL     1       1.641   5.502   0.004  0.00  0.00    +0.163 HD
ENDBRANCH   4   8
BRANCH   1  12
ATOM     11  C   UNL     1       6.535   1.360  -0.055  0.00  0.00    +0.010 C 
ATOM     12  C   UNL     1       5.844   2.725  -0.041  0.00  0.00    +0.059 C 
ENDBRANCH   1  12
BRANCH   5  13
ATOM     13  S   UNL     1      -0.022   1.806   0.012  0.00  0.00    -0.080 S 
BRANCH  13  14
ATOM     14  C   UNL     1       0.002  -0.004   0.002  0.00  0.00    +0.114 C 
BRANCH  14  15
ATOM     15  C   UNL     1      -1.412  -0.526   0.013  0.00  0.00    -0.019 A 
ATOM     16  C   UNL     1      -2.071  -0.758  -1.180  0.00  0.00    +0.007 A 
ATOM     17  C   UNL     1      -3.368  -1.237  -1.171  0.00  0.00    +0.020 A 
ATOM     18  C   UNL     1      -4.006  -1.484   0.032  0.00  0.00    +0.042 A 
ATOM     19  C   UNL     1      -3.347  -1.251   1.225  0.00  0.00    +0.040 A 
ATOM     20  C   UNL     1      -2.047  -0.777   1.216  0.00  0.00    +0.046 A 
ATOM     21 CL   UNL     1      -1.216  -0.491   2.713  0.00  0.00    -0.083 Cl
ATOM     22 CL   UNL     1      -5.635  -2.085   0.043  0.00  0.00    -0.083 Cl
ENDBRANCH  14  15
ENDBRANCH  13  14
ENDBRANCH   5  13
TORSDOF 5
