REMARK  Name = ZINC25507318
REMARK  5 active torsions:
REMARK  status: ('A' for Active; 'I' for Inactive)
REMARK    1  A    between atoms: C_1  and  C_2
REMARK    2  A    between atoms: C_2  and  C_4
REMARK    3  A    between atoms: C_2  and  N_16
REMARK    4  A    between atoms: C_10  and  C_13
REMARK    5  A    between atoms: N_19  and  C_22
REMARK                            x       y       z     vdW  Elec       q    Type
REMARK                         _______ _______ _______ _____ _____    ______ ____
ROOT
ATOM      1  C   UNL     1       2.063  -0.530   1.179  0.00  0.00    -0.004 C 
ATOM      2  C   UNL     1       1.292  -0.773  -0.120  0.00  0.00    +0.016 C 
ENDROOT
BRANCH   2   3
ATOM      3  C   UNL     1      -0.003  -0.004  -0.087  0.00  0.00    +0.202 C 
ATOM      4  O   UNL     1      -1.026  -0.554   0.261  0.00  0.00    -0.277 OA
ATOM      5  N   UNL     1      -0.025   1.296  -0.444  0.00  0.00    -0.302 N 
ATOM      6  C   UNL     1       1.221   2.003  -0.770  0.00  0.00    +0.108 C 
ATOM      7  C   UNL     1       1.308   3.269   0.088  0.00  0.00    +0.020 C 
ATOM      8  C   UNL     1       0.041   4.104  -0.111  0.00  0.00    +0.016 C 
ATOM      9  C   UNL     1      -1.179   3.297   0.340  0.00  0.00    +0.092 C 
ATOM     10  C   UNL     1      -1.295   2.030  -0.521  0.00  0.00    +0.120 C 
BRANCH   9  11
ATOM     11  C   UNL     1      -2.423   4.132   0.175  0.00  0.00    +0.215 C 
ATOM     12  O   UNL     1      -3.316   3.752  -0.553  0.00  0.00    -0.276 OA
ATOM     13  N   UNL     1      -2.543   5.300   0.835  0.00  0.00    -0.329 N 
ATOM     14  H   UNL     1      -3.451   5.910   0.714  0.00  0.00    +0.145 HD
ATOM     15  H   UNL     1      -1.734   5.645   1.495  0.00  0.00    +0.145 HD
ENDBRANCH   9  11
ENDBRANCH   2   3
BRANCH   2  16
ATOM     16  N   UNL     1       1.007  -2.207  -0.259  0.00  0.00    +0.389 N 
ATOM     17  C   UNL     1       0.423  -2.750   0.976  0.00  0.00    -0.059 C 
ATOM     18  C   UNL     1       0.067  -4.223   0.764  0.00  0.00    +0.086 C 
ATOM     19  N   UNL     1       1.277  -4.967   0.386  0.00  0.00    -0.331 N 
ATOM     20  C   UNL     1       1.861  -4.425  -0.848  0.00  0.00    +0.086 C 
ATOM     21  C   UNL     1       2.217  -2.951  -0.637  0.00  0.00    -0.059 C 
ATOM     22  H   UNL     1       0.268  -2.328  -1.065  0.00  0.00    -0.081 HD
BRANCH  19  23
ATOM     23  C   UNL     1       1.005  -6.332   0.255  0.00  0.00    +0.065 A 
ATOM     24  C   UNL     1       2.034  -7.223  -0.021  0.00  0.00    +0.026 A 
ATOM     25  C   UNL     1       1.762  -8.572  -0.151  0.00  0.00    +0.002 A 
ATOM     26  C   UNL     1       0.468  -9.036  -0.007  0.00  0.00    +0.003 A 
ATOM     27  C   UNL     1      -0.560  -8.152   0.268  0.00  0.00    +0.040 A 
ATOM     28  C   UNL     1      -0.295  -6.802   0.405  0.00  0.00    +0.144 A 
ATOM     29  F   UNL     1      -1.298  -5.940   0.678  0.00  0.00    -0.204 F 
ENDBRANCH  19  23
ENDBRANCH   2  16
TORSDOF 4
