REMARK  Name = ZINC03669887
REMARK  7 active torsions:
REMARK  status: ('A' for Active; 'I' for Inactive)
REMARK    1  A    between atoms: C_3  and  N_32
REMARK    2  A    between atoms: C_6  and  C_7
REMARK    3  A    between atoms: C_9  and  C_30
REMARK    4  A    between atoms: C_10  and  N_29
REMARK    5  A    between atoms: N_11  and  C_19
REMARK    6  A    between atoms: C_22  and  S_25
REMARK    7  A    between atoms: S_25  and  N_28
REMARK                            x       y       z     vdW  Elec       q    Type
REMARK                         _______ _______ _______ _____ _____    ______ ____
ROOT
ATOM      1  C   UNL     1      -2.616   3.913   0.351  0.00  0.00    +0.097 C 
ATOM      2  C   UNL     1      -2.972   3.308  -0.975  0.00  0.00    +0.077 C 
ATOM      3  C   UNL     1      -3.980   2.405  -1.087  0.00  0.00    +0.107 C 
ATOM      4  N   UNL     1      -4.701   2.033   0.025  0.00  0.00    -0.260 N 
ATOM      5  C   UNL     1      -4.704   2.820   1.147  0.00  0.00    +0.024 C 
ATOM      6  C   UNL     1      -3.735   3.739   1.346  0.00  0.00    +0.025 C 
ATOM      7  C   UNL     1      -3.741   4.562   2.486  0.00  0.00    +0.162 C 
ATOM      8  O   UNL     1      -2.849   5.372   2.640  0.00  0.00    -0.292 OA
ATOM      9  C   UNL     1      -4.830   4.459   3.518  0.00  0.00    +0.080 C 
ATOM     10  C   UNL     1      -6.114   3.967   2.841  0.00  0.00    +0.014 C 
ATOM     11  C   UNL     1      -5.817   2.634   2.149  0.00  0.00    +0.052 C 
ENDROOT
BRANCH   1  17
ATOM     12  C   UNL     1      -1.380   1.887   1.147  0.00  0.00    +0.007 A 
ATOM     13  C   UNL     1      -0.242   1.275   1.638  0.00  0.00    +0.033 A 
ATOM     14  C   UNL     1       0.904   2.017   1.855  0.00  0.00    +0.126 A 
ATOM     15  C   UNL     1       0.910   3.373   1.586  0.00  0.00    +0.033 A 
ATOM     16  C   UNL     1      -0.229   3.986   1.099  0.00  0.00    +0.007 A 
ATOM     17  C   UNL     1      -1.375   3.244   0.882  0.00  0.00    -0.035 A 
BRANCH  14  18
ATOM     18  N   UNL     1       2.124   1.360   2.375  0.00  0.00    +0.056 N 
ATOM     19  O   UNL     1       2.118   0.165   2.612  0.00  0.00    -0.126 OA
ATOM     20  O   UNL     1       3.134   2.014   2.566  0.00  0.00    -0.126 OA
ENDBRANCH  14  18
ENDBRANCH   1  17
BRANCH   4  21
ATOM     21  C   UNL     1      -5.436   0.842   0.010  0.00  0.00    +0.040 A 
ATOM     22  C   UNL     1      -4.867  -0.333   0.481  0.00  0.00    +0.026 A 
ATOM     23  C   UNL     1      -5.597  -1.506   0.469  0.00  0.00    +0.030 A 
ATOM     24  C   UNL     1      -6.890  -1.512  -0.021  0.00  0.00    +0.105 A 
ATOM     25  C   UNL     1      -7.458  -0.344  -0.496  0.00  0.00    +0.030 A 
ATOM     26  C   UNL     1      -6.735   0.833  -0.482  0.00  0.00    +0.026 A 
BRANCH  24  27
ATOM     27  S   UNL     1      -7.816  -3.011  -0.039  0.00  0.00    +0.056 S 
ATOM     28  O   UNL     1      -7.254  -3.848   0.962  0.00  0.00    -0.153 OA
ATOM     29  O   UNL     1      -9.188  -2.641  -0.041  0.00  0.00    -0.153 OA
BRANCH  27  30
ATOM     30  N   UNL     1      -7.523  -3.749  -1.493  0.00  0.00    -0.204 NA
ATOM     31  H   UNL     1      -6.930  -3.333  -2.137  0.00  0.00    +0.144 HD
ATOM     32  H   UNL     1      -7.946  -4.597  -1.699  0.00  0.00    +0.144 HD
ENDBRANCH  27  30
ENDBRANCH  24  27
ENDBRANCH   4  21
BRANCH   3  33
ATOM     33  N   UNL     1      -4.281   1.860  -2.313  0.00  0.00    -0.345 N 
ATOM     34  H   UNL     1      -5.054   1.283  -2.411  0.00  0.00    +0.144 HD
ATOM     35  H   UNL     1      -3.719   2.053  -3.080  0.00  0.00    +0.144 HD
ENDBRANCH   3  33
BRANCH   2  36
ATOM     36  C   UNL     1      -2.237   3.690  -2.143  0.00  0.00    +0.099 C 
ATOM     37  N   UNL     1      -1.653   3.994  -3.070  0.00  0.00    -0.191 NA
ENDBRANCH   2  36
TORSDOF 7
