REMARK  Name = ZINC15050039
REMARK  8 active torsions:
REMARK  status: ('A' for Active; 'I' for Inactive)
REMARK    1  A    between atoms: C_1  and  C_2
REMARK    2  A    between atoms: C_2  and  C_10
REMARK    3  A    between atoms: C_3  and  C_4
REMARK    4  A    between atoms: N_14  and  C_18
REMARK    5  A    between atoms: C_18  and  C_19
REMARK    6  A    between atoms: N_21  and  C_22
REMARK    7  A    between atoms: C_25  and  S_28
REMARK    8  A    between atoms: S_28  and  N_31
REMARK                            x       y       z     vdW  Elec       q    Type
REMARK                         _______ _______ _______ _____ _____    ______ ____
ROOT
ATOM      1  C   UNL     1      -0.908   2.396   0.380  0.00  0.00    +0.023 C 
ATOM      2  C   UNL     1       0.115   1.495   0.337  0.00  0.00    +0.079 C 
ATOM      3  C   UNL     1       0.071   0.021   0.359  0.00  0.00    +0.261 C 
ATOM      4  O   UNL     1      -0.982  -0.585   0.429  0.00  0.00    -0.269 OA
ATOM      5  N   UNL     1       1.232  -0.609   0.300  0.00  0.00    -0.219 N 
ATOM      6  C   UNL     1       2.397   0.067   0.224  0.00  0.00    +0.286 C 
ATOM      7  O   UNL     1       3.527  -0.379   0.165  0.00  0.00    -0.262 OA
ATOM      8  S   UNL     1       1.877   1.776   0.231  0.00  0.00    -0.026 S 
ENDROOT
BRANCH   1  10
ATOM      9  C   UNL     1       0.740   4.228  -0.178  0.00  0.00    +0.044 C 
ATOM     10  C   UNL     1      -0.645   3.769   0.200  0.00  0.00    -0.049 C 
ATOM     11  C   UNL     1      -1.637   4.676   0.366  0.00  0.00    +0.011 C 
BRANCH  11  12
ATOM     12  C   UNL     1      -1.328   6.113   0.357  0.00  0.00    -0.025 A 
ATOM     13  C   UNL     1      -0.121   6.576   0.891  0.00  0.00    +0.008 A 
ATOM     14  C   UNL     1       0.164   7.925   0.874  0.00  0.00    +0.001 A 
ATOM     15  C   UNL     1      -0.747   8.822   0.341  0.00  0.00    +0.000 A 
ATOM     16  C   UNL     1      -1.946   8.372  -0.184  0.00  0.00    +0.001 A 
ATOM     17  C   UNL     1      -2.243   7.026  -0.180  0.00  0.00    +0.008 A 
ENDBRANCH  11  12
ENDBRANCH   1  10
BRANCH   5  18
ATOM     18  C   UNL     1       1.254  -2.073   0.319  0.00  0.00    +0.213 C 
BRANCH  18  19
ATOM     19  C   UNL     1       1.179  -2.595  -1.093  0.00  0.00    +0.235 C 
ATOM     20  O   UNL     1       1.113  -1.820  -2.023  0.00  0.00    -0.274 OA
ATOM     21  N   UNL     1       1.184  -3.923  -1.321  0.00  0.00    -0.284 N 
ATOM     22  H   UNL     1       1.140  -4.544  -0.577  0.00  0.00    +0.155 HD
BRANCH  21  23
ATOM     23  C   UNL     1       1.253  -4.407  -2.633  0.00  0.00    +0.034 A 
ATOM     24  C   UNL     1       0.620  -5.596  -2.970  0.00  0.00    +0.025 A 
ATOM     25  C   UNL     1       0.686  -6.068  -4.266  0.00  0.00    +0.030 A 
ATOM     26  C   UNL     1       1.390  -5.364  -5.225  0.00  0.00    +0.105 A 
ATOM     27  C   UNL     1       2.026  -4.182  -4.891  0.00  0.00    +0.030 A 
ATOM     28  C   UNL     1       1.960  -3.702  -3.598  0.00  0.00    +0.025 A 
BRANCH  26  29
ATOM     29  S   UNL     1       1.478  -5.973  -6.876  0.00  0.00    +0.056 S 
ATOM     30  O   UNL     1       0.345  -6.812  -7.060  0.00  0.00    -0.153 OA
ATOM     31  O   UNL     1       1.739  -4.853  -7.710  0.00  0.00    -0.153 OA
BRANCH  29  32
ATOM     32  N   UNL     1       2.811  -6.952  -6.967  0.00  0.00    -0.204 NA
ATOM     33  H   UNL     1       2.823  -7.699  -7.585  0.00  0.00    +0.144 HD
ATOM     34  H   UNL     1       3.580  -6.777  -6.402  0.00  0.00    +0.144 HD
ENDBRANCH  29  32
ENDBRANCH  26  29
ENDBRANCH  21  23
ENDBRANCH  18  19
ENDBRANCH   5  18
TORSDOF 7
