REMARK  Name = ZINC01802878
REMARK  13 active torsions:
REMARK  status: ('A' for Active; 'I' for Inactive)
REMARK    1  A    between atoms: C_1  and  O_2
REMARK    2  A    between atoms: O_2  and  C_3
REMARK    3  A    between atoms: C_5  and  C_13
REMARK    4  A    between atoms: C_7  and  O_11
REMARK    5  A    between atoms: C_8  and  O_9
REMARK    6  A    between atoms: O_9  and  C_10
REMARK    7  A    between atoms: O_11  and  C_12
REMARK    8  A    between atoms: C_16  and  S_24
REMARK    9  A    between atoms: N_17  and  C_18
REMARK   10  A    between atoms: S_24  and  C_25
REMARK   11  A    between atoms: C_25  and  C_26
REMARK   12  A    between atoms: N_28  and  N_29
REMARK   13  A    between atoms: C_30  and  C_31
REMARK                            x       y       z     vdW  Elec       q    Type
REMARK                         _______ _______ _______ _____ _____    ______ ____
ROOT
ATOM      1  C   UNL     1      -4.857   0.235   0.038  0.00  0.00    +0.170 A 
ATOM      2  N   UNL     1      -4.973   1.515   0.309  0.00  0.00    -0.128 NA
ATOM      3  N   UNL     1      -6.205   1.873   0.226  0.00  0.00    -0.122 NA
ATOM      4  C   UNL     1      -6.954   0.844  -0.102  0.00  0.00    +0.197 A 
ATOM      5  N   UNL     1      -6.122  -0.235  -0.240  0.00  0.00    -0.270 N 
ENDROOT
BRANCH   1   8
ATOM      6  C   UNL     1      -1.201  -0.638   0.010  0.00  0.00    +0.166 A 
ATOM      7  C   UNL     1      -2.371   0.100   0.019  0.00  0.00    +0.061 A 
ATOM      8  C   UNL     1      -3.606  -0.551   0.028  0.00  0.00    +0.027 A 
ATOM      9  C   UNL     1      -3.657  -1.946   0.027  0.00  0.00    +0.061 A 
ATOM     10  C   UNL     1      -2.483  -2.679   0.017  0.00  0.00    +0.166 A 
ATOM     11  C   UNL     1      -1.254  -2.028   0.003  0.00  0.00    +0.204 A 
BRANCH   6  13
ATOM     12  C   UNL     1      -0.017   1.425   0.010  0.00  0.00    +0.277 C 
ATOM     13  O   UNL     1       0.002  -0.004   0.002  0.00  0.00    -0.491 OA
ENDBRANCH   6  13
BRANCH  11  14
ATOM     14  O   UNL     1      -0.102  -2.752  -0.012  0.00  0.00    -0.488 OA
ATOM     15  C   UNL     1       0.460  -3.104   1.254  0.00  0.00    +0.277 C 
ENDBRANCH  11  14
BRANCH  10  16
ATOM     16  O   UNL     1      -2.532  -4.038   0.016  0.00  0.00    -0.491 OA
ATOM     17  C   UNL     1      -3.828  -4.641   0.025  0.00  0.00    +0.277 C 
ENDBRANCH  10  16
ENDBRANCH   1   8
BRANCH   5  18
ATOM     18  C   UNL     1      -6.483  -1.544  -0.588  0.00  0.00    +0.051 A 
ATOM     19  C   UNL     1      -6.029  -2.097  -1.777  0.00  0.00    +0.026 A 
ATOM     20  C   UNL     1      -6.386  -3.388  -2.117  0.00  0.00    +0.002 A 
ATOM     21  C   UNL     1      -7.194  -4.128  -1.274  0.00  0.00    +0.000 A 
ATOM     22  C   UNL     1      -7.647  -3.579  -0.088  0.00  0.00    +0.002 A 
ATOM     23  C   UNL     1      -7.290  -2.291   0.260  0.00  0.00    +0.026 A 
ENDBRANCH   5  18
BRANCH   4  24
ATOM     24  S   UNL     1      -8.701   0.853  -0.330  0.00  0.00    -0.076 S 
BRANCH  24  25
ATOM     25  C   UNL     1      -9.176   2.574  -0.009  0.00  0.00    +0.174 C 
BRANCH  25  26
ATOM     26  C   UNL     1     -10.667   2.723  -0.173  0.00  0.00    +0.242 C 
ATOM     27  O   UNL     1     -11.342   1.762  -0.476  0.00  0.00    -0.273 OA
ATOM     28  N   UNL     1     -11.249   3.923   0.018  0.00  0.00    -0.206 N 
ATOM     29  H   UNL     1     -10.709   4.691   0.260  0.00  0.00    +0.177 HD
BRANCH  28  30
ATOM     30  N   UNL     1     -12.635   4.061  -0.134  0.00  0.00    -0.188 NA
ATOM     31  C   UNL     1     -13.196   5.216   0.050  0.00  0.00    +0.138 C 
BRANCH  31  32
ATOM     32  C   UNL     1     -14.655   5.362  -0.110  0.00  0.00    -0.005 A 
ATOM     33  C   UNL     1     -15.437   4.256  -0.454  0.00  0.00    +0.010 A 
ATOM     34  C   UNL     1     -16.801   4.398  -0.601  0.00  0.00    +0.016 A 
ATOM     35  C   UNL     1     -17.395   5.634  -0.410  0.00  0.00    +0.018 A 
ATOM     36  C   UNL     1     -16.627   6.734  -0.069  0.00  0.00    +0.016 A 
ATOM     37  C   UNL     1     -15.262   6.604   0.086  0.00  0.00    +0.010 A 
ATOM     38 BR   UNL     1     -19.266   5.820  -0.615  0.00  0.00    -0.050 Br
ENDBRANCH  31  32
ENDBRANCH  28  30
ENDBRANCH  25  26
ENDBRANCH  24  25
ENDBRANCH   4  24
TORSDOF 10
