REMARK  Name = ZINC09644652
REMARK  9 active torsions:
REMARK  status: ('A' for Active; 'I' for Inactive)
REMARK    1  A    between atoms: C_1  and  C_2
REMARK    2  A    between atoms: C_2  and  C_3
REMARK    3  A    between atoms: C_3  and  C_4
REMARK    4  A    between atoms: C_4  and  N_5
REMARK    5  A    between atoms: C_9  and  C_16
REMARK    6  A    between atoms: C_16  and  C_18
REMARK    7  A    between atoms: C_20  and  C_25
REMARK    8  A    between atoms: C_23  and  O_24
REMARK    9  A    between atoms: C_25  and  C_26
REMARK                            x       y       z     vdW  Elec       q    Type
REMARK                         _______ _______ _______ _____ _____    ______ ____
ROOT
ATOM      1  N   UNL     1      -0.613   1.592  -1.238  0.00  0.00    -0.281 N 
ATOM      2  C   UNL     1      -0.049   1.044   0.008  0.00  0.00    +0.148 C 
ATOM      3  C   UNL     1      -0.603   1.591   1.303  0.00  0.00    +0.011 A 
ATOM      4  C   UNL     1      -0.149   1.150   2.510  0.00  0.00    +0.021 A 
ATOM      5  C   UNL     1      -0.712   1.704   3.672  0.00  0.00    +0.041 A 
ATOM      6  C   UNL     1      -1.707   2.676   3.540  0.00  0.00    +0.124 A 
ATOM      7  N   UNL     1      -2.113   3.070   2.351  0.00  0.00    -0.239 NA
ATOM      8  C   UNL     1      -1.599   2.565   1.236  0.00  0.00    +0.131 A 
ATOM      9  N   UNL     1      -2.049   3.000  -0.001  0.00  0.00    -0.254 N 
ATOM     10  C   UNL     1      -1.573   2.531  -1.161  0.00  0.00    +0.308 C 
ATOM     11  O   UNL     1      -2.031   2.976  -2.195  0.00  0.00    -0.252 OA
ATOM     12  H   UNL     1      -2.742   3.678  -0.027  0.00  0.00    +0.158 HD
ENDROOT
BRANCH   5  13
ATOM     13  C   UNL     1      -0.262   1.268   5.008  0.00  0.00    +0.198 C 
ATOM     14  O   UNL     1      -0.823   1.681   6.004  0.00  0.00    -0.286 OA
BRANCH  13  15
ATOM     15  C   UNL     1       0.870   0.331   5.134  0.00  0.00    +0.064 A 
ATOM     16  C   UNL     1       0.639  -1.012   5.449  0.00  0.00    +0.019 A 
ATOM     17  C   UNL     1       1.700  -1.883   5.560  0.00  0.00    -0.047 A 
ATOM     18  C   UNL     1       2.997  -1.433   5.373  0.00  0.00    +0.007 A 
ATOM     19  C   UNL     1       3.240  -0.109   5.067  0.00  0.00    +0.046 A 
ATOM     20  C   UNL     1       2.184   0.782   4.945  0.00  0.00    +0.128 A 
BRANCH  20  21
ATOM     21  O   UNL     1       2.421   2.083   4.644  0.00  0.00    -0.506 OA
ATOM     22  H   UNL     1       2.549   2.649   5.418  0.00  0.00    +0.292 HD
ENDBRANCH  20  21
BRANCH  17  23
ATOM     23  C   UNL     1       1.449  -3.331   5.893  0.00  0.00    +0.032 C 
ATOM     24  C   UNL     1       1.461  -3.515   7.412  0.00  0.00    +0.009 C 
ENDBRANCH  17  23
ENDBRANCH  13  15
ENDBRANCH   5  13
BRANCH   1  25
ATOM     25  C   UNL     1      -0.137   1.120  -2.541  0.00  0.00    +0.109 C 
BRANCH  25  26
ATOM     26  C   UNL     1      -0.980  -0.074  -2.990  0.00  0.00    +0.019 C 
BRANCH  26  28
ATOM     27  C   UNL     1      -1.326  -1.762  -4.800  0.00  0.00    +0.004 C 
ATOM     28  C   UNL     1      -0.483  -0.567  -4.351  0.00  0.00    -0.002 C 
ENDBRANCH  26  28
ENDBRANCH  25  26
ENDBRANCH   1  25
TORSDOF 7
