REMARK  Name = ZINC35664909
REMARK  12 active torsions:
REMARK  status: ('A' for Active; 'I' for Inactive)
REMARK    1  A    between atoms: C_1  and  C_2
REMARK    2  A    between atoms: C_2  and  O_3
REMARK    3  A    between atoms: O_3  and  C_4
REMARK    4  A    between atoms: C_4  and  C_6
REMARK    5  A    between atoms: C_7  and  C_24
REMARK    6  A    between atoms: N_8  and  C_21
REMARK    7  A    between atoms: C_12  and  C_14
REMARK    8  A    between atoms: C_18  and  C_20
REMARK    9  A    between atoms: C_21  and  C_22
REMARK   10  A    between atoms: C_24  and  N_25
REMARK   11  A    between atoms: C_32  and  C_34
REMARK   12  A    between atoms: C_37  and  C_40
REMARK                            x       y       z     vdW  Elec       q    Type
REMARK                         _______ _______ _______ _____ _____    ______ ____
ROOT
ATOM      1  C   UNL     1      -2.379  -2.480   0.360  0.00  0.00    +0.076 C 
ATOM      2  C   UNL     1      -2.702  -3.744   0.011  0.00  0.00    +0.011 C 
ATOM      3  N   UNL     1      -4.000  -4.103  -0.216  0.00  0.00    -0.257 N 
ATOM      4  C   UNL     1      -5.033  -3.256  -0.116  0.00  0.00    +0.307 C 
ATOM      5  O   UNL     1      -6.154  -3.669  -0.337  0.00  0.00    -0.252 OA
ATOM      6  N   UNL     1      -4.869  -1.962   0.224  0.00  0.00    -0.288 N 
ATOM      7  C   UNL     1      -3.506  -1.476   0.497  0.00  0.00    +0.143 C 
ATOM      8  H   UNL     1      -5.631  -1.367   0.291  0.00  0.00    +0.151 HD
ENDROOT
BRANCH   7   9
ATOM      9  C   UNL     1      -3.228  -0.335  -0.447  0.00  0.00    -0.022 A 
ATOM     10  C   UNL     1      -3.529  -0.459  -1.790  0.00  0.00    +0.006 A 
ATOM     11  C   UNL     1      -3.274   0.588  -2.656  0.00  0.00    +0.001 A 
ATOM     12  C   UNL     1      -2.718   1.760  -2.178  0.00  0.00    +0.003 A 
ATOM     13  C   UNL     1      -2.417   1.885  -0.834  0.00  0.00    -0.050 A 
ATOM     14  C   UNL     1      -2.677   0.839   0.032  0.00  0.00    +0.009 A 
ATOM     15  C   UNL     1      -1.811   3.162  -0.313  0.00  0.00    +0.044 C 
ENDBRANCH   7   9
BRANCH   1  16
ATOM     16  C   UNL     1      -1.035  -2.108   0.597  0.00  0.00    +0.339 C 
ATOM     17  O   UNL     1      -0.157  -2.949   0.571  0.00  0.00    -0.245 OA
BRANCH  16  18
ATOM     18  O   UNL     1      -0.727  -0.819   0.850  0.00  0.00    -0.462 OA
BRANCH  18  20
ATOM     19  C   UNL     1       0.803   0.985   1.348  0.00  0.00    +0.048 C 
ATOM     20  C   UNL     1       0.650  -0.514   1.080  0.00  0.00    +0.229 C 
ENDBRANCH  18  20
ENDBRANCH  16  18
ENDBRANCH   1  16
BRANCH   3  21
ATOM     21  C   UNL     1      -4.278  -5.491  -0.592  0.00  0.00    +0.141 C 
BRANCH  21  22
ATOM     22  C   UNL     1      -4.631  -6.284   0.641  0.00  0.00    -0.015 C 
ATOM     23  C   UNL     1      -5.780  -6.910   0.710  0.00  0.00    +0.005 C 
ENDBRANCH  21  22
ENDBRANCH   3  21
BRANCH   2  24
ATOM     24  C   UNL     1      -1.612  -4.776  -0.130  0.00  0.00    -0.026 C 
BRANCH  24  25
ATOM     25  N   UNL     1      -1.194  -4.856  -1.536  0.00  0.00    +0.384 N 
ATOM     26  C   UNL     1      -0.333  -6.026  -1.695  0.00  0.00    -0.077 C 
ATOM     27  C   UNL     1      -0.469  -6.558  -3.104  0.00  0.00    +0.000 C 
ATOM     28  C   UNL     1       0.630  -5.944  -3.991  0.00  0.00    +0.106 C 
ATOM     29  N   UNL     1       0.839  -4.518  -3.668  0.00  0.00    -0.299 N 
ATOM     30  C   UNL     1      -0.261  -3.614  -3.403  0.00  0.00    +0.089 C 
ATOM     31  C   UNL     1      -0.598  -3.626  -1.894  0.00  0.00    -0.059 C 
ATOM     32  C   UNL     1       2.099  -4.042  -3.618  0.00  0.00    +0.247 C 
ATOM     33  O   UNL     1       2.302  -2.902  -3.248  0.00  0.00    -0.270 OA
ATOM     34  H   UNL     1      -2.016  -4.989  -2.105  0.00  0.00    -0.081 HD
BRANCH  32  35
ATOM     35  C   UNL     1       3.232  -4.905  -4.011  0.00  0.00    +0.037 A 
ATOM     36  C   UNL     1       3.090  -5.813  -5.062  0.00  0.00    +0.013 A 
ATOM     37  C   UNL     1       4.152  -6.615  -5.425  0.00  0.00    +0.004 A 
ATOM     38  C   UNL     1       5.356  -6.522  -4.749  0.00  0.00    -0.050 A 
ATOM     39  C   UNL     1       5.503  -5.625  -3.706  0.00  0.00    +0.004 A 
ATOM     40  C   UNL     1       4.451  -4.812  -3.337  0.00  0.00    +0.013 A 
ATOM     41  C   UNL     1       6.511  -7.402  -5.150  0.00  0.00    +0.044 C 
ENDBRANCH  32  35
ENDBRANCH  24  25
ENDBRANCH   2  24
TORSDOF 9
