REMARK  Name = ZINC04457889
REMARK  9 active torsions:
REMARK  status: ('A' for Active; 'I' for Inactive)
REMARK    1  A    between atoms: C_1  and  C_2
REMARK    2  A    between atoms: C_2  and  N_51
REMARK    3  A    between atoms: C_9  and  C_21
REMARK    4  A    between atoms: C_11  and  C_17
REMARK    5  A    between atoms: C_11  and  C_19
REMARK    6  A    between atoms: C_13  and  C_14
REMARK    7  A    between atoms: C_24  and  O_27
REMARK    8  A    between atoms: O_27  and  C_28
REMARK    9  A    between atoms: C_28  and  C_29
REMARK                            x       y       z     vdW  Elec       q    Type
REMARK                         _______ _______ _______ _____ _____    ______ ____
ROOT
ATOM      1  C   UNL     1       1.433   1.831   1.198  0.00  0.00    -0.051 C 
ATOM      2  C   UNL     1       0.204   1.073   0.762  0.00  0.00    -0.044 C 
ATOM      3  C   UNL     1      -0.885   1.726   0.400  0.00  0.00    -0.051 C 
ATOM      4  C   UNL     1      -0.963   3.225   0.354  0.00  0.00    +0.010 C 
ATOM      5  C   UNL     1       0.258   3.917   0.917  0.00  0.00    -0.070 C 
ATOM      6  C   UNL     1      -2.245   3.660   1.067  0.00  0.00    +0.064 C 
ATOM      7  C   UNL     1      -3.447   3.102   0.292  0.00  0.00    +0.188 C 
ATOM      8  C   UNL     1      -3.309   1.631   0.039  0.00  0.00    +0.065 C 
ATOM      9  C   UNL     1      -2.122   0.973   0.074  0.00  0.00    +0.163 C 
ATOM     10  N   UNL     1      -4.438   0.914  -0.241  0.00  0.00    -0.304 NA
ATOM     11  H   UNL     1      -4.378  -0.040  -0.408  0.00  0.00    +0.186 HD
ATOM     12  N   UNL     1       0.966   3.058   1.879  0.00  0.00    +0.382 N 
ATOM     13  H   UNL     1       0.321   2.797   2.634  0.00  0.00    -0.081 HD
ENDROOT
BRANCH   6  14
ATOM     14  C   UNL     1      -2.320   5.165   1.095  0.00  0.00    -0.041 A 
ATOM     15  C   UNL     1      -2.697   5.816   2.255  0.00  0.00    +0.007 A 
ATOM     16  C   UNL     1      -2.761   7.195   2.285  0.00  0.00    +0.046 A 
ATOM     17  C   UNL     1      -2.458   7.928   1.147  0.00  0.00    +0.121 A 
ATOM     18  C   UNL     1      -2.086   7.272  -0.018  0.00  0.00    +0.046 A 
ATOM     19  C   UNL     1      -2.018   5.893  -0.041  0.00  0.00    +0.007 A 
BRANCH  17  20
ATOM     20  O   UNL     1      -2.526   9.285   1.172  0.00  0.00    -0.492 OA
BRANCH  20  21
ATOM     21  C   UNL     1      -2.916   9.892   2.405  0.00  0.00    +0.225 C 
ATOM     22  C   UNL     1      -2.935  11.413   2.242  0.00  0.00    +0.048 C 
ENDBRANCH  20  21
ENDBRANCH  17  20
ENDBRANCH   6  14
BRANCH  12  24
ATOM     23  C   UNL     1       2.711   2.955   3.596  0.00  0.00    -0.017 C 
ATOM     24  C   UNL     1       2.117   3.787   2.458  0.00  0.00    -0.082 C 
ENDBRANCH  12  24
BRANCH   9  25
ATOM     25  C   UNL     1      -2.064  -0.431  -0.203  0.00  0.00    +0.076 C 
ATOM     26  N   UNL     1      -2.018  -1.544  -0.422  0.00  0.00    -0.196 NA
ENDBRANCH   9  25
BRANCH   7  27
ATOM     27  C   UNL     1      -3.563   3.802  -0.998  0.00  0.00    +0.091 C 
ATOM     28  N   UNL     1      -3.652   4.342  -1.993  0.00  0.00    -0.195 NA
ENDBRANCH   7  27
BRANCH   7  29
ATOM     29  C   UNL     1      -4.668   3.341   1.079  0.00  0.00    +0.091 C 
ATOM     30  N   UNL     1      -5.610   3.526   1.686  0.00  0.00    -0.195 NA
ENDBRANCH   7  29
TORSDOF 7
