REMARK  Name = ZINC05414621
REMARK  6 active torsions:
REMARK  status: ('A' for Active; 'I' for Inactive)
REMARK    1  A    between atoms: C_1  and  C_2
REMARK    2  A    between atoms: C_2  and  C_3
REMARK    3  A    between atoms: C_2  and  N_4
REMARK    4  A    between atoms: C_12  and  C_14
REMARK    5  A    between atoms: N_16  and  C_17
REMARK    6  A    between atoms: C_25  and  C_27
REMARK                            x       y       z     vdW  Elec       q    Type
REMARK                         _______ _______ _______ _____ _____    ______ ____
ROOT
ATOM      1  N   UNL     1      -2.146   1.465   0.406  0.00  0.00    -0.297 N 
ATOM      2  C   UNL     1      -0.978   2.135   0.349  0.00  0.00    +0.303 C 
ATOM      3  O   UNL     1      -0.971   3.350   0.398  0.00  0.00    -0.253 OA
ATOM      4  N   UNL     1       0.182   1.458   0.238  0.00  0.00    -0.271 N 
ATOM      5  C   UNL     1       0.203  -0.009   0.314  0.00  0.00    +0.129 C 
ATOM      6  C   UNL     1       0.875  -0.556  -0.951  0.00  0.00    +0.127 C 
ATOM      7  N   UNL     1       2.142   0.160  -1.156  0.00  0.00    -0.293 N 
ATOM      8  C   UNL     1       2.122   1.627  -1.232  0.00  0.00    +0.140 C 
ATOM      9  C   UNL     1       1.449   2.175   0.033  0.00  0.00    +0.181 C 
ATOM     10  C   UNL     1       3.302  -0.517  -1.273  0.00  0.00    +0.253 C 
ATOM     11  O   UNL     1       4.359   0.086  -1.299  0.00  0.00    -0.269 OA
ATOM     12  H   UNL     1      -2.148   0.496   0.441  0.00  0.00    +0.150 HD
ENDROOT
BRANCH  10  13
ATOM     13  C   UNL     1       3.290  -1.980  -1.368  0.00  0.00    +0.074 A 
ATOM     14  C   UNL     1       4.351  -2.869  -1.297  0.00  0.00    +0.021 A 
ATOM     15  C   UNL     1       4.057  -4.204  -1.415  0.00  0.00    +0.008 A 
ATOM     16  C   UNL     1       2.766  -4.585  -1.603  0.00  0.00    +0.046 A 
ATOM     17  S   UNL     1       1.907  -3.080  -1.614  0.00  0.00    -0.092 S 
ENDBRANCH  10  13
BRANCH   9  18
ATOM     18  C   UNL     1       1.177   3.647  -0.136  0.00  0.00    +0.236 C 
ATOM     19  O   UNL     1       0.542   4.040  -1.092  0.00  0.00    -0.274 OA
ATOM     20  N   UNL     1       1.637   4.527   0.775  0.00  0.00    -0.302 N 
ATOM     21  H   UNL     1       2.145   4.212   1.540  0.00  0.00    +0.150 HD
BRANCH  20  22
ATOM     22  C   UNL     1       1.372   5.958   0.611  0.00  0.00    +0.159 C 
ATOM     23  C   UNL     1       1.417   6.643   1.979  0.00  0.00    +0.033 C 
ATOM     24  C   UNL     1       1.413   8.161   1.761  0.00  0.00    +0.021 C 
ATOM     25  C   UNL     1       2.732   8.564   1.102  0.00  0.00    +0.104 C 
ATOM     26  N   UNL     1       2.992   7.735  -0.069  0.00  0.00    -0.314 N 
ATOM     27  C   UNL     1       2.410   6.557  -0.294  0.00  0.00    +0.233 C 
ATOM     28  O   UNL     1       2.735   5.936  -1.284  0.00  0.00    -0.274 OA
ATOM     29  H   UNL     1       3.628   8.061  -0.724  0.00  0.00    +0.149 HD
ENDBRANCH  20  22
ENDBRANCH   9  18
BRANCH   1  31
ATOM     30  C   UNL     1      -4.526   1.306  -0.131  0.00  0.00    +0.027 C 
ATOM     31  C   UNL     1      -3.413   2.201   0.415  0.00  0.00    +0.068 C 
ATOM     32  C   UNL     1      -3.750   2.618   1.848  0.00  0.00    +0.027 C 
ENDBRANCH   1  31
TORSDOF 4
