REMARK  Name = ZINC21986103
REMARK  9 active torsions:
REMARK  status: ('A' for Active; 'I' for Inactive)
REMARK    1  A    between atoms: C_1  and  C_2
REMARK    2  A    between atoms: C_2  and  C_4
REMARK    3  A    between atoms: C_4  and  O_37
REMARK    4  A    between atoms: C_8  and  O_25
REMARK    5  A    between atoms: C_11  and  O_12
REMARK    6  A    between atoms: C_19  and  O_23
REMARK    7  A    between atoms: O_23  and  C_24
REMARK    8  A    between atoms: C_26  and  O_29
REMARK    9  A    between atoms: O_29  and  C_30
REMARK                            x       y       z     vdW  Elec       q    Type
REMARK                         _______ _______ _______ _____ _____    ______ ____
ROOT
ATOM      1  C   UNL     1       3.477  10.700  -0.020  0.00  0.00    +0.130 C 
ATOM      2  C   UNL     1       2.341   9.939  -0.698  0.00  0.00    +0.082 C 
ATOM      3  C   UNL     1       2.616   8.457  -0.694  0.00  0.00    +0.007 A 
ATOM      4  C   UNL     1       3.869   7.940  -0.484  0.00  0.00    +0.030 A 
ATOM      5  C   UNL     1       4.070   6.553  -0.506  0.00  0.00    +0.134 A 
ATOM      6  C   UNL     1       3.003   5.687  -0.735  0.00  0.00    +0.078 A 
ATOM      7  C   UNL     1       1.714   6.218  -0.946  0.00  0.00    +0.078 A 
ATOM      8  C   UNL     1       1.532   7.600  -0.923  0.00  0.00    +0.132 A 
ATOM      9  C   UNL     1       0.575   5.316  -1.187  0.00  0.00    +0.198 C 
ATOM     10  O   UNL     1      -0.536   5.773  -1.369  0.00  0.00    -0.286 OA
ATOM     11  C   UNL     1       0.787   3.853  -1.208  0.00  0.00    +0.037 A 
ATOM     12  C   UNL     1      -0.283   2.993  -1.433  0.00  0.00    +0.012 A 
ATOM     13  C   UNL     1      -0.079   1.623  -1.456  0.00  0.00    +0.004 A 
ATOM     14  C   UNL     1       1.180   1.098  -1.245  0.00  0.00    +0.046 A 
ATOM     15  C   UNL     1       2.264   1.940  -1.018  0.00  0.00    +0.132 A 
ATOM     16  C   UNL     1       2.074   3.325  -0.998  0.00  0.00    +0.075 A 
ATOM     17  C   UNL     1       3.213   4.229  -0.758  0.00  0.00    +0.202 C 
ATOM     18  O   UNL     1       4.326   3.772  -0.579  0.00  0.00    -0.286 OA
ATOM     19  C   UNL     1       5.071   8.809  -0.215  0.00  0.00    +0.158 C 
ATOM     20  C   UNL     1       4.802  10.249  -0.647  0.00  0.00    +0.079 C 
ENDROOT
BRANCH   1  22
ATOM     21  C   UNL     1       4.096  11.374   2.425  0.00  0.00    +0.089 C 
ATOM     22  C   UNL     1       3.483  10.396   1.456  0.00  0.00    +0.162 C 
ATOM     23  O   UNL     1       2.996   9.368   1.862  0.00  0.00    -0.295 OA
ENDBRANCH   1  22
BRANCH   8  24
ATOM     24  O   UNL     1       0.295   8.118  -1.125  0.00  0.00    -0.506 OA
ATOM     25  H   UNL     1      -0.559   7.449  -1.306  0.00  0.00    +0.292 HD
ENDBRANCH   8  24
BRANCH  15  26
ATOM     26  O   UNL     1       3.500   1.420  -0.816  0.00  0.00    -0.494 OA
ATOM     27  C   UNL     1       3.618  -0.004  -0.850  0.00  0.00    +0.277 C 
ENDBRANCH  15  26
BRANCH   5  28
ATOM     28  O   UNL     1       5.313   6.050  -0.304  0.00  0.00    -0.506 OA
ATOM     29  H   UNL     1       5.475   4.962  -0.321  0.00  0.00    +0.292 HD
ENDBRANCH   5  28
BRANCH   1  30
ATOM     30  O   UNL     1       3.303  12.105  -0.221  0.00  0.00    -0.381 OA
ATOM     31  H   UNL     1       3.274  12.515  -1.242  0.00  0.00    +0.211 HD
ENDBRANCH   1  30
BRANCH  19  32
ATOM     32  O   UNL     1       6.192   8.301  -0.942  0.00  0.00    -0.343 OA
BRANCH  32  33
ATOM     33  C   UNL     1       7.457   8.647  -0.375  0.00  0.00    +0.251 C 
ATOM     34  C   UNL     1       8.574   8.272  -1.353  0.00  0.00    +0.061 C 
ATOM     35  C   UNL     1       9.929   8.590  -0.714  0.00  0.00    +0.007 C 
ATOM     36  C   UNL     1      10.043   7.838   0.616  0.00  0.00    +0.028 C 
ATOM     37  C   UNL     1       8.870   8.230   1.517  0.00  0.00    +0.163 C 
ATOM     38  O   UNL     1       7.640   7.937   0.851  0.00  0.00    -0.351 OA
ENDBRANCH  32  33
ENDBRANCH  19  32
TORSDOF 7
