REMARK  Name = ZINC11867328
REMARK  10 active torsions:
REMARK  status: ('A' for Active; 'I' for Inactive)
REMARK    1  A    between atoms: C_1  and  C_2
REMARK    2  A    between atoms: C_2  and  C_3
REMARK    3  A    between atoms: C_8  and  C_30
REMARK    4  A    between atoms: C_12  and  C_15
REMARK    5  A    between atoms: C_13  and  O_14
REMARK    6  A    between atoms: C_15  and  C_17
REMARK    7  A    between atoms: C_15  and  N_65
REMARK    8  A    between atoms: C_20  and  O_23
REMARK    9  A    between atoms: O_23  and  C_24
REMARK   10  A    between atoms: C_32  and  C_35
REMARK                            x       y       z     vdW  Elec       q    Type
REMARK                         _______ _______ _______ _____ _____    ______ ____
ROOT
ATOM      1  C   UNL     1      -0.013  -0.384   0.490  0.00  0.00    -0.005 A 
ATOM      2  C   UNL     1      -0.183   0.971   0.546  0.00  0.00    +0.022 A 
ATOM      3  C   UNL     1       0.921   1.813   0.412  0.00  0.00    +0.065 A 
ATOM      4  C   UNL     1       0.775   3.279   0.468  0.00  0.00    +0.202 A 
ATOM      5  O   UNL     1      -0.311   3.807   0.632  0.00  0.00    -0.286 OA
ATOM      6  C   UNL     1       2.006   4.075   0.314  0.00  0.00    +0.089 A 
ATOM      7  C   UNL     1       3.187   3.423   0.133  0.00  0.00    +0.210 A 
ATOM      8  O   UNL     1       3.272   2.092   0.089  0.00  0.00    -0.462 OA
ATOM      9  C   UNL     1       2.206   1.277   0.219  0.00  0.00    +0.144 A 
ATOM     10  C   UNL     1       2.362  -0.102   0.164  0.00  0.00    +0.028 A 
ATOM     11  C   UNL     1       1.257  -0.925   0.300  0.00  0.00    +0.125 A 
ENDROOT
BRANCH   6  12
ATOM     12  C   UNL     1       1.959   5.551   0.355  0.00  0.00    +0.115 A 
ATOM     13  N   UNL     1       2.947   6.428   0.243  0.00  0.00    -0.244 NA
ATOM     14  C   UNL     1       2.720   7.721   0.300  0.00  0.00    +0.046 A 
ATOM     15  C   UNL     1       1.455   8.179   0.489  0.00  0.00    +0.070 A 
ATOM     16  S   UNL     1       0.555   6.636   0.578  0.00  0.00    -0.075 S 
ATOM     17  C   UNL     1       3.862   8.695   0.164  0.00  0.00    +0.066 C 
ENDBRANCH   6  12
BRANCH   1  19
ATOM     18  C   UNL     1      -1.332  -1.739   2.093  0.00  0.00    +0.009 C 
ATOM     19  C   UNL     1      -1.203  -1.296   0.635  0.00  0.00    +0.035 C 
ENDBRANCH   1  19
BRANCH  11  20
ATOM     20  O   UNL     1       1.411  -2.273   0.246  0.00  0.00    -0.506 OA
ATOM     21  H   UNL     1       1.653  -2.675   1.091  0.00  0.00    +0.292 HD
ENDBRANCH  11  20
BRANCH  10  22
ATOM     22  C   UNL     1       3.729  -0.700  -0.042  0.00  0.00    +0.000 C 
BRANCH  22  28
ATOM     23  C   UNL     1       6.054  -0.543   0.615  0.00  0.00    -0.078 C 
ATOM     24  C   UNL     1       7.061   0.302   1.400  0.00  0.00    -0.019 C 
ATOM     25  C   UNL     1       6.688   0.283   2.885  0.00  0.00    -0.004 C 
ATOM     26  C   UNL     1       5.259   0.808   3.051  0.00  0.00    -0.019 C 
ATOM     27  C   UNL     1       4.305  -0.051   2.219  0.00  0.00    -0.078 C 
ATOM     28  N   UNL     1       4.703   0.029   0.797  0.00  0.00    +0.387 N 
ATOM     29  H   UNL     1       4.717   1.015   0.510  0.00  0.00    -0.080 HD
ENDBRANCH  22  28
BRANCH  22  30
ATOM     30  C   UNL     1       4.128  -0.557  -1.488  0.00  0.00    -0.056 A 
ATOM     31  C   UNL     1       4.705   0.618  -1.932  0.00  0.00    +0.006 A 
ATOM     32  C   UNL     1       5.076   0.749  -3.256  0.00  0.00    +0.046 A 
ATOM     33  C   UNL     1       4.859  -0.295  -4.143  0.00  0.00    +0.120 A 
ATOM     34  C   UNL     1       4.274  -1.472  -3.696  0.00  0.00    +0.046 A 
ATOM     35  C   UNL     1       3.910  -1.600  -2.370  0.00  0.00    +0.006 A 
BRANCH  33  36
ATOM     36  O   UNL     1       5.217  -0.166  -5.447  0.00  0.00    -0.495 OA
ATOM     37  C   UNL     1       5.814   1.072  -5.837  0.00  0.00    +0.277 C 
ENDBRANCH  33  36
ENDBRANCH  22  30
ENDBRANCH  10  22
TORSDOF 7
