REMARK  Name = ZINC39388350
REMARK  8 active torsions:
REMARK  status: ('A' for Active; 'I' for Inactive)
REMARK    1  A    between atoms: C_1  and  C_2
REMARK    2  A    between atoms: C_7  and  N_8
REMARK    3  A    between atoms: C_12  and  C_34
REMARK    4  A    between atoms: C_12  and  C_35
REMARK    5  A    between atoms: C_14  and  N_19
REMARK    6  A    between atoms: C_20  and  C_22
REMARK    7  A    between atoms: C_22  and  C_23
REMARK    8  A    between atoms: C_23  and  C_24
REMARK                            x       y       z     vdW  Elec       q    Type
REMARK                         _______ _______ _______ _____ _____    ______ ____
ROOT
ATOM      1  N   UNL     1       0.534   1.140   3.267  0.00  0.00    -0.246 N 
ATOM      2  C   UNL     1      -0.589   0.595   4.037  0.00  0.00    +0.124 C 
ATOM      3  C   UNL     1      -0.687  -0.927   3.896  0.00  0.00    +0.035 C 
ATOM      4  C   UNL     1      -1.649  -1.455   4.965  0.00  0.00    -0.031 C 
ATOM      5  C   UNL     1      -1.090  -1.226   6.368  0.00  0.00    +0.033 C 
ATOM      6  C   UNL     1      -0.969   0.281   6.646  0.00  0.00    +0.103 C 
ATOM      7  C   UNL     1      -0.225   0.898   5.482  0.00  0.00    -0.013 C 
ATOM      8  C   UNL     1       0.838   1.655   5.475  0.00  0.00    +0.091 C 
ATOM      9  N   UNL     1       1.299   1.874   4.188  0.00  0.00    -0.271 N 
ATOM     10  C   UNL     1      -2.991  -0.730   4.835  0.00  0.00    +0.011 C 
ATOM     11  C   UNL     1      -1.867  -2.954   4.748  0.00  0.00    +0.011 C 
ATOM     12  H   UNL     1       2.042   2.453   3.957  0.00  0.00    +0.169 HD
ENDROOT
BRANCH   1  19
ATOM     13  C   UNL     1       0.868   3.456   1.649  0.00  0.00    +0.046 C 
ATOM     14  C   UNL     1       0.961   2.064   1.079  0.00  0.00    -0.028 A 
ATOM     15  C   UNL     1       1.221   1.885  -0.266  0.00  0.00    +0.005 A 
ATOM     16  C   UNL     1       1.306   0.608  -0.790  0.00  0.00    +0.000 A 
ATOM     17  C   UNL     1       1.132  -0.493   0.029  0.00  0.00    +0.002 A 
ATOM     18  C   UNL     1       0.872  -0.320   1.374  0.00  0.00    +0.025 A 
ATOM     19  C   UNL     1       0.791   0.961   1.905  0.00  0.00    +0.051 A 
ENDBRANCH   1  19
BRANCH   6  20
ATOM     20  N   UNL     1      -2.303   0.880   6.744  0.00  0.00    -0.309 N 
ATOM     21  C   UNL     1      -3.048   0.688   7.850  0.00  0.00    +0.214 C 
ATOM     22  O   UNL     1      -2.616   0.019   8.764  0.00  0.00    -0.276 OA
ATOM     23  H   UNL     1      -2.648   1.416   6.013  0.00  0.00    +0.149 HD
BRANCH  21  24
ATOM     24  C   UNL     1      -4.420   1.305   7.950  0.00  0.00    +0.102 C 
BRANCH  24  25
ATOM     25  C   UNL     1      -5.048   0.935   9.296  0.00  0.00    +0.064 C 
BRANCH  25  26
ATOM     26  C   UNL     1      -6.419   1.552   9.396  0.00  0.00    +0.040 A 
ATOM     27  C   UNL     1      -7.564   1.026   8.923  0.00  0.00    -0.004 A 
ATOM     28  C   UNL     1      -8.609   1.915   9.223  0.00  0.00    +0.066 A 
ATOM     29  N   UNL     1      -8.106   2.935   9.856  0.00  0.00    -0.178 NA
ATOM     30  N   UNL     1      -6.723   2.731   9.983  0.00  0.00    -0.281 N 
ATOM     31  H   UNL     1      -6.096   3.331  10.415  0.00  0.00    +0.189 HD
ATOM     32  C   UNL     1     -10.048   1.668   8.842  0.00  0.00    +0.057 C 
ATOM     33  C   UNL     1     -10.079   0.573   7.769  0.00  0.00    +0.007 C 
ATOM     34  C   UNL     1      -9.255  -0.630   8.233  0.00  0.00    +0.005 C 
ATOM     35  C   UNL     1      -7.762  -0.281   8.194  0.00  0.00    +0.039 C 
ENDBRANCH  25  26
ENDBRANCH  24  25
ENDBRANCH  21  24
ENDBRANCH   6  20
TORSDOF 5
