REMARK  Name = ZINC41472816
REMARK  7 active torsions:
REMARK  status: ('A' for Active; 'I' for Inactive)
REMARK    1  A    between atoms: C_1  and  O_2
REMARK    2  A    between atoms: O_2  and  C_3
REMARK    3  A    between atoms: C_8  and  O_9
REMARK    4  A    between atoms: O_9  and  C_10
REMARK    5  A    between atoms: C_12  and  C_23
REMARK    6  A    between atoms: N_15  and  C_16
REMARK    7  A    between atoms: C_19  and  O_22
REMARK                            x       y       z     vdW  Elec       q    Type
REMARK                         _______ _______ _______ _____ _____    ______ ____
ROOT
ATOM      1  C   UNL     1      -1.201  -0.638   0.010  0.00  0.00    +0.162 A 
ATOM      2  C   UNL     1      -2.352   0.098   0.019  0.00  0.00    +0.062 A 
ATOM      3  C   UNL     1      -3.591  -0.554   0.027  0.00  0.00    +0.044 A 
ATOM      4  C   UNL     1      -3.645  -1.970   0.025  0.00  0.00    +0.080 A 
ATOM      5  C   UNL     1      -2.453  -2.704   0.017  0.00  0.00    +0.078 A 
ATOM      6  C   UNL     1      -1.246  -2.039   0.003  0.00  0.00    +0.164 A 
ATOM      7  N   UNL     1      -4.846  -2.569   0.032  0.00  0.00    -0.224 NA
ATOM      8  C   UNL     1      -5.946  -1.855   0.040  0.00  0.00    +0.236 A 
ATOM      9  N   UNL     1      -5.944  -0.531   0.042  0.00  0.00    -0.209 NA
ATOM     10  C   UNL     1      -4.813   0.161   0.036  0.00  0.00    +0.131 A 
ATOM     11  N   UNL     1      -4.826   1.540   0.038  0.00  0.00    -0.326 N 
ATOM     12  H   UNL     1      -3.991   2.034   0.034  0.00  0.00    +0.148 HD
ENDROOT
BRANCH  11  13
ATOM     13  C   UNL     1      -6.102   2.260   0.048  0.00  0.00    +0.072 C 
ATOM     14  C   UNL     1      -6.617   2.404  -1.386  0.00  0.00    +0.025 C 
ATOM     15  C   UNL     1      -5.597   3.184  -2.218  0.00  0.00    +0.033 C 
ATOM     16  C   UNL     1      -5.395   4.572  -1.608  0.00  0.00    +0.115 C 
ATOM     17  C   UNL     1      -4.880   4.428  -0.174  0.00  0.00    +0.033 C 
ATOM     18  C   UNL     1      -5.900   3.649   0.658  0.00  0.00    +0.025 C 
BRANCH  16  19
ATOM     19  O   UNL     1      -4.442   5.301  -2.385  0.00  0.00    -0.392 OA
ATOM     20  H   UNL     1      -4.264   6.192  -2.055  0.00  0.00    +0.210 HD
ENDBRANCH  16  19
ENDBRANCH  11  13
BRANCH   8  21
ATOM     21  C   UNL     1      -7.271  -2.573   0.047  0.00  0.00    +0.452 C 
ATOM     22  F   UNL     1      -7.071  -3.916   0.385  0.00  0.00    -0.163 F 
ATOM     23  F   UNL     1      -8.119  -1.977   0.986  0.00  0.00    -0.163 F 
ATOM     24  F   UNL     1      -7.851  -2.493  -1.224  0.00  0.00    -0.163 F 
ENDBRANCH   8  21
BRANCH   1  26
ATOM     25  C   UNL     1      -0.017   1.425   0.010  0.00  0.00    +0.277 C 
ATOM     26  O   UNL     1       0.002  -0.004   0.002  0.00  0.00    -0.491 OA
ENDBRANCH   1  26
BRANCH   6  27
ATOM     27  O   UNL     1      -0.088  -2.749  -0.011  0.00  0.00    -0.491 OA
ATOM     28  C   UNL     1      -0.200  -4.173  -0.018  0.00  0.00    +0.277 C 
ENDBRANCH   6  27
TORSDOF 5
