REMARK  Name = ZINC31591243
REMARK  6 active torsions:
REMARK  status: ('A' for Active; 'I' for Inactive)
REMARK    1  A    between atoms: C_1  and  C_2
REMARK    2  A    between atoms: C_4  and  C_21
REMARK    3  A    between atoms: C_6  and  C_18
REMARK    4  A    between atoms: C_10  and  C_11
REMARK    5  A    between atoms: N_13  and  N_14
REMARK    6  A    between atoms: C_15  and  C_17
REMARK                            x       y       z     vdW  Elec       q    Type
REMARK                         _______ _______ _______ _____ _____    ______ ____
ROOT
ATOM      1  C   UNL     1       3.716   0.405   0.460  0.00  0.00    +0.046 C 
ATOM      2  C   UNL     1       2.226   0.629   0.431  0.00  0.00    -0.020 A 
ATOM      3  C   UNL     1       1.359  -0.438   0.147  0.00  0.00    +0.032 A 
ATOM      4  C   UNL     1       1.665  -1.792  -0.137  0.00  0.00    +0.050 A 
ATOM      5  N   UNL     1       0.687  -2.638  -0.377  0.00  0.00    -0.236 NA
ATOM      6  C   UNL     1      -0.584  -2.273  -0.363  0.00  0.00    +0.134 A 
ATOM      7  N   UNL     1      -0.939  -1.029  -0.105  0.00  0.00    -0.225 NA
ATOM      8  C   UNL     1      -0.024  -0.118   0.145  0.00  0.00    +0.113 A 
ATOM      9  S   UNL     1      -0.042   1.614   0.528  0.00  0.00    -0.064 S 
ATOM     10  C   UNL     1       1.719   1.866   0.678  0.00  0.00    +0.081 A 
ATOM     11  C   UNL     1       3.098  -2.259  -0.165  0.00  0.00    +0.066 C 
ENDROOT
BRANCH  10  12
ATOM     12  C   UNL     1       2.442   3.106   0.992  0.00  0.00    +0.267 C 
ATOM     13  O   UNL     1       3.657   3.103   1.055  0.00  0.00    -0.268 OA
ATOM     14  N   UNL     1       1.760   4.248   1.210  0.00  0.00    -0.230 N 
ATOM     15  H   UNL     1       0.661   4.251   1.153  0.00  0.00    +0.173 HD
BRANCH  14  16
ATOM     16  N   UNL     1       2.449   5.430   1.509  0.00  0.00    -0.234 N 
ATOM     17  C   UNL     1       1.767   6.572   1.726  0.00  0.00    +0.226 C 
ATOM     18  O   UNL     1       0.555   6.575   1.663  0.00  0.00    -0.275 OA
ATOM     19  C   UNL     1       2.509   7.843   2.048  0.00  0.00    +0.110 C 
ATOM     20  H   UNL     1       3.548   5.427   1.566  0.00  0.00    +0.173 HD
ENDBRANCH  14  16
ENDBRANCH  10  12
BRANCH   6  21
ATOM     21  C   UNL     1      -1.649  -3.300  -0.648  0.00  0.00    +0.057 C 
ATOM     22  C   UNL     1      -3.084  -2.800  -0.822  0.00  0.00    +0.012 C 
ATOM     23  C   UNL     1      -2.688  -3.562   0.444  0.00  0.00    +0.012 C 
ENDBRANCH   6  21
TORSDOF 3
