REMARK  Name = ZINC00920680
REMARK  7 active torsions:
REMARK  status: ('A' for Active; 'I' for Inactive)
REMARK    1  A    between atoms: C_1  and  C_2
REMARK    2  A    between atoms: C_8  and  C_9
REMARK    3  A    between atoms: C_8  and  N_58
REMARK    4  A    between atoms: N_11  and  C_12
REMARK    5  A    between atoms: C_15  and  S_18
REMARK    6  A    between atoms: S_18  and  N_21
REMARK    7  A    between atoms: N_21  and  C_22
REMARK                            x       y       z     vdW  Elec       q    Type
REMARK                         _______ _______ _______ _____ _____    ______ ____
ROOT
ATOM      1  C   UNL     1      -0.131   4.574  -0.018  0.00  0.00    +0.033 A 
ATOM      2  C   UNL     1       1.062   3.863  -0.056  0.00  0.00    +0.025 A 
ATOM      3  C   UNL     1       1.040   2.483  -0.099  0.00  0.00    +0.030 A 
ATOM      4  C   UNL     1      -0.168   1.809  -0.105  0.00  0.00    +0.105 A 
ATOM      5  C   UNL     1      -1.357   2.514  -0.073  0.00  0.00    +0.030 A 
ATOM      6  C   UNL     1      -1.342   3.895  -0.025  0.00  0.00    +0.025 A 
ENDROOT
BRANCH   1   9
ATOM      7  C   UNL     1       0.930   6.649  -0.497  0.00  0.00    +0.201 C 
ATOM      8  O   UNL     1       1.806   6.053  -1.087  0.00  0.00    -0.278 OA
ATOM      9  N   UNL     1      -0.112   5.973   0.026  0.00  0.00    -0.287 N 
ATOM     10  H   UNL     1      -0.848   6.455   0.433  0.00  0.00    +0.155 HD
BRANCH   7  11
ATOM     11  C   UNL     1       1.006   8.147  -0.349  0.00  0.00    +0.019 C 
BRANCH  11  18
ATOM     12  C   UNL     1       0.734   8.925  -3.040  0.00  0.00    -0.013 C 
ATOM     13  C   UNL     1       2.061   8.371  -2.517  0.00  0.00    -0.071 C 
ATOM     14  C   UNL     1       3.220   9.036  -3.263  0.00  0.00    -0.016 C 
ATOM     15  C   UNL     1       4.546   8.494  -2.722  0.00  0.00    -0.003 C 
ATOM     16  C   UNL     1       4.620   8.757  -1.216  0.00  0.00    -0.019 C 
ATOM     17  C   UNL     1       3.420   8.100  -0.529  0.00  0.00    -0.078 C 
ATOM     18  N   UNL     1       2.176   8.682  -1.076  0.00  0.00    +0.387 N 
ATOM     19  H   UNL     1       2.205   9.702  -0.957  0.00  0.00    -0.081 HD
ENDBRANCH  11  18
ENDBRANCH   7  11
ENDBRANCH   1   9
BRANCH   4  20
ATOM     20  S   UNL     1      -0.192   0.048  -0.161  0.00  0.00    +0.059 S 
ATOM     21  O   UNL     1      -1.449  -0.324  -0.709  0.00  0.00    -0.153 OA
ATOM     22  O   UNL     1       1.041  -0.356  -0.741  0.00  0.00    -0.153 OA
BRANCH  20  23
ATOM     23  N   UNL     1      -0.179  -0.492   1.404  0.00  0.00    -0.187 NA
ATOM     24  H   UNL     1       0.580  -0.996   1.737  0.00  0.00    +0.148 HD
BRANCH  23  25
ATOM     25  C   UNL     1      -1.314  -0.209   2.286  0.00  0.00    +0.077 C 
ATOM     26  C   UNL     1      -1.023   1.051   3.103  0.00  0.00    +0.020 C 
ATOM     27  C   UNL     1      -2.208   1.347   4.025  0.00  0.00    +0.002 C 
ATOM     28  C   UNL     1      -2.426   0.165   4.971  0.00  0.00    +0.000 C 
ATOM     29  C   UNL     1      -2.717  -1.096   4.154  0.00  0.00    +0.002 C 
ATOM     30  C   UNL     1      -1.532  -1.391   3.232  0.00  0.00    +0.020 C 
ENDBRANCH  23  25
ENDBRANCH  20  23
ENDBRANCH   4  20
TORSDOF 6
