REMARK  Name = ZINC11839414
REMARK  8 active torsions:
REMARK  status: ('A' for Active; 'I' for Inactive)
REMARK    1  A    between atoms: C_1  and  O_2
REMARK    2  A    between atoms: O_2  and  C_3
REMARK    3  A    between atoms: C_7  and  C_10
REMARK    4  A    between atoms: C_8  and  O_9
REMARK    5  A    between atoms: C_10  and  N_57
REMARK    6  A    between atoms: C_13  and  C_16
REMARK    7  A    between atoms: C_16  and  C_23
REMARK    8  A    between atoms: C_23  and  C_24
REMARK                            x       y       z     vdW  Elec       q    Type
REMARK                         _______ _______ _______ _____ _____    ______ ____
ROOT
ATOM      1  C   UNL     1      -4.292   3.917   3.397  0.00  0.00    -0.078 C 
ATOM      2  C   UNL     1      -4.925   5.259   3.024  0.00  0.00    -0.013 C 
ATOM      3  C   UNL     1      -5.835   5.723   4.164  0.00  0.00    +0.018 C 
ATOM      4  C   UNL     1      -6.897   4.652   4.428  0.00  0.00    -0.013 C 
ATOM      5  C   UNL     1      -6.206   3.327   4.760  0.00  0.00    -0.078 C 
ATOM      6  N   UNL     1      -5.365   2.924   3.614  0.00  0.00    +0.382 N 
ATOM      7  H   UNL     1      -5.950   2.877   2.771  0.00  0.00    -0.081 HD
ENDROOT
BRANCH   3   8
ATOM      8  C   UNL     1      -6.519   7.035   3.773  0.00  0.00    +0.119 C 
ATOM      9  C   UNL     1      -7.485   7.476   4.855  0.00  0.00    +0.244 C 
ATOM     10  O   UNL     1      -7.219   7.755   6.005  0.00  0.00    -0.273 OA
ATOM     11  N   UNL     1      -8.700   7.496   4.273  0.00  0.00    -0.238 N 
ATOM     12  C   UNL     1      -8.637   7.132   2.987  0.00  0.00    +0.307 C 
ATOM     13  O   UNL     1      -9.604   7.072   2.254  0.00  0.00    -0.252 OA
ATOM     14  N   UNL     1      -7.380   6.839   2.594  0.00  0.00    -0.284 N 
ATOM     15  H   UNL     1      -9.519   7.744   4.730  0.00  0.00    +0.159 HD
ATOM     16  H   UNL     1      -7.098   6.556   1.711  0.00  0.00    +0.151 HD
BRANCH   8  17
ATOM     17  C   UNL     1      -5.478   8.123   3.504  0.00  0.00    +0.070 C 
BRANCH  17  18
ATOM     18  C   UNL     1      -6.176   9.403   3.122  0.00  0.00    -0.045 A 
ATOM     19  C   UNL     1      -6.451   9.670   1.794  0.00  0.00    +0.004 A 
ATOM     20  C   UNL     1      -7.095  10.842   1.443  0.00  0.00    +0.000 A 
ATOM     21  C   UNL     1      -7.456  11.751   2.420  0.00  0.00    +0.000 A 
ATOM     22  C   UNL     1      -7.176  11.486   3.748  0.00  0.00    +0.000 A 
ATOM     23  C   UNL     1      -6.536  10.313   4.098  0.00  0.00    +0.004 A 
ENDBRANCH  17  18
ENDBRANCH   8  17
ENDBRANCH   3   8
BRANCH   6  24
ATOM     24  C   UNL     1      -4.777   1.592   3.864  0.00  0.00    -0.039 C 
BRANCH  24  29
ATOM     25  C   UNL     1      -4.589   0.100   0.390  0.00  0.00    +0.161 A 
ATOM     26  C   UNL     1      -3.219   0.061   0.185  0.00  0.00    +0.049 A 
ATOM     27  C   UNL     1      -2.361   0.524   1.164  0.00  0.00    +0.004 A 
ATOM     28  C   UNL     1      -2.865   1.018   2.353  0.00  0.00    +0.005 A 
ATOM     29  C   UNL     1      -4.230   1.054   2.566  0.00  0.00    -0.019 A 
ATOM     30  C   UNL     1      -5.097   0.595   1.587  0.00  0.00    +0.160 A 
BRANCH  25  32
ATOM     31  C   UNL     1      -4.843  -0.846  -1.777  0.00  0.00    +0.277 C 
ATOM     32  O   UNL     1      -5.435  -0.351  -0.575  0.00  0.00    -0.491 OA
ENDBRANCH  25  32
BRANCH  30  33
ATOM     33  O   UNL     1      -6.440   0.630   1.795  0.00  0.00    -0.503 OA
ATOM     34  H   UNL     1      -6.805  -0.194   2.146  0.00  0.00    +0.292 HD
ENDBRANCH  30  33
ENDBRANCH  24  29
ENDBRANCH   6  24
TORSDOF 7
