REMARK  Name = ZINC39953586
REMARK  8 active torsions:
REMARK  status: ('A' for Active; 'I' for Inactive)
REMARK    1  A    between atoms: C_1  and  C_2
REMARK    2  A    between atoms: C_2  and  C_3
REMARK    3  A    between atoms: C_3  and  N_4
REMARK    4  A    between atoms: C_9  and  C_15
REMARK    5  A    between atoms: C_18  and  S_21
REMARK    6  A    between atoms: S_21  and  N_24
REMARK    7  A    between atoms: N_27  and  C_30
REMARK    8  A    between atoms: C_30  and  C_31
REMARK                            x       y       z     vdW  Elec       q    Type
REMARK                         _______ _______ _______ _____ _____    ______ ____
ROOT
ATOM      1  C   UNL     1       2.490  -7.577  -0.341  0.00  0.00    +0.019 A 
ATOM      2  C   UNL     1       3.702  -7.677   0.356  0.00  0.00    +0.013 A 
ATOM      3  C   UNL     1       4.229  -8.918   0.640  0.00  0.00    +0.029 A 
ATOM      4  C   UNL     1       3.564 -10.065   0.238  0.00  0.00    +0.106 A 
ATOM      5  C   UNL     1       2.366  -9.975  -0.451  0.00  0.00    +0.029 A 
ATOM      6  C   UNL     1       1.822  -8.742  -0.738  0.00  0.00    +0.013 A 
ENDROOT
BRANCH   1  12
ATOM      7  N   UNL     1       0.738  -1.962  -1.265  0.00  0.00    -0.219 N 
ATOM      8  C   UNL     1       1.772  -2.615  -0.683  0.00  0.00    +0.276 C 
ATOM      9  O   UNL     1       2.684  -2.013  -0.154  0.00  0.00    -0.268 OA
ATOM     10  C   UNL     1       1.741  -4.095  -0.721  0.00  0.00    +0.170 C 
ATOM     11  N   UNL     1       2.496  -5.065  -0.303  0.00  0.00    -0.219 NA
ATOM     12  C   UNL     1       1.919  -6.254  -0.648  0.00  0.00    +0.163 C 
ATOM     13  N   UNL     1       0.783  -6.063  -1.294  0.00  0.00    -0.208 NA
ATOM     14  C   UNL     1       0.571  -4.739  -1.397  0.00  0.00    +0.180 C 
ATOM     15  N   UNL     1      -0.351  -3.967  -1.913  0.00  0.00    -0.141 NA
ATOM     16  C   UNL     1      -0.270  -2.630  -1.843  0.00  0.00    +0.334 C 
ATOM     17  O   UNL     1      -1.169  -1.980  -2.341  0.00  0.00    -0.250 OA
BRANCH   7  18
ATOM     18  C   UNL     1       0.718  -0.497  -1.257  0.00  0.00    +0.118 C 
BRANCH  18  20
ATOM     19  C   UNL     1      -0.019   1.526   0.010  0.00  0.00    +0.005 C 
ATOM     20  C   UNL     1       0.002  -0.004   0.002  0.00  0.00    +0.016 C 
ENDBRANCH  18  20
ENDBRANCH   7  18
ENDBRANCH   1  12
BRANCH   4  21
ATOM     21  S   UNL     1       4.247 -11.647   0.606  0.00  0.00    +0.061 S 
ATOM     22  O   UNL     1       3.714 -12.552  -0.352  0.00  0.00    -0.153 OA
ATOM     23  O   UNL     1       5.645 -11.456   0.778  0.00  0.00    -0.153 OA
BRANCH  21  24
ATOM     24  N   UNL     1       3.647 -12.109   2.079  0.00  0.00    -0.174 NA
ATOM     25  C   UNL     1       4.349 -11.759   3.323  0.00  0.00    +0.125 C 
ATOM     26  C   UNL     1       3.347 -11.105   4.280  0.00  0.00    +0.102 C 
ATOM     27  N   UNL     1       2.187 -11.990   4.449  0.00  0.00    -0.296 NA
ATOM     28  C   UNL     1       1.473 -12.182   3.179  0.00  0.00    +0.102 C 
ATOM     29  C   UNL     1       2.396 -12.875   2.177  0.00  0.00    +0.125 C 
BRANCH  27  30
ATOM     30  C   UNL     1       1.283 -11.481   5.489  0.00  0.00    +0.119 C 
BRANCH  30  31
ATOM     31  C   UNL     1       0.244 -12.525   5.807  0.00  0.00    -0.033 A 
ATOM     32  C   UNL     1      -0.946 -12.553   5.104  0.00  0.00    +0.005 A 
ATOM     33  C   UNL     1      -1.899 -13.511   5.396  0.00  0.00    +0.000 A 
ATOM     34  C   UNL     1      -1.662 -14.441   6.390  0.00  0.00    +0.000 A 
ATOM     35  C   UNL     1      -0.471 -14.414   7.092  0.00  0.00    +0.000 A 
ATOM     36  C   UNL     1       0.483 -13.459   6.798  0.00  0.00    +0.005 A 
ENDBRANCH  30  31
ENDBRANCH  27  30
ENDBRANCH  21  24
ENDBRANCH   4  21
TORSDOF 7
