REMARK  Name = ZINC22282088
REMARK  6 active torsions:
REMARK  status: ('A' for Active; 'I' for Inactive)
REMARK    1  A    between atoms: C_1  and  C_2
REMARK    2  A    between atoms: C_6  and  N_9
REMARK    3  A    between atoms: C_7  and  C_8
REMARK    4  A    between atoms: C_13  and  S_14
REMARK    5  A    between atoms: S_14  and  C_15
REMARK    6  A    between atoms: C_15  and  C_16
REMARK                            x       y       z     vdW  Elec       q    Type
REMARK                         _______ _______ _______ _____ _____    ______ ____
ROOT
ATOM      1  N   UNL     1       2.494   6.428   2.388  0.00  0.00    -0.294 N 
ATOM      2  C   UNL     1       2.812   7.601   1.736  0.00  0.00    +0.113 A 
ATOM      3  C   UNL     1       2.729   7.351   0.417  0.00  0.00    +0.131 A 
ATOM      4  N   UNL     1       2.377   6.065   0.251  0.00  0.00    -0.230 NA
ATOM      5  C   UNL     1       2.235   5.497   1.426  0.00  0.00    +0.174 A 
ENDROOT
BRANCH   1  11
ATOM      6  C   UNL     1       4.271   4.227   6.411  0.00  0.00    +0.044 C 
ATOM      7  C   UNL     1       3.298   5.170   5.750  0.00  0.00    -0.046 A 
ATOM      8  C   UNL     1       2.360   5.841   6.512  0.00  0.00    +0.004 A 
ATOM      9  C   UNL     1       1.466   6.706   5.909  0.00  0.00    +0.002 A 
ATOM     10  C   UNL     1       1.508   6.903   4.543  0.00  0.00    +0.026 A 
ATOM     11  C   UNL     1       2.449   6.231   3.775  0.00  0.00    +0.052 A 
ATOM     12  C   UNL     1       3.342   5.358   4.382  0.00  0.00    -0.024 A 
ATOM     13  C   UNL     1       4.360   4.621   3.551  0.00  0.00    +0.046 C 
ENDBRANCH   1  11
BRANCH   5  14
ATOM     14  S   UNL     1       1.780   3.819   1.712  0.00  0.00    -0.078 S 
BRANCH  14  15
ATOM     15  C   UNL     1       1.605   3.245   0.004  0.00  0.00    +0.173 C 
BRANCH  15  16
ATOM     16  C   UNL     1       1.208   1.792   0.000  0.00  0.00    +0.207 A 
ATOM     17  N   UNL     1      -0.016   1.356   0.009  0.00  0.00    -0.213 NA
ATOM     18  C   UNL     1       0.002  -0.004   0.002  0.00  0.00    +0.110 A 
ATOM     19  C   UNL     1      -0.992  -0.984   0.006  0.00  0.00    +0.031 A 
ATOM     20  C   UNL     1      -0.639  -2.315  -0.004  0.00  0.00    +0.002 A 
ATOM     21  C   UNL     1       0.697  -2.687  -0.019  0.00  0.00    +0.004 A 
ATOM     22  C   UNL     1       1.690  -1.730  -0.023  0.00  0.00    +0.048 A 
ATOM     23  C   UNL     1       1.353  -0.385  -0.013  0.00  0.00    +0.155 A 
ATOM     24  O   UNL     1       2.068   0.761  -0.014  0.00  0.00    -0.439 OA
ENDBRANCH  15  16
ENDBRANCH  14  15
ENDBRANCH   5  14
TORSDOF 4
