REMARK  Name = ZINC66314001
REMARK  7 active torsions:
REMARK  status: ('A' for Active; 'I' for Inactive)
REMARK    1  A    between atoms: C_1  and  C_2
REMARK    2  A    between atoms: C_2  and  C_4
REMARK    3  A    between atoms: C_2  and  N_20
REMARK    4  A    between atoms: C_4  and  C_5
REMARK    5  A    between atoms: N_7  and  C_8
REMARK    6  A    between atoms: C_10  and  C_16
REMARK    7  A    between atoms: C_21  and  C_23
REMARK                            x       y       z     vdW  Elec       q    Type
REMARK                         _______ _______ _______ _____ _____    ______ ____
ROOT
ATOM      1  C   UNL     1       1.023  -2.007   1.093  0.00  0.00    +0.219 C 
ATOM      2  O   UNL     1       0.711  -2.608   0.087  0.00  0.00    -0.275 OA
ATOM      3  N   UNL     1       1.491  -2.681   2.163  0.00  0.00    -0.281 N 
ATOM      4  H   UNL     1       1.808  -2.196   2.941  0.00  0.00    +0.155 HD
ENDROOT
BRANCH   3   5
ATOM      5  C   UNL     1       1.518  -4.082   2.151  0.00  0.00    +0.099 A 
ATOM      6  C   UNL     1       2.699  -4.753   2.322  0.00  0.00    +0.042 A 
ATOM      7  C   UNL     1       2.698  -6.155   2.307  0.00  0.00    +0.073 A 
ATOM      8  C   UNL     1       1.540  -6.829   2.124  0.00  0.00    +0.098 A 
ATOM      9  N   UNL     1       0.366  -6.165   1.954  0.00  0.00    -0.327 N 
ATOM     10  H   UNL     1      -0.454  -6.666   1.824  0.00  0.00    +0.168 HD
ATOM     11  C   UNL     1       0.328  -4.819   1.968  0.00  0.00    +0.270 A 
ATOM     12  O   UNL     1      -0.734  -4.236   1.819  0.00  0.00    -0.266 OA
BRANCH   7  13
ATOM     13  C   UNL     1       3.988  -6.911   2.493  0.00  0.00    +0.419 C 
ATOM     14  F   UNL     1       3.735  -8.286   2.440  0.00  0.00    -0.166 F 
ATOM     15  F   UNL     1       4.884  -6.562   1.477  0.00  0.00    -0.166 F 
ATOM     16  F   UNL     1       4.543  -6.586   3.736  0.00  0.00    -0.166 F 
ENDBRANCH   7  13
ENDBRANCH   3   5
BRANCH   1  17
ATOM     17  C   UNL     1       0.888  -0.507   1.148  0.00  0.00    +0.118 C 
BRANCH  17  19
ATOM     18  C   UNL     1       0.319   1.534  -0.176  0.00  0.00    +0.028 C 
ATOM     19  C   UNL     1       0.339   0.004  -0.186  0.00  0.00    +0.079 C 
BRANCH  19  20
ATOM     20  N   UNL     1      -1.022  -0.501  -0.379  0.00  0.00    -0.312 N 
ATOM     21  C   UNL     1      -1.523  -0.628  -1.624  0.00  0.00    +0.216 C 
ATOM     22  O   UNL     1      -0.847  -0.325  -2.584  0.00  0.00    -0.276 OA
ATOM     23  H   UNL     1      -1.563  -0.744   0.388  0.00  0.00    +0.149 HD
BRANCH  21  24
ATOM     24  C   UNL     1      -2.924  -1.148  -1.823  0.00  0.00    +0.075 C 
ATOM     25  C   UNL     1      -3.034  -2.556  -1.234  0.00  0.00    +0.013 C 
ATOM     26  C   UNL     1      -4.456  -3.083  -1.437  0.00  0.00    +0.001 C 
ATOM     27  C   UNL     1      -4.775  -3.130  -2.932  0.00  0.00    +0.000 C 
ATOM     28  C   UNL     1      -4.665  -1.722  -3.521  0.00  0.00    +0.001 C 
ATOM     29  C   UNL     1      -3.243  -1.194  -3.319  0.00  0.00    +0.013 C 
ENDBRANCH  21  24
ENDBRANCH  19  20
ENDBRANCH  17  19
ENDBRANCH   1  17
TORSDOF 6
