REMARK  Name = ZINC61916147
REMARK  5 active torsions:
REMARK  status: ('A' for Active; 'I' for Inactive)
REMARK    1  A    between atoms: C_1  and  C_2
REMARK    2  A    between atoms: N_5  and  S_10
REMARK    3  A    between atoms: S_10  and  C_13
REMARK    4  A    between atoms: C_16  and  O_20
REMARK    5  A    between atoms: C_17  and  N_19
REMARK                            x       y       z     vdW  Elec       q    Type
REMARK                         _______ _______ _______ _____ _____    ______ ____
ROOT
ATOM      1  S   UNL     1      -0.232  -2.869  -2.205  0.00  0.00    +0.061 S 
ATOM      2  O   UNL     1      -0.414  -4.130  -1.575  0.00  0.00    -0.153 OA
ATOM      3  O   UNL     1      -1.324  -2.052  -2.602  0.00  0.00    -0.153 OA
ENDROOT
BRANCH   1   7
ATOM      4  C   UNL     1      -0.019   1.526   0.010  0.00  0.00    +0.039 C 
ATOM      5  C   UNL     1       0.002  -0.004   0.002  0.00  0.00    +0.131 C 
ATOM      6  C   UNL     1       0.649  -0.458  -1.237  0.00  0.00    +0.140 C 
ATOM      7  N   UNL     1       0.694  -1.957  -1.178  0.00  0.00    -0.174 NA
ATOM      8  C   UNL     1       1.552  -2.584  -0.216  0.00  0.00    +0.112 C 
ATOM      9  C   UNL     1       0.931  -2.865   1.179  0.00  0.00    +0.045 C 
ATOM     10  C   UNL     1       0.054  -1.653   1.591  0.00  0.00    +0.161 C 
ATOM     11  O   UNL     1       0.652  -0.456   1.185  0.00  0.00    -0.375 OA
ENDBRANCH   1   7
BRANCH   1  12
ATOM     12  C   UNL     1       0.730  -3.163  -3.652  0.00  0.00    +0.107 A 
ATOM     13  C   UNL     1       0.673  -2.275  -4.710  0.00  0.00    +0.032 A 
ATOM     14  C   UNL     1       1.427  -2.499  -5.847  0.00  0.00    +0.049 A 
ATOM     15  C   UNL     1       2.241  -3.617  -5.930  0.00  0.00    +0.137 A 
ATOM     16  C   UNL     1       2.299  -4.512  -4.864  0.00  0.00    +0.068 A 
ATOM     17  C   UNL     1       1.545  -4.277  -3.724  0.00  0.00    +0.055 A 
BRANCH  16  18
ATOM     18  N   UNL     1       3.120  -5.643  -4.942  0.00  0.00    -0.355 N 
ATOM     19  H   UNL     1       3.649  -5.804  -5.738  0.00  0.00    +0.142 HD
ATOM     20  H   UNL     1       3.159  -6.266  -4.199  0.00  0.00    +0.142 HD
ENDBRANCH  16  18
BRANCH  15  21
ATOM     21  O   UNL     1       2.982  -3.839  -7.048  0.00  0.00    -0.505 OA
ATOM     22  H   UNL     1       3.864  -3.443  -7.021  0.00  0.00    +0.292 HD
ENDBRANCH  15  21
ENDBRANCH   1  12
TORSDOF 4
