REMARK  Name = ZINC39609329
REMARK  11 active torsions:
REMARK  status: ('A' for Active; 'I' for Inactive)
REMARK    1  A    between atoms: C_1  and  C_2
REMARK    2  A    between atoms: C_5  and  C_9
REMARK    3  A    between atoms: C_7  and  C_8
REMARK    4  A    between atoms: C_9  and  C_10
REMARK    5  A    between atoms: C_10  and  N_11
REMARK    6  A    between atoms: C_12  and  C_14
REMARK    7  A    between atoms: C_25  and  C_27
REMARK    8  A    between atoms: C_29  and  O_35
REMARK    9  A    between atoms: C_32  and  O_33
REMARK   10  A    between atoms: O_33  and  C_34
REMARK   11  A    between atoms: O_35  and  C_36
REMARK                            x       y       z     vdW  Elec       q    Type
REMARK                         _______ _______ _______ _____ _____    ______ ____
ROOT
ATOM      1  C   UNL     1       2.715  -8.399  -0.059  0.00  0.00    +0.100 C 
ATOM      2  C   UNL     1       1.952  -8.945  -1.286  0.00  0.00    +0.121 C 
ATOM      3  N   UNL     1       3.000  -9.167  -2.310  0.00  0.00    -0.296 N 
ATOM      4  C   UNL     1       4.150  -9.709  -1.549  0.00  0.00    +0.115 C 
ATOM      5  C   UNL     1       4.157  -8.906  -0.233  0.00  0.00    -0.004 C 
ATOM      6  C   UNL     1       4.544  -9.809   0.935  0.00  0.00    -0.010 C 
ATOM      7  C   UNL     1       6.000 -10.253   0.770  0.00  0.00    -0.082 C 
ATOM      8  N   UNL     1       6.872  -9.072   0.727  0.00  0.00    +0.379 N 
ATOM      9  C   UNL     1       6.554  -8.258  -0.452  0.00  0.00    -0.082 C 
ATOM     10  C   UNL     1       5.122  -7.729  -0.338  0.00  0.00    -0.010 C 
ATOM     11  C   UNL     1       2.923  -8.931  -3.635  0.00  0.00    +0.250 C 
ATOM     12  O   UNL     1       1.938  -8.391  -4.100  0.00  0.00    -0.270 OA
ATOM     13  H   UNL     1       6.733  -8.523   1.561  0.00  0.00    -0.086 HD
ATOM     14  H   UNL     1       7.835  -9.369   0.679  0.00  0.00    -0.086 HD
ENDROOT
BRANCH  11  15
ATOM     15  C   UNL     1       4.035  -9.327  -4.520  0.00  0.00    +0.082 A 
ATOM     16  C   UNL     1       4.764 -10.489  -4.255  0.00  0.00    +0.062 A 
ATOM     17  C   UNL     1       5.804 -10.855  -5.089  0.00  0.00    +0.121 A 
ATOM     18  C   UNL     1       6.127 -10.069  -6.189  0.00  0.00    +0.049 A 
ATOM     19  C   UNL     1       5.412  -8.919  -6.458  0.00  0.00    +0.050 A 
ATOM     20  C   UNL     1       4.362  -8.543  -5.634  0.00  0.00    +0.132 A 
BRANCH  20  21
ATOM     21  O   UNL     1       3.657  -7.415  -5.903  0.00  0.00    -0.494 OA
ATOM     22  C   UNL     1       4.046  -6.665  -7.055  0.00  0.00    +0.277 C 
ENDBRANCH  20  21
BRANCH  17  23
ATOM     23  O   UNL     1       6.514 -11.986  -4.832  0.00  0.00    -0.495 OA
ATOM     24  C   UNL     1       7.575 -12.304  -5.734  0.00  0.00    +0.277 C 
ENDBRANCH  17  23
ENDBRANCH  11  15
BRANCH   1  26
ATOM     25  N   UNL     1       2.712  -6.225   1.120  0.00  0.00    -0.315 N 
ATOM     26  C   UNL     1       2.686  -6.893  -0.050  0.00  0.00    +0.218 C 
ATOM     27  O   UNL     1       2.640  -6.281  -1.096  0.00  0.00    -0.275 OA
ATOM     28  H   UNL     1       2.749  -6.714   1.957  0.00  0.00    +0.149 HD
BRANCH  25  29
ATOM     29  C   UNL     1       2.684  -4.760   1.129  0.00  0.00    +0.109 C 
BRANCH  29  30
ATOM     30  C   UNL     1       2.721  -4.258   2.574  0.00  0.00    +0.054 C 
BRANCH  30  35
ATOM     31  C   UNL     1       2.610   1.520   2.610  0.00  0.00    +0.044 C 
ATOM     32  C   UNL     1       2.639   0.013   2.600  0.00  0.00    -0.048 A 
ATOM     33  C   UNL     1       1.456  -0.701   2.634  0.00  0.00    +0.004 A 
ATOM     34  C   UNL     1       1.483  -2.083   2.626  0.00  0.00    +0.004 A 
ATOM     35  C   UNL     1       2.692  -2.751   2.582  0.00  0.00    -0.046 A 
ATOM     36  C   UNL     1       3.875  -2.037   2.547  0.00  0.00    +0.007 A 
ATOM     37  C   UNL     1       3.848  -0.655   2.552  0.00  0.00    -0.047 A 
ATOM     38  C   UNL     1       5.138   0.124   2.509  0.00  0.00    +0.044 C 
ENDBRANCH  30  35
ENDBRANCH  29  30
ENDBRANCH  25  29
ENDBRANCH   1  26
TORSDOF 7
