REMARK  Name = ZINC63140081
REMARK  13 active torsions:
REMARK  status: ('A' for Active; 'I' for Inactive)
REMARK    1  A    between atoms: C_1  and  C_2
REMARK    2  A    between atoms: C_2  and  C_3
REMARK    3  A    between atoms: C_3  and  C_4
REMARK    4  A    between atoms: C_4  and  N_5
REMARK    5  A    between atoms: N_5  and  C_6
REMARK    6  A    between atoms: N_5  and  C_10
REMARK    7  A    between atoms: C_6  and  C_7
REMARK    8  A    between atoms: C_7  and  C_8
REMARK    9  A    between atoms: C_8  and  C_9
REMARK   10  A    between atoms: C_10  and  C_11
REMARK   11  A    between atoms: C_11  and  C_12
REMARK   12  A    between atoms: C_12  and  N_13
REMARK   13  A    between atoms: C_33  and  C_35
REMARK                            x       y       z     vdW  Elec       q    Type
REMARK                         _______ _______ _______ _____ _____    ______ ____
ROOT
ATOM      1  N   UNL     1      -5.276  -5.419   0.184  0.00  0.00    -0.291 N 
ATOM      2  C   UNL     1      -5.912  -5.528   1.486  0.00  0.00    +0.203 C 
ATOM      3  C   UNL     1      -7.173  -6.324   1.433  0.00  0.00    +0.234 C 
ATOM      4  O   UNL     1      -7.786  -6.479   2.468  0.00  0.00    -0.274 OA
ATOM      5  N   UNL     1      -7.677  -6.878   0.324  0.00  0.00    -0.279 N 
ATOM      6  C   UNL     1      -7.041  -6.746  -0.982  0.00  0.00    +0.167 C 
ATOM      7  C   UNL     1      -5.776  -5.955  -0.928  0.00  0.00    +0.237 C 
ATOM      8  O   UNL     1      -5.162  -5.794  -1.961  0.00  0.00    -0.274 OA
ATOM      9  C   UNL     1      -8.015  -6.088  -1.976  0.00  0.00    +0.065 C 
ATOM     10  C   UNL     1      -9.342  -6.786  -1.804  0.00  0.00    -0.034 C 
ATOM     11  C   UNL     1     -10.161  -7.349  -2.684  0.00  0.00    -0.001 A 
ATOM     12  C   UNL     1     -10.133  -7.401  -4.155  0.00  0.00    +0.010 A 
ATOM     13  C   UNL     1     -11.140  -8.096  -4.748  0.00  0.00    +0.001 A 
ATOM     14  C   UNL     1     -12.158  -8.736  -4.035  0.00  0.00    +0.002 A 
ATOM     15  C   UNL     1     -12.267  -8.731  -2.683  0.00  0.00    +0.026 A 
ATOM     16  C   UNL     1     -11.271  -8.026  -1.947  0.00  0.00    +0.043 A 
ATOM     17  N   UNL     1     -11.145  -7.841  -0.666  0.00  0.00    -0.375 N 
ATOM     18  C   UNL     1      -9.984  -6.980  -0.436  0.00  0.00    +0.131 C 
ATOM     19  C   UNL     1      -8.931  -7.655   0.448  0.00  0.00    +0.133 C 
ATOM     20  H   UNL     1     -11.722  -8.210   0.021  0.00  0.00    +0.160 HD
ENDROOT
BRANCH  19  21
ATOM     21  C   UNL     1      -9.393  -7.654   1.883  0.00  0.00    -0.025 A 
ATOM     22  C   UNL     1     -10.159  -6.608   2.362  0.00  0.00    +0.005 A 
ATOM     23  C   UNL     1     -10.582  -6.608   3.679  0.00  0.00    +0.000 A 
ATOM     24  C   UNL     1     -10.240  -7.654   4.515  0.00  0.00    +0.000 A 
ATOM     25  C   UNL     1      -9.475  -8.701   4.035  0.00  0.00    +0.000 A 
ATOM     26  C   UNL     1      -9.055  -8.703   2.718  0.00  0.00    +0.005 A 
ENDBRANCH  19  21
BRANCH   1  27
ATOM     27  C   UNL     1      -4.018  -4.673   0.089  0.00  0.00    +0.106 C 
BRANCH  27  28
ATOM     28  C   UNL     1      -4.319  -3.201  -0.198  0.00  0.00    +0.000 C 
BRANCH  28  29
ATOM     29  C   UNL     1      -3.005  -2.422  -0.298  0.00  0.00    -0.077 C 
BRANCH  29  30
ATOM     30  N   UNL     1      -3.287  -1.036  -0.695  0.00  0.00    +0.380 N 
ATOM     31  H   UNL     1      -3.817  -1.033  -1.553  0.00  0.00    -0.082 HD
BRANCH  30  32
ATOM     32  C   UNL     1      -4.062  -0.372   0.361  0.00  0.00    -0.079 C 
BRANCH  32  33
ATOM     33  C   UNL     1      -4.461   1.030  -0.104  0.00  0.00    -0.019 C 
BRANCH  33  35
ATOM     34  C   UNL     1      -5.668   3.123   0.530  0.00  0.00    +0.004 C 
ATOM     35  C   UNL     1      -5.268   1.722   0.996  0.00  0.00    -0.005 C 
ENDBRANCH  33  35
ENDBRANCH  32  33
ENDBRANCH  30  32
BRANCH  30  36
ATOM     36  C   UNL     1      -2.021  -0.319  -0.899  0.00  0.00    -0.079 C 
BRANCH  36  37
ATOM     37  C   UNL     1      -1.286  -0.913  -2.102  0.00  0.00    -0.019 C 
BRANCH  37  38
ATOM     38  C   UNL     1       0.062  -0.210  -2.275  0.00  0.00    -0.005 C 
ATOM     39  C   UNL     1       0.797  -0.804  -3.478  0.00  0.00    +0.004 C 
ENDBRANCH  37  38
ENDBRANCH  36  37
ENDBRANCH  30  36
ENDBRANCH  29  30
ENDBRANCH  28  29
ENDBRANCH  27  28
ENDBRANCH   1  27
TORSDOF 11
