REMARK  Name = ZINC39685794
REMARK  14 active torsions:
REMARK  status: ('A' for Active; 'I' for Inactive)
REMARK    1  A    between atoms: C_1  and  C_2
REMARK    2  A    between atoms: C_2  and  O_3
REMARK    3  A    between atoms: O_3  and  C_4
REMARK    4  A    between atoms: C_9  and  C_10
REMARK    5  A    between atoms: C_14  and  C_23
REMARK    6  A    between atoms: N_25  and  C_26
REMARK    7  A    between atoms: C_26  and  C_28
REMARK    8  A    between atoms: C_26  and  C_31
REMARK    9  A    between atoms: C_28  and  C_29
REMARK   10  A    between atoms: C_28  and  C_30
REMARK   11  A    between atoms: N_33  and  C_34
REMARK   12  A    between atoms: C_34  and  C_35
REMARK   13  A    between atoms: C_34  and  C_36
REMARK   14  A    between atoms: C_34  and  C_37
REMARK                            x       y       z     vdW  Elec       q    Type
REMARK                         _______ _______ _______ _____ _____    ______ ____
ROOT
ATOM      1  C   UNL     1      -3.847  -1.687   0.105  0.00  0.00    +0.250 C 
ATOM      2  O   UNL     1      -3.670  -0.485   0.135  0.00  0.00    -0.270 OA
ATOM      3  N   UNL     1      -5.092  -2.181  -0.038  0.00  0.00    -0.296 N 
ATOM      4  C   UNL     1      -5.518  -3.600   0.010  0.00  0.00    +0.121 C 
ATOM      5  C   UNL     1      -6.862  -3.579   0.772  0.00  0.00    +0.100 C 
ATOM      6  C   UNL     1      -7.401  -2.152   0.577  0.00  0.00    -0.004 C 
ATOM      7  C   UNL     1      -6.347  -1.428  -0.274  0.00  0.00    +0.115 C 
ATOM      8  C   UNL     1      -8.739  -2.189  -0.156  0.00  0.00    -0.010 C 
ATOM      9  C   UNL     1      -9.283  -0.764  -0.288  0.00  0.00    -0.082 C 
ATOM     10  N   UNL     1      -9.450  -0.176   1.047  0.00  0.00    +0.379 N 
ATOM     11  C   UNL     1      -8.145  -0.059   1.709  0.00  0.00    -0.082 C 
ATOM     12  C   UNL     1      -7.553  -1.455   1.925  0.00  0.00    -0.010 C 
ATOM     13  H   UNL     1      -9.866   0.739   0.961  0.00  0.00    -0.086 HD
ATOM     14  H   UNL     1     -10.054  -0.766   1.599  0.00  0.00    -0.086 HD
ENDROOT
BRANCH   1  20
ATOM     15  C   UNL     1      -1.604  -2.263   1.032  0.00  0.00    +0.133 A 
ATOM     16  C   UNL     1      -0.532  -3.136   1.143  0.00  0.00    +0.046 A 
ATOM     17  C   UNL     1      -0.542  -4.334   0.458  0.00  0.00    +0.004 A 
ATOM     18  C   UNL     1      -1.619  -4.674  -0.345  0.00  0.00    +0.001 A 
ATOM     19  C   UNL     1      -2.693  -3.819  -0.466  0.00  0.00    +0.017 A 
ATOM     20  C   UNL     1      -2.698  -2.605   0.226  0.00  0.00    +0.078 A 
BRANCH  15  21
ATOM     21  O   UNL     1      -1.595  -1.085   1.705  0.00  0.00    -0.491 OA
BRANCH  21  23
ATOM     22  C   UNL     1      -0.617   0.558   3.183  0.00  0.00    +0.048 C 
ATOM     23  C   UNL     1      -0.446  -0.803   2.506  0.00  0.00    +0.226 C 
ENDBRANCH  21  23
ENDBRANCH  15  21
ENDBRANCH   1  20
BRANCH   5  24
ATOM     24  C   UNL     1      -7.814  -4.588   0.185  0.00  0.00    +0.219 C 
ATOM     25  O   UNL     1      -7.758  -4.859  -0.996  0.00  0.00    -0.275 OA
ATOM     26  N   UNL     1      -8.729  -5.189   0.971  0.00  0.00    -0.303 N 
ATOM     27  H   UNL     1      -8.773  -4.973   1.916  0.00  0.00    +0.149 HD
BRANCH  26  28
ATOM     28  C   UNL     1      -9.655  -6.170   0.400  0.00  0.00    +0.161 C 
BRANCH  28  29
ATOM     29  C   UNL     1     -10.902  -6.233   1.243  0.00  0.00    +0.234 C 
ATOM     30  O   UNL     1     -11.008  -5.528   2.224  0.00  0.00    -0.274 OA
ATOM     31  N   UNL     1     -11.901  -7.073   0.906  0.00  0.00    -0.309 N 
ATOM     32  H   UNL     1     -11.817  -7.637   0.121  0.00  0.00    +0.149 HD
BRANCH  31  33
ATOM     33  C   UNL     1     -13.114  -7.134   1.725  0.00  0.00    +0.026 C 
ATOM     34  C   UNL     1     -13.782  -5.758   1.751  0.00  0.00    +0.031 C 
ATOM     35  C   UNL     1     -14.081  -8.159   1.128  0.00  0.00    +0.031 C 
ATOM     36  C   UNL     1     -12.747  -7.550   3.151  0.00  0.00    +0.031 C 
ENDBRANCH  31  33
ENDBRANCH  28  29
BRANCH  28  37
ATOM     37  C   UNL     1      -8.987  -7.547   0.374  0.00  0.00    +0.012 C 
ATOM     38  C   UNL     1      -7.720  -7.483  -0.482  0.00  0.00    +0.009 C 
ATOM     39  C   UNL     1      -8.619  -7.963   1.800  0.00  0.00    +0.009 C 
ENDBRANCH  28  37
ENDBRANCH  26  28
ENDBRANCH   5  24
TORSDOF 8
