REMARK  Name = ZINC09891902
REMARK  8 active torsions:
REMARK  status: ('A' for Active; 'I' for Inactive)
REMARK    1  A    between atoms: C_1  and  C_2
REMARK    2  A    between atoms: C_2  and  C_3
REMARK    3  A    between atoms: C_2  and  C_4
REMARK    4  A    between atoms: C_2  and  C_5
REMARK    5  A    between atoms: N_10  and  C_13
REMARK    6  A    between atoms: C_16  and  C_22
REMARK    7  A    between atoms: C_18  and  N_19
REMARK    8  A    between atoms: N_24  and  C_25
REMARK                            x       y       z     vdW  Elec       q    Type
REMARK                         _______ _______ _______ _____ _____    ______ ____
ROOT
ATOM      1  C   UNL     1      -0.087  -0.778  -1.440  0.00  0.00    +0.060 A 
ATOM      2  C   UNL     1      -1.194  -0.888  -0.604  0.00  0.00    +0.026 A 
ATOM      3  C   UNL     1      -2.302  -1.593  -1.015  0.00  0.00    +0.015 A 
ATOM      4  C   UNL     1      -2.314  -2.200  -2.275  0.00  0.00    +0.039 A 
ATOM      5  C   UNL     1      -1.201  -2.087  -3.113  0.00  0.00    +0.047 A 
ATOM      6  C   UNL     1      -0.098  -1.376  -2.698  0.00  0.00    +0.148 A 
ENDROOT
BRANCH   1  12
ATOM      7  C   UNL     1       3.146   2.117   1.693  0.00  0.00    +0.221 C 
ATOM      8  O   UNL     1       3.667   1.520   2.611  0.00  0.00    -0.275 OA
ATOM      9  N   UNL     1       2.715   1.442   0.608  0.00  0.00    -0.298 N 
ATOM     10  C   UNL     1       1.969   2.126  -0.459  0.00  0.00    +0.126 C 
ATOM     11  C   UNL     1       0.687   1.335  -0.741  0.00  0.00    +0.124 C 
ATOM     12  N   UNL     1       1.031  -0.065  -1.022  0.00  0.00    -0.325 N 
ATOM     13  C   UNL     1       1.657  -0.704   0.144  0.00  0.00    +0.124 C 
ATOM     14  C   UNL     1       2.979   0.003   0.461  0.00  0.00    +0.126 C 
BRANCH   7  16
ATOM     15  C   UNL     1       3.732   4.152   2.982  0.00  0.00    +0.020 C 
ATOM     16  C   UNL     1       2.979   3.613   1.764  0.00  0.00    +0.039 C 
ATOM     17  C   UNL     1       3.542   4.251   0.493  0.00  0.00    +0.020 C 
ATOM     18  C   UNL     1       1.493   3.955   1.891  0.00  0.00    +0.020 C 
ENDBRANCH   7  16
ENDBRANCH   1  12
BRANCH   4  19
ATOM     19  C   UNL     1      -3.500  -2.957  -2.719  0.00  0.00    +0.244 C 
ATOM     20  O   UNL     1      -3.510  -3.483  -3.815  0.00  0.00    -0.270 OA
ATOM     21  N   UNL     1      -4.573  -3.064  -1.911  0.00  0.00    -0.308 N 
ATOM     22  H   UNL     1      -4.565  -2.644  -1.036  0.00  0.00    +0.149 HD
BRANCH  21  23
ATOM     23  C   UNL     1      -5.750  -3.816  -2.352  0.00  0.00    +0.079 C 
ATOM     24  C   UNL     1      -6.654  -2.905  -3.185  0.00  0.00    +0.010 C 
ATOM     25  C   UNL     1      -7.884  -3.691  -3.646  0.00  0.00    +0.009 C 
ATOM     26  C   UNL     1      -8.655  -4.194  -2.424  0.00  0.00    -0.010 C 
ATOM     27  C   UNL     1      -9.099  -3.002  -1.575  0.00  0.00    +0.007 C 
ATOM     28  C   UNL     1      -7.870  -2.216  -1.114  0.00  0.00    -0.010 C 
ATOM     29  C   UNL     1      -7.099  -1.713  -2.336  0.00  0.00    +0.009 C 
ATOM     30  C   UNL     1      -6.966  -3.127  -0.281  0.00  0.00    +0.009 C 
ATOM     31  C   UNL     1      -6.521  -4.320  -1.130  0.00  0.00    +0.010 C 
ATOM     32  C   UNL     1      -7.751  -5.105  -1.590  0.00  0.00    +0.009 C 
ENDBRANCH  21  23
ENDBRANCH   4  19
BRANCH   6  33
ATOM     33  N   UNL     1       1.079  -1.251  -3.586  0.00  0.00    +0.058 N 
ATOM     34  O   UNL     1       1.069  -1.774  -4.686  0.00  0.00    -0.126 OA
ATOM     35  O   UNL     1       2.057  -0.626  -3.217  0.00  0.00    -0.126 OA
ENDBRANCH   6  33
TORSDOF 5
