REMARK  Name = ZINC45245157
REMARK  7 active torsions:
REMARK  status: ('A' for Active; 'I' for Inactive)
REMARK    1  A    between atoms: C_1  and  C_2
REMARK    2  A    between atoms: C_3  and  N_24
REMARK    3  A    between atoms: C_4  and  C_22
REMARK    4  A    between atoms: C_10  and  N_11
REMARK    5  A    between atoms: N_11  and  C_12
REMARK    6  A    between atoms: C_12  and  C_13
REMARK    7  A    between atoms: N_24  and  C_25
REMARK                            x       y       z     vdW  Elec       q    Type
REMARK                         _______ _______ _______ _____ _____    ______ ____
ROOT
ATOM      1  C   UNL     1       0.111   1.312  -0.375  0.00  0.00    +0.049 C 
ATOM      2  C   UNL     1       0.043  -0.176  -0.146  0.00  0.00    +0.011 A 
ATOM      3  C   UNL     1      -1.191  -0.774   0.134  0.00  0.00    +0.053 A 
ATOM      4  C   UNL     1      -1.244  -2.161   0.345  0.00  0.00    +0.098 A 
ATOM      5  C   UNL     1       0.005  -2.923   0.262  0.00  0.00    +0.088 A 
ATOM      6  C   UNL     1       0.306  -4.263   0.410  0.00  0.00    +0.050 A 
ATOM      7  C   UNL     1       1.676  -4.408   0.218  0.00  0.00    +0.135 A 
ATOM      8  N   UNL     1       2.196  -3.230  -0.035  0.00  0.00    -0.173 NA
ATOM      9  N   UNL     1       1.177  -2.270  -0.016  0.00  0.00    -0.217 N 
ATOM     10  C   UNL     1       1.182  -0.916  -0.220  0.00  0.00    +0.126 A 
ENDROOT
BRANCH  10  11
ATOM     11  N   UNL     1       2.374  -0.285  -0.504  0.00  0.00    -0.323 N 
ATOM     12  H   UNL     1       2.407   0.682  -0.572  0.00  0.00    +0.148 HD
BRANCH  11  13
ATOM     13  C   UNL     1       3.592  -1.075  -0.703  0.00  0.00    +0.166 C 
BRANCH  13  14
ATOM     14  C   UNL     1       4.746  -0.153  -0.998  0.00  0.00    +0.097 A 
ATOM     15  N   UNL     1       5.567   0.395  -0.149  0.00  0.00    -0.242 NA
ATOM     16  C   UNL     1       6.569   1.208  -0.540  0.00  0.00    +0.079 A 
ATOM     17  C   UNL     1       7.541   1.881   0.229  0.00  0.00    +0.029 A 
ATOM     18  C   UNL     1       8.477   2.666  -0.371  0.00  0.00    +0.002 A 
ATOM     19  C   UNL     1       8.511   2.832  -1.749  0.00  0.00    +0.001 A 
ATOM     20  C   UNL     1       7.575   2.188  -2.536  0.00  0.00    +0.017 A 
ATOM     21  C   UNL     1       6.626   1.394  -1.940  0.00  0.00    +0.039 A 
ATOM     22  S   UNL     1       5.271   0.396  -2.500  0.00  0.00    -0.071 S 
ENDBRANCH  13  14
ENDBRANCH  11  13
ENDBRANCH  10  11
BRANCH   4  23
ATOM     23  C   UNL     1      -2.486  -2.813   0.634  0.00  0.00    +0.103 C 
ATOM     24  N   UNL     1      -3.471  -3.331   0.864  0.00  0.00    -0.191 NA
ENDBRANCH   4  23
BRANCH   3  25
ATOM     25  N   UNL     1      -2.343  -0.008   0.201  0.00  0.00    -0.341 N 
ATOM     26  H   UNL     1      -3.084  -0.194  -0.396  0.00  0.00    +0.146 HD
BRANCH  25  27
ATOM     27  C   UNL     1      -2.441   1.083   1.175  0.00  0.00    +0.053 C 
ATOM     28  C   UNL     1      -2.938   0.530   2.513  0.00  0.00    +0.018 C 
ATOM     29  C   UNL     1      -3.112   1.688   3.500  0.00  0.00    -0.017 C 
ATOM     30  C   UNL     1      -4.075   2.718   2.904  0.00  0.00    -0.082 C 
ATOM     31  N   UNL     1      -3.531   3.227   1.639  0.00  0.00    +0.380 N 
ATOM     32  C   UNL     1      -3.428   2.135   0.664  0.00  0.00    -0.060 C 
ATOM     33  H   UNL     1      -4.141   3.944   1.277  0.00  0.00    -0.086 HD
ATOM     34  H   UNL     1      -2.615   3.619   1.802  0.00  0.00    -0.086 HD
ENDBRANCH  25  27
ENDBRANCH   3  25
TORSDOF 6
