REMARK  Name = ZINC04737968
REMARK  3 active torsions:
REMARK  status: ('A' for Active; 'I' for Inactive)
REMARK    1  A    between atoms: C_1  and  C_2
REMARK    2  A    between atoms: N_16  and  N_17
REMARK    3  A    between atoms: C_18  and  C_19
REMARK                            x       y       z     vdW  Elec       q    Type
REMARK                         _______ _______ _______ _____ _____    ______ ____
ROOT
ATOM      1  C   UNL     1       2.617  15.047   0.057  0.00  0.00    +0.044 C 
ATOM      2  C   UNL     1       3.489  13.818   0.042  0.00  0.00    -0.050 A 
ATOM      3  C   UNL     1       4.869  13.950   0.029  0.00  0.00    +0.005 A 
ATOM      4  C   UNL     1       5.679  12.836   0.014  0.00  0.00    +0.026 A 
ATOM      5  C   UNL     1       5.116  11.564   0.013  0.00  0.00    +0.050 A 
ATOM      6  C   UNL     1       3.719  11.431   0.026  0.00  0.00    +0.029 A 
ATOM      7  C   UNL     1       2.911  12.566   0.040  0.00  0.00    +0.015 A 
ATOM      8  C   UNL     1       3.439   9.986   0.021  0.00  0.00    +0.138 A 
ATOM      9  C   UNL     1       4.692   9.339   0.005  0.00  0.00    +0.163 A 
ATOM     10  N   UNL     1       5.676  10.297   0.001  0.00  0.00    -0.338 N 
ATOM     11  H   UNL     1       6.628  10.112  -0.009  0.00  0.00    +0.167 HD
ATOM     12  N   UNL     1       4.717   8.010   0.003  0.00  0.00    -0.192 NA
ATOM     13  C   UNL     1       3.572   7.340   0.005  0.00  0.00    +0.256 A 
ATOM     14  N   UNL     1       2.403   7.971   0.020  0.00  0.00    -0.111 NA
ATOM     15  N   UNL     1       2.331   9.258   0.027  0.00  0.00    -0.142 NA
ATOM     16  N   UNL     1       3.596   5.955  -0.002  0.00  0.00    -0.204 N 
ATOM     17  H   UNL     1       4.444   5.485  -0.013  0.00  0.00    +0.177 HD
ENDROOT
BRANCH  16  18
ATOM     18  N   UNL     1       2.395   5.234   0.006  0.00  0.00    -0.187 NA
ATOM     19  C   UNL     1       2.417   3.936  -0.001  0.00  0.00    +0.138 C 
BRANCH  19  20
ATOM     20  C   UNL     1       1.153   3.177   0.008  0.00  0.00    -0.004 A 
ATOM     21  C   UNL     1       1.173   1.780   0.000  0.00  0.00    +0.009 A 
ATOM     22  C   UNL     1      -0.013   1.076   0.008  0.00  0.00    +0.002 A 
ATOM     23  C   UNL     1      -1.221   1.750   0.017  0.00  0.00    +0.015 A 
ATOM     24  C   UNL     1      -1.249   3.134   0.030  0.00  0.00    +0.018 A 
ATOM     25  C   UNL     1      -0.070   3.851   0.022  0.00  0.00    +0.024 A 
ATOM     26 BR   UNL     1      -2.907   4.043   0.050  0.00  0.00    -0.050 Br
ENDBRANCH  19  20
ENDBRANCH  16  18
TORSDOF 2
