REMARK  Name = ZINC04123651
REMARK  8 active torsions:
REMARK  status: ('A' for Active; 'I' for Inactive)
REMARK    1  A    between atoms: C_1  and  C_2
REMARK    2  A    between atoms: C_2  and  C_3
REMARK    3  A    between atoms: C_3  and  N_4
REMARK    4  A    between atoms: C_11  and  C_23
REMARK    5  A    between atoms: C_13  and  C_19
REMARK    6  A    between atoms: C_13  and  C_21
REMARK    7  A    between atoms: C_14  and  N_18
REMARK    8  A    between atoms: C_15  and  C_16
REMARK                            x       y       z     vdW  Elec       q    Type
REMARK                         _______ _______ _______ _____ _____    ______ ____
ROOT
ATOM      1  N   UNL     1      -1.184   1.337  -1.331  0.00  0.00    -0.298 NA
ATOM      2  C   UNL     1      -0.421   0.747  -0.217  0.00  0.00    +0.112 C 
ATOM      3  C   UNL     1      -0.957   1.330   1.067  0.00  0.00    -0.007 C 
ATOM      4  C   UNL     1      -1.423   2.565   1.089  0.00  0.00    -0.026 C 
ATOM      5  C   UNL     1      -1.401   3.471  -0.108  0.00  0.00    +0.044 C 
ATOM      6  C   UNL     1      -0.965   2.785  -1.384  0.00  0.00    +0.093 C 
ATOM      7  C   UNL     1      -2.785   4.107  -0.249  0.00  0.00    +0.067 C 
ATOM      8  C   UNL     1      -3.064   4.966   0.985  0.00  0.00    +0.188 C 
ATOM      9  C   UNL     1      -2.821   4.209   2.255  0.00  0.00    +0.054 C 
ATOM     10  C   UNL     1      -2.050   3.094   2.327  0.00  0.00    +0.074 C 
ENDROOT
BRANCH   7  11
ATOM     11  C   UNL     1      -2.820   4.971  -1.483  0.00  0.00    -0.041 A 
ATOM     12  C   UNL     1      -1.767   5.822  -1.762  0.00  0.00    +0.004 A 
ATOM     13  C   UNL     1      -1.797   6.611  -2.896  0.00  0.00    +0.000 A 
ATOM     14  C   UNL     1      -2.885   6.556  -3.748  0.00  0.00    +0.000 A 
ATOM     15  C   UNL     1      -3.941   5.709  -3.467  0.00  0.00    +0.000 A 
ATOM     16  C   UNL     1      -3.909   4.917  -2.334  0.00  0.00    +0.004 A 
ENDBRANCH   7  11
BRANCH   9  17
ATOM     17  N   UNL     1      -3.408   4.665   3.403  0.00  0.00    -0.358 N 
ATOM     18  H   UNL     1      -3.249   4.130   4.351  0.00  0.00    +0.142 HD
ATOM     19  H   UNL     1      -4.038   5.566   3.378  0.00  0.00    +0.142 HD
ENDBRANCH   9  17
BRANCH  10  20
ATOM     20  C   UNL     1      -1.844   2.435   3.581  0.00  0.00    +0.101 C 
ATOM     21  N   UNL     1      -1.680   1.913   4.577  0.00  0.00    -0.191 NA
ENDBRANCH  10  20
BRANCH   8  22
ATOM     22  C   UNL     1      -2.185   6.147   0.956  0.00  0.00    +0.091 C 
ATOM     23  N   UNL     1      -1.508   7.059   0.933  0.00  0.00    -0.194 NA
ENDBRANCH   8  22
BRANCH   8  24
ATOM     24  C   UNL     1      -4.466   5.411   0.954  0.00  0.00    +0.091 C 
ATOM     25  N   UNL     1      -5.549   5.755   0.929  0.00  0.00    -0.194 NA
ENDBRANCH   8  24
BRANCH   1  26
ATOM     26  C   UNL     1      -0.828   0.704  -2.608  0.00  0.00    +0.084 C 
BRANCH  26  28
ATOM     27  C   UNL     1      -0.904  -1.418  -3.924  0.00  0.00    +0.005 C 
ATOM     28  C   UNL     1      -1.276  -0.759  -2.595  0.00  0.00    +0.012 C 
ENDBRANCH  26  28
ENDBRANCH   1  26
TORSDOF 7
