REMARK  Name = ZINC09551823
REMARK  7 active torsions:
REMARK  status: ('A' for Active; 'I' for Inactive)
REMARK    1  A    between atoms: C_1  and  C_2
REMARK    2  A    between atoms: C_3  and  C_28
REMARK    3  A    between atoms: C_9  and  C_12
REMARK    4  A    between atoms: C_12  and  O_14
REMARK    5  A    between atoms: O_14  and  C_15
REMARK    6  A    between atoms: C_15  and  C_16
REMARK    7  A    between atoms: C_16  and  C_18
REMARK                            x       y       z     vdW  Elec       q    Type
REMARK                         _______ _______ _______ _____ _____    ______ ____
ROOT
ATOM      1  C   UNL     1      -2.495   1.014   0.019  0.00  0.00    +0.340 C 
ATOM      2  O   UNL     1      -2.485  -0.202   0.013  0.00  0.00    -0.245 OA
ENDROOT
BRANCH   1  11
ATOM      3  C   UNL     1       3.150   0.015  -0.026  0.00  0.00    +0.046 C 
ATOM      4  C   UNL     1       2.596   1.416  -0.014  0.00  0.00    -0.022 A 
ATOM      5  C   UNL     1       3.304   2.556  -0.014  0.00  0.00    +0.017 A 
ATOM      6  N   UNL     1       2.458   3.632  -0.002  0.00  0.00    -0.358 N 
ATOM      7  H   UNL     1       2.739   4.561   0.000  0.00  0.00    +0.166 HD
ATOM      8  C   UNL     1       1.153   3.204   0.008  0.00  0.00    +0.047 A 
ATOM      9  C   UNL     1       1.180   1.794   0.000  0.00  0.00    +0.004 A 
ATOM     10  C   UNL     1      -0.013   1.076   0.008  0.00  0.00    +0.025 A 
ATOM     11  C   UNL     1      -1.224   1.762   0.017  0.00  0.00    +0.060 A 
ATOM     12  C   UNL     1      -1.237   3.164   0.029  0.00  0.00    +0.017 A 
ATOM     13  C   UNL     1      -0.070   3.870   0.022  0.00  0.00    +0.027 A 
ATOM     14  C   UNL     1       4.809   2.639  -0.028  0.00  0.00    +0.063 C 
ENDBRANCH   1  11
BRANCH   1  15
ATOM     15  O   UNL     1      -3.668   1.677   0.028  0.00  0.00    -0.453 OA
BRANCH  15  16
ATOM     16  C   UNL     1      -4.879   0.876   0.030  0.00  0.00    +0.312 C 
BRANCH  16  17
ATOM     17  C   UNL     1      -6.082   1.783   0.040  0.00  0.00    +0.202 C 
ATOM     18  O   UNL     1      -5.933   2.988   0.046  0.00  0.00    -0.288 OA
BRANCH  17  19
ATOM     19  C   UNL     1      -7.387   1.230   0.043  0.00  0.00    +0.046 A 
ATOM     20  C   UNL     1      -7.719  -0.107   0.032  0.00  0.00    +0.095 A 
ATOM     21  N   UNL     1      -9.059  -0.241   0.043  0.00  0.00    -0.360 N 
ATOM     22  H   UNL     1      -9.529  -1.090   0.040  0.00  0.00    +0.165 HD
ATOM     23  C   UNL     1      -9.673   0.995   0.052  0.00  0.00    +0.047 A 
ATOM     24  C   UNL     1      -8.664   1.971   0.053  0.00  0.00    +0.010 A 
ATOM     25  C   UNL     1      -8.997   3.322   0.063  0.00  0.00    +0.011 A 
ATOM     26  C   UNL     1     -10.324   3.697   0.072  0.00  0.00    +0.001 A 
ATOM     27  C   UNL     1     -11.322   2.735   0.071  0.00  0.00    +0.002 A 
ATOM     28  C   UNL     1     -11.005   1.394   0.061  0.00  0.00    +0.026 A 
ENDBRANCH  17  19
ENDBRANCH  16  17
ENDBRANCH  15  16
ENDBRANCH   1  15
TORSDOF 5
