REMARK  Name = ZINC39575889
REMARK  8 active torsions:
REMARK  status: ('A' for Active; 'I' for Inactive)
REMARK    1  A    between atoms: C_1  and  C_2
REMARK    2  A    between atoms: C_5  and  N_8
REMARK    3  A    between atoms: C_9  and  C_30
REMARK    4  A    between atoms: C_13  and  S_14
REMARK    5  A    between atoms: S_14  and  C_15
REMARK    6  A    between atoms: C_15  and  C_16
REMARK    7  A    between atoms: N_18  and  N_19
REMARK    8  A    between atoms: C_20  and  C_21
REMARK                            x       y       z     vdW  Elec       q    Type
REMARK                         _______ _______ _______ _____ _____    ______ ____
ROOT
ATOM      1  N   UNL     1       0.082  -4.209  -0.053  0.00  0.00    -0.254 N 
ATOM      2  C   UNL     1       0.172  -5.053   1.150  0.00  0.00    +0.213 C 
ATOM      3  N   UNL     1       0.115  -6.428   0.623  0.00  0.00    -0.242 N 
ATOM      4  N   UNL     1       0.004  -6.308  -0.768  0.00  0.00    -0.162 NA
ATOM      5  C   UNL     1      -0.020  -5.071  -1.135  0.00  0.00    +0.180 C 
ATOM      6  H   UNL     1       0.149  -7.250   1.136  0.00  0.00    +0.170 HD
ENDROOT
BRANCH   1  11
ATOM      7  C   UNL     1       0.121   1.460  -0.228  0.00  0.00    +0.044 C 
ATOM      8  C   UNL     1       0.111  -0.046  -0.181  0.00  0.00    -0.050 A 
ATOM      9  C   UNL     1       1.089  -0.764  -0.846  0.00  0.00    +0.005 A 
ATOM     10  C   UNL     1       1.082  -2.144  -0.805  0.00  0.00    +0.024 A 
ATOM     11  C   UNL     1       0.092  -2.812  -0.095  0.00  0.00    +0.038 A 
ATOM     12  C   UNL     1      -0.888  -2.088   0.572  0.00  0.00    +0.024 A 
ATOM     13  C   UNL     1      -0.873  -0.708   0.532  0.00  0.00    +0.005 A 
ENDBRANCH   1  11
BRANCH   2  14
ATOM     14  C   UNL     1       1.474  -4.813   1.870  0.00  0.00    -0.008 A 
ATOM     15  C   UNL     1       2.000  -3.537   1.937  0.00  0.00    +0.008 A 
ATOM     16  C   UNL     1       3.195  -3.316   2.597  0.00  0.00    +0.020 A 
ATOM     17  C   UNL     1       3.863  -4.372   3.190  0.00  0.00    +0.041 A 
ATOM     18  C   UNL     1       3.335  -5.649   3.122  0.00  0.00    +0.020 A 
ATOM     19  C   UNL     1       2.138  -5.868   2.467  0.00  0.00    +0.008 A 
ATOM     20 CL   UNL     1       5.363  -4.095   4.018  0.00  0.00    -0.084 Cl
ENDBRANCH   2  14
BRANCH   5  21
ATOM     21  S   UNL     1      -0.159  -4.541  -2.810  0.00  0.00    -0.079 S 
BRANCH  21  22
ATOM     22  C   UNL     1      -0.256  -6.088  -3.753  0.00  0.00    +0.174 C 
BRANCH  22  23
ATOM     23  C   UNL     1      -0.379  -5.774  -5.222  0.00  0.00    +0.242 C 
ATOM     24  O   UNL     1      -0.400  -4.620  -5.595  0.00  0.00    -0.273 OA
ATOM     25  N   UNL     1      -0.466  -6.775  -6.120  0.00  0.00    -0.206 N 
ATOM     26  H   UNL     1      -0.450  -7.697  -5.821  0.00  0.00    +0.177 HD
BRANCH  25  27
ATOM     27  N   UNL     1      -0.581  -6.482  -7.485  0.00  0.00    -0.188 NA
ATOM     28  C   UNL     1      -0.666  -7.455  -8.358  0.00  0.00    +0.136 C 
BRANCH  28  29
ATOM     29  C   UNL     1      -0.781  -7.163  -9.724  0.00  0.00    +0.000 C 
ATOM     30  C   UNL     1      -0.886  -8.072 -10.774  0.00  0.00    +0.004 A 
ATOM     31  C   UNL     1      -0.911  -9.484 -10.815  0.00  0.00    +0.010 A 
ATOM     32  C   UNL     1      -1.024 -10.120 -12.008  0.00  0.00    +0.001 A 
ATOM     33  C   UNL     1      -1.118  -9.413 -13.210  0.00  0.00    +0.002 A 
ATOM     34  C   UNL     1      -1.101  -8.059 -13.247  0.00  0.00    +0.026 A 
ATOM     35  C   UNL     1      -0.985  -7.322 -12.038  0.00  0.00    +0.043 A 
ATOM     36  N   UNL     1      -0.946  -6.026 -11.809  0.00  0.00    -0.380 N 
ATOM     37  C   UNL     1      -0.823  -5.793 -10.366  0.00  0.00    +0.150 C 
ATOM     38  H   UNL     1      -0.994  -5.334 -12.487  0.00  0.00    +0.160 HD
ENDBRANCH  28  29
ENDBRANCH  25  27
ENDBRANCH  22  23
ENDBRANCH  21  22
ENDBRANCH   5  21
TORSDOF 7
