REMARK  Name = ZINC63175849
REMARK  4 active torsions:
REMARK  status: ('A' for Active; 'I' for Inactive)
REMARK    1  A    between atoms: C_5  and  S_8
REMARK    2  A    between atoms: S_8  and  N_11
REMARK    3  A    between atoms: N_11  and  C_12
REMARK    4  A    between atoms: C_17  and  N_19
REMARK                            x       y       z     vdW  Elec       q    Type
REMARK                         _______ _______ _______ _____ _____    ______ ____
ROOT
ATOM      1  S   UNL     1       1.235  -2.442  -0.024  0.00  0.00    +0.062 S 
ATOM      2  O   UNL     1      -0.010  -2.862  -0.566  0.00  0.00    -0.153 OA
ATOM      3  O   UNL     1       2.480  -2.827  -0.589  0.00  0.00    -0.153 OA
ENDROOT
BRANCH   1   8
ATOM      4  C   UNL     1      -0.017   1.380   0.010  0.00  0.00    +0.078 A 
ATOM      5  C   UNL     1       1.173   2.088   0.002  0.00  0.00    +0.127 A 
ATOM      6  C   UNL     1       2.381   1.411  -0.013  0.00  0.00    +0.055 A 
ATOM      7  C   UNL     1       2.399   0.028  -0.021  0.00  0.00    +0.050 A 
ATOM      8  C   UNL     1       1.211  -0.680  -0.014  0.00  0.00    +0.154 A 
ATOM      9  C   UNL     1       0.002  -0.004   0.002  0.00  0.00    +0.153 A 
ATOM     10  F   UNL     1      -1.159  -0.696   0.009  0.00  0.00    -0.203 F 
ATOM     11 BR   UNL     1       4.049  -0.896  -0.041  0.00  0.00    -0.048 Br
ATOM     12  F   UNL     1       1.156   3.439   0.009  0.00  0.00    -0.205 F 
ENDBRANCH   1   8
BRANCH   1  13
ATOM     13  N   UNL     1       1.256  -2.940   1.555  0.00  0.00    -0.188 NA
ATOM     14  H   UNL     1       2.027  -3.414   1.904  0.00  0.00    +0.148 HD
BRANCH  13  15
ATOM     15  C   UNL     1       0.111  -2.665   2.426  0.00  0.00    +0.062 C 
ATOM     16  C   UNL     1      -0.811  -3.896   2.488  0.00  0.00    +0.019 C 
ATOM     17  C   UNL     1      -0.856  -4.338   3.966  0.00  0.00    -0.000 C 
ATOM     18  C   UNL     1       0.454  -3.775   4.571  0.00  0.00    -0.015 C 
ATOM     19  C   UNL     1       0.593  -2.401   3.867  0.00  0.00    -0.056 C 
BRANCH  19  20
ATOM     20  N   UNL     1       1.995  -1.963   3.867  0.00  0.00    +0.381 N 
ATOM     21  H   UNL     1       2.082  -1.112   3.332  0.00  0.00    -0.090 HD
ATOM     22  H   UNL     1       2.295  -1.794   4.816  0.00  0.00    -0.090 HD
ATOM     23  H   UNL     1       2.572  -2.680   3.454  0.00  0.00    -0.090 HD
ENDBRANCH  19  20
ENDBRANCH  13  15
ENDBRANCH   1  13
TORSDOF 4
