REMARK  Name = ZINC02892226
REMARK  3 active torsions:
REMARK  status: ('A' for Active; 'I' for Inactive)
REMARK    1  A    between atoms: C_10  and  C_11
REMARK    2  A    between atoms: N_12  and  N_13
REMARK    3  A    between atoms: C_14  and  C_16
REMARK                            x       y       z     vdW  Elec       q    Type
REMARK                         _______ _______ _______ _____ _____    ______ ____
ROOT
ATOM      1  C   UNL     1       4.983   0.091  -0.046  0.00  0.00    +0.139 C 
ATOM      2  N   UNL     1       4.982   1.388  -0.137  0.00  0.00    -0.187 NA
ENDROOT
BRANCH   1  12
ATOM      3  C   UNL     1      -0.016   1.357   0.034  0.00  0.00    +0.001 A 
ATOM      4  C   UNL     1       1.168   2.091   0.027  0.00  0.00    +0.001 A 
ATOM      5  C   UNL     1       2.379   1.465   0.004  0.00  0.00    +0.009 A 
ATOM      6  C   UNL     1       2.435   0.067  -0.013  0.00  0.00    -0.009 A 
ATOM      7  C   UNL     1       1.233  -0.682  -0.005  0.00  0.00    -0.017 A 
ATOM      8  C   UNL     1       0.002  -0.004   0.018  0.00  0.00    +0.008 A 
ATOM      9  C   UNL     1       1.294  -2.086  -0.021  0.00  0.00    +0.008 A 
ATOM     10  C   UNL     1       2.494  -2.729  -0.044  0.00  0.00    +0.001 A 
ATOM     11  C   UNL     1       3.696  -2.037  -0.052  0.00  0.00    +0.010 A 
ATOM     12  C   UNL     1       3.711  -0.646  -0.037  0.00  0.00    +0.002 A 
ENDBRANCH   1  12
BRANCH   2  13
ATOM     13  N   UNL     1       6.195   2.091  -0.146  0.00  0.00    -0.199 N 
ATOM     14  C   UNL     1       6.194   3.435  -0.241  0.00  0.00    +0.318 C 
ATOM     15  O   UNL     1       5.142   4.037  -0.319  0.00  0.00    -0.263 OA
ATOM     16  H   UNL     1       7.034   1.609  -0.083  0.00  0.00    +0.178 HD
BRANCH  14  17
ATOM     17  C   UNL     1       7.484   4.183  -0.249  0.00  0.00    +0.303 C 
ATOM     18  O   UNL     1       8.535   3.581  -0.171  0.00  0.00    -0.265 OA
ATOM     19  N   UNL     1       7.484   5.527  -0.344  0.00  0.00    -0.294 N 
ATOM     20  C   UNL     1       6.289   6.379  -0.439  0.00  0.00    +0.108 C 
ATOM     21  C   UNL     1       6.775   7.839  -0.554  0.00  0.00    +0.020 C 
ATOM     22  C   UNL     1       8.223   7.682  -1.088  0.00  0.00    +0.020 C 
ATOM     23  C   UNL     1       8.680   6.388  -0.364  0.00  0.00    +0.108 C 
ENDBRANCH  14  17
ENDBRANCH   2  13
TORSDOF 3
