REMARK  Name = ZINC08832469
REMARK  5 active torsions:
REMARK  status: ('A' for Active; 'I' for Inactive)
REMARK    1  A    between atoms: C_3  and  C_9
REMARK    2  A    between atoms: C_12  and  C_14
REMARK    3  A    between atoms: C_15  and  C_16
REMARK    4  A    between atoms: N_18  and  C_19
REMARK    5  A    between atoms: C_20  and  C_28
REMARK                            x       y       z     vdW  Elec       q    Type
REMARK                         _______ _______ _______ _____ _____    ______ ____
ROOT
ATOM      1  C   UNL     1      -2.066   1.841   5.837  0.00  0.00    +0.242 C 
ATOM      2  O   UNL     1      -2.762   2.766   5.459  0.00  0.00    -0.270 OA
ATOM      3  N   UNL     1      -1.289   1.179   4.956  0.00  0.00    -0.276 N 
ATOM      4  H   UNL     1      -0.735   0.442   5.256  0.00  0.00    +0.156 HD
ENDROOT
BRANCH   3   5
ATOM      5  C   UNL     1      -1.283   1.552   3.622  0.00  0.00    +0.085 A 
ATOM      6  C   UNL     1      -0.558   0.998   2.575  0.00  0.00    +0.068 A 
ATOM      7  C   UNL     1      -0.732   1.580   1.257  0.00  0.00    -0.023 A 
ATOM      8  C   UNL     1      -1.601   2.615   1.194  0.00  0.00    -0.004 A 
ATOM      9  S   UNL     1      -2.179   2.821   2.854  0.00  0.00    -0.077 S 
ATOM     10  C   UNL     1      -1.979   3.405  -0.021  0.00  0.00    +0.043 C 
ATOM     11  C   UNL     1      -0.956   3.111  -1.127  0.00  0.00    +0.005 C 
ATOM     12  C   UNL     1      -0.758   1.595  -1.227  0.00  0.00    +0.005 C 
ATOM     13  C   UNL     1      -0.013   1.086   0.008  0.00  0.00    +0.037 C 
BRANCH   6  14
ATOM     14  C   UNL     1       0.350  -0.131   2.793  0.00  0.00    +0.244 C 
ATOM     15  O   UNL     1      -0.062  -1.272   2.693  0.00  0.00    -0.270 OA
ATOM     16  N   UNL     1       1.642   0.094   3.105  0.00  0.00    -0.325 N 
ATOM     17  H   UNL     1       1.970   1.003   3.185  0.00  0.00    +0.145 HD
ATOM     18  H   UNL     1       2.244  -0.653   3.249  0.00  0.00    +0.145 HD
ENDBRANCH   6  14
ENDBRANCH   3   5
BRANCH   1  20
ATOM     19  C   UNL     1      -2.854   2.128   8.086  0.00  0.00    +0.051 C 
ATOM     20  C   UNL     1      -2.072   1.461   7.198  0.00  0.00    +0.071 C 
BRANCH  19  24
ATOM     21  C   UNL     1      -2.397   0.675  11.310  0.00  0.00    +0.137 A 
ATOM     22  C   UNL     1      -3.309   1.655  11.631  0.00  0.00    +0.050 A 
ATOM     23  C   UNL     1      -3.606   2.340  10.450  0.00  0.00    +0.050 A 
ATOM     24  C   UNL     1      -2.861   1.748   9.447  0.00  0.00    +0.129 A 
ATOM     25  O   UNL     1      -2.144   0.743   9.991  0.00  0.00    -0.455 OA
BRANCH  21  28
ATOM     26  C   UNL     1      -0.682  -0.754  14.327  0.00  0.00    +0.021 A 
ATOM     27  C   UNL     1      -1.231   0.155  13.447  0.00  0.00    +0.014 A 
ATOM     28  C   UNL     1      -1.803  -0.291  12.253  0.00  0.00    +0.036 A 
ATOM     29  C   UNL     1      -1.805  -1.657  11.953  0.00  0.00    +0.053 A 
ATOM     30  C   UNL     1      -1.247  -2.555  12.840  0.00  0.00    +0.040 A 
ATOM     31  C   UNL     1      -0.687  -2.106  14.025  0.00  0.00    +0.042 A 
ATOM     32 CL   UNL     1       0.012  -3.242  15.136  0.00  0.00    -0.083 Cl
ATOM     33 CL   UNL     1      -2.506  -2.222  10.469  0.00  0.00    -0.083 Cl
ENDBRANCH  21  28
ENDBRANCH  19  24
ENDBRANCH   1  20
TORSDOF 5
