REMARK  Name = ZINC09971863
REMARK  10 active torsions:
REMARK  status: ('A' for Active; 'I' for Inactive)
REMARK    1  A    between atoms: C_1  and  C_2
REMARK    2  A    between atoms: C_3  and  C_12
REMARK    3  A    between atoms: C_12  and  C_13
REMARK    4  A    between atoms: C_13  and  N_58
REMARK    5  A    between atoms: C_14  and  C_16
REMARK    6  A    between atoms: C_14  and  C_24
REMARK    7  A    between atoms: C_14  and  N_58
REMARK    8  A    between atoms: N_28  and  C_29
REMARK    9  A    between atoms: C_32  and  O_35
REMARK   10  A    between atoms: O_35  and  C_36
REMARK                            x       y       z     vdW  Elec       q    Type
REMARK                         _______ _______ _______ _____ _____    ______ ____
ROOT
ATOM      1  C   UNL     1       0.257  -0.650  -0.832  0.00  0.00    +0.032 C 
ENDROOT
BRANCH   1   2
ATOM      2  C   UNL     1      -0.879  -0.676  -1.822  0.00  0.00    -0.036 A 
ATOM      3  C   UNL     1      -2.155  -0.998  -1.401  0.00  0.00    +0.005 A 
ATOM      4  C   UNL     1      -3.198  -1.016  -2.308  0.00  0.00    +0.020 A 
ATOM      5  C   UNL     1      -2.963  -0.723  -3.639  0.00  0.00    +0.042 A 
ATOM      6  C   UNL     1      -1.685  -0.406  -4.062  0.00  0.00    +0.040 A 
ATOM      7  C   UNL     1      -0.642  -0.383  -3.153  0.00  0.00    +0.044 A 
ATOM      8 CL   UNL     1       0.963   0.014  -3.683  0.00  0.00    -0.083 Cl
ATOM      9 CL   UNL     1      -4.272  -0.752  -4.779  0.00  0.00    -0.083 Cl
ENDBRANCH   1   2
BRANCH   1  10
ATOM     10  C   UNL     1       0.953  -1.987  -0.831  0.00  0.00    +0.147 A 
ATOM     11  N   UNL     1       0.686  -3.001  -1.612  0.00  0.00    -0.114 NA
ATOM     12  N   UNL     1       1.465  -3.989  -1.355  0.00  0.00    -0.023 NA
ATOM     13  N   UNL     1       2.270  -3.682  -0.396  0.00  0.00    -0.039 NA
ATOM     14  N   UNL     1       1.964  -2.363  -0.018  0.00  0.00    -0.198 N 
BRANCH  14  15
ATOM     15  C   UNL     1       2.578  -1.600   0.987  0.00  0.00    +0.069 A 
ATOM     16  C   UNL     1       2.896  -0.269   0.751  0.00  0.00    +0.031 A 
ATOM     17  C   UNL     1       3.495   0.483   1.742  0.00  0.00    +0.048 A 
ATOM     18  C   UNL     1       3.790  -0.094   2.969  0.00  0.00    +0.120 A 
ATOM     19  C   UNL     1       3.477  -1.426   3.203  0.00  0.00    +0.048 A 
ATOM     20  C   UNL     1       2.873  -2.177   2.214  0.00  0.00    +0.031 A 
BRANCH  18  21
ATOM     21  O   UNL     1       4.385   0.645   3.943  0.00  0.00    -0.495 OA
ATOM     22  C   UNL     1       4.678   2.009   3.634  0.00  0.00    +0.277 C 
ENDBRANCH  18  21
ENDBRANCH  14  15
ENDBRANCH   1  10
BRANCH   1  23
ATOM     23  N   UNL     1      -0.273  -0.379   0.518  0.00  0.00    +0.389 N 
ATOM     24  H   UNL     1      -1.192  -0.826   0.617  0.00  0.00    -0.084 HD
ATOM     25  H   UNL     1       0.372  -0.764   1.219  0.00  0.00    -0.084 HD
BRANCH  23  26
ATOM     26  C   UNL     1      -0.412   1.073   0.732  0.00  0.00    -0.076 C 
BRANCH  26  27
ATOM     27  C   UNL     1      -0.962   1.323   2.137  0.00  0.00    +0.018 C 
BRANCH  27  30
ATOM     28  C   UNL     1       1.196   3.212   3.325  0.00  0.00    +0.063 C 
ATOM     29  C   UNL     1      -0.180   3.630   2.876  0.00  0.00    +0.017 A 
ATOM     30  C   UNL     1      -1.107   2.806   2.364  0.00  0.00    -0.021 A 
ATOM     31  C   UNL     1      -2.290   3.620   2.072  0.00  0.00    +0.003 A 
ATOM     32  C   UNL     1      -3.552   3.344   1.544  0.00  0.00    +0.010 A 
ATOM     33  C   UNL     1      -4.460   4.354   1.393  0.00  0.00    +0.001 A 
ATOM     34  C   UNL     1      -4.138   5.653   1.762  0.00  0.00    +0.002 A 
ATOM     35  C   UNL     1      -2.898   5.948   2.285  0.00  0.00    +0.026 A 
ATOM     36  C   UNL     1      -1.958   4.935   2.447  0.00  0.00    +0.047 A 
ATOM     37  N   UNL     1      -0.668   4.907   2.928  0.00  0.00    -0.358 N 
ATOM     38  H   UNL     1      -0.180   5.678   3.259  0.00  0.00    +0.166 HD
ENDBRANCH  27  30
ENDBRANCH  26  27
ENDBRANCH  23  26
ENDBRANCH   1  23
TORSDOF 8
