REMARK  Name = ZINC08547172
REMARK  4 active torsions:
REMARK  status: ('A' for Active; 'I' for Inactive)
REMARK    1  A    between atoms: C_1  and  C_2
REMARK    2  A    between atoms: C_2  and  C_19
REMARK    3  A    between atoms: N_5  and  C_9
REMARK    4  A    between atoms: C_9  and  C_10
REMARK                            x       y       z     vdW  Elec       q    Type
REMARK                         _______ _______ _______ _____ _____    ______ ____
ROOT
ATOM      1  C   UNL     1       3.508   3.042  -4.574  0.00  0.00    +0.050 C 
ATOM      2  C   UNL     1       3.575   4.089  -3.460  0.00  0.00    +0.168 C 
ATOM      3  C   UNL     1       3.767   3.430  -2.109  0.00  0.00    +0.254 C 
ATOM      4  O   UNL     1       4.703   2.747  -1.754  0.00  0.00    -0.272 OA
ATOM      5  N   UNL     1       2.679   3.760  -1.385  0.00  0.00    -0.217 N 
ATOM      6  C   UNL     1       1.839   4.534  -2.081  0.00  0.00    +0.310 C 
ATOM      7  O   UNL     1       0.791   4.962  -1.639  0.00  0.00    -0.252 OA
ATOM      8  N   UNL     1       2.283   4.785  -3.326  0.00  0.00    -0.279 N 
ATOM      9  H   UNL     1       1.840   5.321  -4.002  0.00  0.00    +0.152 HD
ENDROOT
BRANCH   2  10
ATOM     10  C   UNL     1       4.683   5.075  -3.727  0.00  0.00    +0.138 A 
ATOM     11  C   UNL     1       4.542   6.223  -4.402  0.00  0.00    +0.056 A 
ATOM     12  C   UNL     1       5.866   6.856  -4.415  0.00  0.00    +0.020 A 
ATOM     13  C   UNL     1       6.375   8.042  -4.942  0.00  0.00    +0.011 A 
ATOM     14  C   UNL     1       7.698   8.344  -4.778  0.00  0.00    +0.001 A 
ATOM     15  C   UNL     1       8.536   7.478  -4.091  0.00  0.00    +0.004 A 
ATOM     16  C   UNL     1       8.051   6.300  -3.563  0.00  0.00    +0.047 A 
ATOM     17  C   UNL     1       6.709   5.975  -3.719  0.00  0.00    +0.135 A 
ATOM     18  O   UNL     1       5.958   4.926  -3.327  0.00  0.00    -0.457 OA
ENDBRANCH   2  10
BRANCH   5  19
ATOM     19  C   UNL     1       2.448   3.329  -0.003  0.00  0.00    +0.180 C 
BRANCH  19  20
ATOM     20  C   UNL     1       1.696   2.024  -0.003  0.00  0.00    +0.097 A 
ATOM     21  N   UNL     1       2.178   0.813  -0.014  0.00  0.00    -0.242 NA
ATOM     22  C   UNL     1       1.388  -0.281  -0.013  0.00  0.00    +0.079 A 
ATOM     23  C   UNL     1       1.756  -1.645  -0.024  0.00  0.00    +0.029 A 
ATOM     24  C   UNL     1       0.808  -2.620  -0.021  0.00  0.00    +0.002 A 
ATOM     25  C   UNL     1      -0.547  -2.319  -0.006  0.00  0.00    +0.001 A 
ATOM     26  C   UNL     1      -0.948  -0.997   0.005  0.00  0.00    +0.017 A 
ATOM     27  C   UNL     1       0.002  -0.004   0.002  0.00  0.00    +0.039 A 
ATOM     28  S   UNL     1      -0.022   1.771   0.012  0.00  0.00    -0.071 S 
ENDBRANCH  19  20
ENDBRANCH   5  19
TORSDOF 3
