REMARK  Name = ZINC03568177
REMARK  4 active torsions:
REMARK  status: ('A' for Active; 'I' for Inactive)
REMARK    1  A    between atoms: C_3  and  O_12
REMARK    2  A    between atoms: C_4  and  C_10
REMARK    3  A    between atoms: C_6  and  N_7
REMARK    4  A    between atoms: O_12  and  C_13
REMARK                            x       y       z     vdW  Elec       q    Type
REMARK                         _______ _______ _______ _____ _____    ______ ____
ROOT
ATOM      1  C   UNL     1       0.957   7.238  -0.177  0.00  0.00    +0.036 A 
ATOM      2  C   UNL     1       1.024   5.861  -0.079  0.00  0.00    +0.050 A 
ATOM      3  C   UNL     1       2.254   5.223  -0.095  0.00  0.00    +0.146 A 
ATOM      4  C   UNL     1       3.429   5.981  -0.206  0.00  0.00    +0.096 A 
ATOM      5  C   UNL     1       3.346   7.371  -0.309  0.00  0.00    +0.055 A 
ATOM      6  C   UNL     1       2.114   7.989  -0.291  0.00  0.00    +0.128 A 
ENDROOT
BRANCH   6   7
ATOM      7  N   UNL     1       2.028   9.463  -0.396  0.00  0.00    +0.056 N 
ATOM      8  O   UNL     1       0.941  10.012  -0.380  0.00  0.00    -0.126 OA
ATOM      9  O   UNL     1       3.044  10.127  -0.496  0.00  0.00    -0.126 OA
ENDBRANCH   6   7
BRANCH   4  10
ATOM     10  C   UNL     1       4.706   5.332  -0.218  0.00  0.00    +0.103 C 
ATOM     11  N   UNL     1       5.718   4.818  -0.228  0.00  0.00    -0.191 NA
ENDBRANCH   4  10
BRANCH   3  12
ATOM     12  O   UNL     1       2.322   3.871   0.001  0.00  0.00    -0.452 OA
BRANCH  12  13
ATOM     13  C   UNL     1       1.156   3.172  -0.004  0.00  0.00    +0.164 A 
ATOM     14  C   UNL     1       0.604   2.733   1.190  0.00  0.00    +0.050 A 
ATOM     15  C   UNL     1      -0.581   2.022   1.183  0.00  0.00    +0.019 A 
ATOM     16  C   UNL     1      -1.221   1.752  -0.014  0.00  0.00    +0.021 A 
ATOM     17  C   UNL     1      -0.670   2.183  -1.208  0.00  0.00    +0.057 A 
ATOM     18  C   UNL     1       0.516   2.895  -1.206  0.00  0.00    +0.166 A 
ATOM     19  F   UNL     1       1.050   3.322  -2.371  0.00  0.00    -0.202 F 
ATOM     20 BR   UNL     1      -2.846   0.785  -0.019  0.00  0.00    -0.050 Br
ENDBRANCH  12  13
ENDBRANCH   3  12
TORSDOF 4
