REMARK  Name = ZINC37511277
REMARK  10 active torsions:
REMARK  status: ('A' for Active; 'I' for Inactive)
REMARK    1  A    between atoms: C_1  and  C_2
REMARK    2  A    between atoms: C_2  and  C_3
REMARK    3  A    between atoms: C_7  and  O_9
REMARK    4  A    between atoms: O_9  and  C_10
REMARK    5  A    between atoms: C_10  and  C_11
REMARK    6  A    between atoms: C_11  and  C_13
REMARK    7  A    between atoms: N_19  and  C_24
REMARK    8  A    between atoms: C_24  and  C_25
REMARK    9  A    between atoms: C_28  and  C_30
REMARK   10  A    between atoms: N_35  and  C_38
REMARK                            x       y       z     vdW  Elec       q    Type
REMARK                         _______ _______ _______ _____ _____    ______ ____
ROOT
ATOM      1  C   UNL     1       0.651  -2.823   8.266  0.00  0.00    +0.023 A 
ATOM      2  C   UNL     1       2.006  -3.143   8.416  0.00  0.00    +0.015 A 
ATOM      3  C   UNL     1       2.473  -3.618   9.621  0.00  0.00    +0.048 A 
ATOM      4  C   UNL     1       1.603  -3.781  10.690  0.00  0.00    +0.143 A 
ATOM      5  C   UNL     1       0.249  -3.463  10.548  0.00  0.00    +0.079 A 
ATOM      6  C   UNL     1      -0.227  -2.982   9.345  0.00  0.00    +0.038 A 
ATOM      7  N   UNL     1      -0.614  -3.636  11.640  0.00  0.00    -0.258 N 
ATOM      8  C   UNL     1      -0.084  -3.794  12.873  0.00  0.00    +0.258 C 
ATOM      9  O   UNL     1      -0.809  -3.975  13.829  0.00  0.00    -0.271 OA
ATOM     10  C   UNL     1       1.411  -3.746  13.056  0.00  0.00    +0.325 C 
ATOM     11  O   UNL     1       2.056  -4.247  11.883  0.00  0.00    -0.481 OA
ENDROOT
BRANCH   1  12
ATOM     12  C   UNL     1       0.152  -2.316   6.980  0.00  0.00    +0.200 C 
ATOM     13  O   UNL     1      -1.020  -2.034   6.853  0.00  0.00    -0.288 OA
BRANCH  12  14
ATOM     14  C   UNL     1       1.099  -2.145   5.820  0.00  0.00    +0.308 C 
BRANCH  14  15
ATOM     15  O   UNL     1       0.382  -1.642   4.691  0.00  0.00    -0.484 OA
BRANCH  15  20
ATOM     16  C   UNL     1       1.185  -0.729   1.262  0.00  0.00    -0.044 A 
ATOM     17  C   UNL     1       2.541  -1.000   1.235  0.00  0.00    +0.004 A 
ATOM     18  C   UNL     1       3.174  -1.485   2.364  0.00  0.00    +0.004 A 
ATOM     19  C   UNL     1       2.453  -1.701   3.523  0.00  0.00    +0.045 A 
ATOM     20  C   UNL     1       1.093  -1.431   3.552  0.00  0.00    +0.121 A 
ATOM     21  C   UNL     1       0.461  -0.938   2.419  0.00  0.00    +0.049 A 
BRANCH  16  23
ATOM     22  C   UNL     1       0.550   1.329   0.033  0.00  0.00    +0.009 C 
ATOM     23  C   UNL     1       0.498  -0.201   0.029  0.00  0.00    +0.032 C 
ENDBRANCH  16  23
ENDBRANCH  15  20
ENDBRANCH  14  15
ENDBRANCH  12  14
ENDBRANCH   1  12
BRANCH   7  24
ATOM     24  C   UNL     1      -2.066  -3.644  11.448  0.00  0.00    +0.188 C 
BRANCH  24  25
ATOM     25  C   UNL     1      -2.530  -5.054  11.186  0.00  0.00    +0.124 A 
ATOM     26  C   UNL     1      -2.920  -5.941  12.127  0.00  0.00    +0.047 A 
ATOM     27  C   UNL     1      -3.271  -7.125  11.459  0.00  0.00    +0.055 A 
ATOM     28  C   UNL     1      -3.075  -6.896  10.127  0.00  0.00    +0.190 A 
ATOM     29  O   UNL     1      -2.630  -5.631   9.982  0.00  0.00    -0.453 OA
BRANCH  28  30
ATOM     30  C   UNL     1      -3.312  -7.856   9.044  0.00  0.00    +0.282 C 
ATOM     31  O   UNL     1      -3.599  -9.010   9.305  0.00  0.00    -0.267 OA
ATOM     32  N   UNL     1      -3.211  -7.462   7.759  0.00  0.00    -0.299 N 
ATOM     33  C   UNL     1      -3.527  -8.384   6.657  0.00  0.00    +0.089 C 
ATOM     34  C   UNL     1      -4.498  -7.684   5.702  0.00  0.00    -0.060 C 
ATOM     35  N   UNL     1      -3.924  -6.402   5.273  0.00  0.00    +0.380 N 
ATOM     36  C   UNL     1      -3.789  -5.504   6.427  0.00  0.00    -0.060 C 
ATOM     37  C   UNL     1      -2.788  -6.094   7.419  0.00  0.00    +0.089 C 
ATOM     38  C   UNL     1      -4.804  -5.783   4.273  0.00  0.00    -0.096 C 
ATOM     39  H   UNL     1      -3.015  -6.562   4.865  0.00  0.00    -0.082 HD
ENDBRANCH  28  30
ENDBRANCH  24  25
ENDBRANCH   7  24
TORSDOF 8
