REMARK  Name = ZINC38709940
REMARK  4 active torsions:
REMARK  status: ('A' for Active; 'I' for Inactive)
REMARK    1  A    between atoms: C_1  and  C_2
REMARK    2  A    between atoms: C_4  and  C_17
REMARK    3  A    between atoms: C_20  and  C_24
REMARK    4  A    between atoms: C_24  and  C_26
REMARK                            x       y       z     vdW  Elec       q    Type
REMARK                         _______ _______ _______ _____ _____    ______ ____
ROOT
ATOM      1  C   UNL     1      -5.437   0.160  -1.337  0.00  0.00    +0.067 C 
ATOM      2  C   UNL     1      -5.084  -0.885  -0.310  0.00  0.00    +0.064 C 
ATOM      3  C   UNL     1      -3.862  -1.207   0.043  0.00  0.00    +0.008 C 
ATOM      4  C   UNL     1      -2.514  -0.620  -0.290  0.00  0.00    +0.085 C 
ATOM      5  C   UNL     1      -1.777  -0.569   1.040  0.00  0.00    +0.068 C 
ATOM      6  C   UNL     1      -2.236  -1.165   2.168  0.00  0.00    +0.055 C 
ATOM      7  C   UNL     1      -1.218  -0.878   3.241  0.00  0.00    +0.283 C 
ATOM      8  O   UNL     1      -0.203  -0.093   2.598  0.00  0.00    -0.455 OA
ATOM      9  C   UNL     1      -0.560   0.073   1.308  0.00  0.00    +0.338 C 
ATOM     10  O   UNL     1       0.088   0.695   0.487  0.00  0.00    -0.245 OA
ATOM     11  N   UNL     1      -3.398  -1.881   2.291  0.00  0.00    -0.318 N 
ATOM     12  C   UNL     1      -4.027  -2.350   1.044  0.00  0.00    +0.241 C 
ATOM     13  N   UNL     1      -5.485  -2.440   1.170  0.00  0.00    -0.160 NA
ATOM     14  N   UNL     1      -5.986  -1.623   0.387  0.00  0.00    -0.157 NA
ATOM     15  H   UNL     1      -3.788  -2.071   3.159  0.00  0.00    +0.148 HD
ENDROOT
BRANCH   4  16
ATOM     16  C   UNL     1      -2.672   0.766  -0.861  0.00  0.00    -0.062 C 
ATOM     17  C   UNL     1      -3.136   1.693  -0.085  0.00  0.00    -0.026 C 
ATOM     18  C   UNL     1      -3.359   3.114  -0.513  0.00  0.00    +0.035 C 
ATOM     19  C   UNL     1      -2.585   3.404  -1.801  0.00  0.00    +0.018 C 
ATOM     20  C   UNL     1      -2.889   2.291  -2.811  0.00  0.00    +0.012 C 
ATOM     21  C   UNL     1      -2.275   0.988  -2.291  0.00  0.00    +0.032 C 
BRANCH  19  22
ATOM     22  C   UNL     1      -3.015   4.735  -2.361  0.00  0.00    -0.076 C 
ATOM     23  C   UNL     1      -2.138   5.696  -2.514  0.00  0.00    +0.007 C 
ATOM     24  C   UNL     1      -4.455   4.960  -2.746  0.00  0.00    +0.039 C 
ENDBRANCH  19  22
ENDBRANCH   4  16
TORSDOF 2
