REMARK  Name = ZINC23158986
REMARK  4 active torsions:
REMARK  status: ('A' for Active; 'I' for Inactive)
REMARK    1  A    between atoms: C_1  and  C_2
REMARK    2  A    between atoms: C_7  and  C_8
REMARK    3  A    between atoms: N_9  and  C_12
REMARK    4  A    between atoms: C_21  and  O_23
REMARK                            x       y       z     vdW  Elec       q    Type
REMARK                         _______ _______ _______ _____ _____    ______ ____
ROOT
ATOM      1  C   UNL     1       2.254   0.829  -0.015  0.00  0.00    +0.148 C 
ATOM      2  C   UNL     1       1.279   1.986   0.001  0.00  0.00    -0.018 A 
ATOM      3  C   UNL     1       1.508   3.352   0.005  0.00  0.00    +0.006 A 
ATOM      4  C   UNL     1       0.446   4.235   0.020  0.00  0.00    +0.000 A 
ATOM      5  C   UNL     1      -0.850   3.755   0.031  0.00  0.00    +0.000 A 
ATOM      6  C   UNL     1      -1.081   2.394   0.030  0.00  0.00    +0.004 A 
ATOM      7  C   UNL     1      -0.018   1.505   0.010  0.00  0.00    -0.034 A 
ATOM      8  C   UNL     1       0.002  -0.004   0.002  0.00  0.00    +0.021 C 
ATOM      9  C   UNL     1       1.429  -0.402   0.421  0.00  0.00    +0.152 C 
ATOM     10  C   UNL     1      -0.296  -0.533  -1.399  0.00  0.00    -0.005 C 
ATOM     11  C   UNL     1      -0.295  -2.064  -1.372  0.00  0.00    -0.082 C 
ATOM     12  N   UNL     1      -1.299  -2.537  -0.411  0.00  0.00    +0.379 N 
ATOM     13  C   UNL     1      -0.986  -2.087   0.952  0.00  0.00    -0.082 C 
ATOM     14  C   UNL     1      -1.009  -0.557   1.003  0.00  0.00    -0.005 C 
ATOM     15  H   UNL     1      -2.288  -2.145  -0.690  0.00  0.00    -0.086 HD
ATOM     16  H   UNL     1      -1.325  -3.637  -0.419  0.00  0.00    -0.086 HD
ENDROOT
BRANCH   1  25
ATOM     17  C   UNL     1       8.965   1.291   0.754  0.00  0.00    +0.044 C 
ATOM     18  C   UNL     1       7.461   1.215   0.723  0.00  0.00    -0.045 A 
ATOM     19  C   UNL     1       6.750   1.415   1.873  0.00  0.00    +0.033 A 
ATOM     20  C   UNL     1       5.354   1.346   1.849  0.00  0.00    +0.089 A 
ATOM     21  C   UNL     1       4.696   1.066   0.640  0.00  0.00    +0.070 A 
ATOM     22  C   UNL     1       5.435   0.872  -0.519  0.00  0.00    +0.031 A 
ATOM     23  C   UNL     1       6.811   0.945  -0.472  0.00  0.00    -0.045 A 
ATOM     24  C   UNL     1       7.615   0.729  -1.728  0.00  0.00    +0.044 C 
ATOM     25  N   UNL     1       3.347   1.069   0.930  0.00  0.00    -0.320 N 
ATOM     26  C   UNL     1       3.220   1.331   2.259  0.00  0.00    +0.201 A 
ATOM     27  N   UNL     1       4.394   1.493   2.797  0.00  0.00    -0.236 NA
ENDBRANCH   1  25
BRANCH   9  28
ATOM     28  O   UNL     1       1.854  -1.576  -0.273  0.00  0.00    -0.389 OA
ATOM     29  H   UNL     1       1.364  -2.541  -0.074  0.00  0.00    +0.210 HD
ENDBRANCH   9  28
TORSDOF 2
