REMARK  Name = ZINC09883311
REMARK  7 active torsions:
REMARK  status: ('A' for Active; 'I' for Inactive)
REMARK    1  A    between atoms: C_7  and  C_11
REMARK    2  A    between atoms: C_11  and  C_12
REMARK    3  A    between atoms: C_12  and  C_14
REMARK    4  A    between atoms: C_12  and  N_25
REMARK    5  A    between atoms: N_16  and  N_17
REMARK    6  A    between atoms: C_18  and  C_20
REMARK    7  A    between atoms: C_26  and  C_28
REMARK                            x       y       z     vdW  Elec       q    Type
REMARK                         _______ _______ _______ _____ _____    ______ ____
ROOT
ATOM      1  C   UNL     1       7.328   2.193  -0.053  0.00  0.00    +0.165 C 
ENDROOT
BRANCH   1   2
ATOM      2  C   UNL     1       5.900   2.676  -0.038  0.00  0.00    +0.250 C 
ATOM      3  O   UNL     1       5.662   3.865  -0.031  0.00  0.00    -0.272 OA
ATOM      4  N   UNL     1       4.888   1.786  -0.033  0.00  0.00    -0.233 N 
ATOM      5  H   UNL     1       5.078   0.835  -0.039  0.00  0.00    +0.173 HD
BRANCH   4   6
ATOM      6  N   UNL     1       3.561   2.235  -0.019  0.00  0.00    -0.230 N 
ATOM      7  C   UNL     1       2.548   1.345  -0.014  0.00  0.00    +0.267 C 
ATOM      8  O   UNL     1       2.787   0.152  -0.021  0.00  0.00    -0.268 OA
ATOM      9  H   UNL     1       3.371   3.186  -0.013  0.00  0.00    +0.173 HD
BRANCH   7  10
ATOM     10  C   UNL     1       1.160   1.815   0.001  0.00  0.00    +0.075 A 
ATOM     11  C   UNL     1      -0.013   1.076   0.008  0.00  0.00    +0.021 A 
ATOM     12  C   UNL     1      -1.193   1.776   0.017  0.00  0.00    +0.008 A 
ATOM     13  C   UNL     1      -1.159   3.135   0.029  0.00  0.00    +0.046 A 
ATOM     14  S   UNL     1       0.539   3.487   0.015  0.00  0.00    -0.092 S 
ENDBRANCH   7  10
ENDBRANCH   4   6
ENDBRANCH   1   2
BRANCH   1  15
ATOM     15  N   UNL     1       8.233   3.344  -0.056  0.00  0.00    -0.300 N 
ATOM     16  C   UNL     1       9.485   3.218   0.425  0.00  0.00    +0.245 C 
ATOM     17  O   UNL     1       9.864   2.149   0.862  0.00  0.00    -0.270 OA
ATOM     18  H   UNL     1       7.931   4.198  -0.405  0.00  0.00    +0.150 HD
BRANCH  16  19
ATOM     19  C   UNL     1      10.398   4.380   0.422  0.00  0.00    +0.037 A 
ATOM     20  C   UNL     1       9.968   5.608  -0.084  0.00  0.00    +0.016 A 
ATOM     21  C   UNL     1      10.821   6.690  -0.078  0.00  0.00    +0.039 A 
ATOM     22  C   UNL     1      12.110   6.558   0.417  0.00  0.00    +0.123 A 
ATOM     23  C   UNL     1      12.544   5.339   0.915  0.00  0.00    +0.039 A 
ATOM     24  C   UNL     1      11.697   4.252   0.921  0.00  0.00    +0.016 A 
ATOM     25  F   UNL     1      12.944   7.620   0.415  0.00  0.00    -0.205 F 
ENDBRANCH  16  19
ENDBRANCH   1  15
BRANCH   1  26
ATOM     26  C   UNL     1       7.568   1.352  -1.308  0.00  0.00    +0.069 C 
BRANCH  26  33
ATOM     27  C   UNL     1       9.362  -2.506   0.660  0.00  0.00    +0.001 A 
ATOM     28  C   UNL     1      10.725  -2.644   0.435  0.00  0.00    +0.002 A 
ATOM     29  C   UNL     1      11.415  -1.704  -0.299  0.00  0.00    +0.026 A 
ATOM     30  C   UNL     1      10.741  -0.606  -0.823  0.00  0.00    +0.047 A 
ATOM     31  C   UNL     1       9.360  -0.471  -0.592  0.00  0.00    +0.003 A 
ATOM     32  C   UNL     1       8.681  -1.435   0.155  0.00  0.00    +0.010 A 
ATOM     33  C   UNL     1       8.957   0.768  -1.263  0.00  0.00    -0.020 A 
ATOM     34  C   UNL     1      10.058   1.280  -1.835  0.00  0.00    +0.087 A 
ATOM     35  N   UNL     1      11.134   0.476  -1.578  0.00  0.00    -0.360 N 
ATOM     36  H   UNL     1      12.040   0.642  -1.885  0.00  0.00    +0.165 HD
ENDBRANCH  26  33
ENDBRANCH   1  26
TORSDOF 7
