REMARK  Name = ZINC09496952
REMARK  7 active torsions:
REMARK  status: ('A' for Active; 'I' for Inactive)
REMARK    1  A    between atoms: C_1  and  C_2
REMARK    2  A    between atoms: C_2  and  C_4
REMARK    3  A    between atoms: C_2  and  S_18
REMARK    4  A    between atoms: C_9  and  C_12
REMARK    5  A    between atoms: S_18  and  C_19
REMARK    6  A    between atoms: C_22  and  C_25
REMARK    7  A    between atoms: N_23  and  N_24
REMARK                            x       y       z     vdW  Elec       q    Type
REMARK                         _______ _______ _______ _____ _____    ______ ____
ROOT
ATOM      1  C   UNL     1       0.251   4.114  -0.911  0.00  0.00    +0.029 C 
ATOM      2  C   UNL     1       0.581   3.727   0.532  0.00  0.00    +0.137 C 
ENDROOT
BRANCH   2   3
ATOM      3  C   UNL     1       0.386   2.243   0.711  0.00  0.00    +0.232 C 
ATOM      4  O   UNL     1       1.343   1.499   0.690  0.00  0.00    -0.274 OA
ATOM      5  N   UNL     1      -0.852   1.743   0.895  0.00  0.00    -0.264 N 
ATOM      6  C   UNL     1      -1.032   0.375   1.060  0.00  0.00    +0.165 A 
ATOM      7  N   UNL     1      -2.147  -0.303   1.250  0.00  0.00    -0.225 NA
ATOM      8  C   UNL     1      -2.136  -1.621   1.389  0.00  0.00    +0.080 A 
ATOM      9  C   UNL     1      -0.946  -2.291   1.334  0.00  0.00    +0.076 A 
ATOM     10  S   UNL     1       0.186  -0.933   1.063  0.00  0.00    -0.060 S 
ATOM     11  H   UNL     1      -1.618   2.338   0.908  0.00  0.00    +0.157 HD
BRANCH   8  12
ATOM     12  C   UNL     1      -3.403  -2.362   1.603  0.00  0.00    +0.001 A 
ATOM     13  C   UNL     1      -3.387  -3.749   1.743  0.00  0.00    +0.010 A 
ATOM     14  C   UNL     1      -4.568  -4.433   1.947  0.00  0.00    +0.001 A 
ATOM     15  C   UNL     1      -5.768  -3.746   2.001  0.00  0.00    +0.000 A 
ATOM     16  C   UNL     1      -5.790  -2.370   1.857  0.00  0.00    +0.001 A 
ATOM     17  C   UNL     1      -4.614  -1.675   1.658  0.00  0.00    +0.010 A 
ENDBRANCH   8  12
ENDBRANCH   2   3
BRANCH   2  18
ATOM     18  S   UNL     1       2.301   4.157   0.894  0.00  0.00    -0.072 S 
BRANCH  18  19
ATOM     19  C   UNL     1       2.212   5.912   0.761  0.00  0.00    +0.209 A 
ATOM     20  N   UNL     1       1.143   6.618   0.466  0.00  0.00    -0.121 NA
ATOM     21  N   UNL     1       1.431   7.871   0.456  0.00  0.00    -0.127 NA
ATOM     22  C   UNL     1       2.702   8.041   0.734  0.00  0.00    +0.182 A 
ATOM     23  N   UNL     1       3.241   6.792   0.938  0.00  0.00    -0.224 N 
BRANCH  22  24
ATOM     24  C   UNL     1       3.419   9.331   0.812  0.00  0.00    +0.021 A 
ATOM     25  C   UNL     1       2.704  10.524   0.931  0.00  0.00    +0.014 A 
ATOM     26  C   UNL     1       3.378  11.725   1.008  0.00  0.00    +0.039 A 
ATOM     27  C   UNL     1       4.763  11.749   0.958  0.00  0.00    +0.123 A 
ATOM     28  C   UNL     1       5.478  10.568   0.836  0.00  0.00    +0.039 A 
ATOM     29  C   UNL     1       4.814   9.362   0.762  0.00  0.00    +0.014 A 
ATOM     30  F   UNL     1       5.418  12.928   1.029  0.00  0.00    -0.205 F 
ENDBRANCH  22  24
BRANCH  23  31
ATOM     31  N   UNL     1       4.537   6.493   1.251  0.00  0.00    -0.295 N 
ATOM     32  H   UNL     1       5.108   6.445   0.421  0.00  0.00    +0.163 HD
ATOM     33  H   UNL     1       4.912   7.159   1.910  0.00  0.00    +0.163 HD
ENDBRANCH  23  31
ENDBRANCH  18  19
ENDBRANCH   2  18
TORSDOF 6
