REMARK  Name = ZINC37581208
REMARK  8 active torsions:
REMARK  status: ('A' for Active; 'I' for Inactive)
REMARK    1  A    between atoms: C_3  and  C_18
REMARK    2  A    between atoms: C_5  and  S_7
REMARK    3  A    between atoms: S_7  and  N_10
REMARK    4  A    between atoms: N_10  and  C_11
REMARK    5  A    between atoms: C_11  and  C_12
REMARK    6  A    between atoms: C_12  and  C_13
REMARK    7  A    between atoms: C_19  and  C_20
REMARK    8  A    between atoms: C_20  and  N_21
REMARK                            x       y       z     vdW  Elec       q    Type
REMARK                         _______ _______ _______ _____ _____    ______ ____
ROOT
ATOM      1  C   UNL     1      -0.017   1.379   0.010  0.00  0.00    +0.003 A 
ATOM      2  C   UNL     1       1.167   2.088   0.002  0.00  0.00    +0.017 A 
ATOM      3  C   UNL     1       2.385   1.407  -0.013  0.00  0.00    +0.027 A 
ATOM      4  C   UNL     1       2.397   0.011  -0.021  0.00  0.00    +0.045 A 
ATOM      5  C   UNL     1       1.206  -0.685  -0.013  0.00  0.00    +0.106 A 
ATOM      6  C   UNL     1       0.002  -0.004   0.002  0.00  0.00    +0.028 A 
ENDROOT
BRANCH   5   7
ATOM      7  S   UNL     1       1.219  -2.447  -0.023  0.00  0.00    +0.058 S 
ATOM      8  O   UNL     1      -0.029  -2.860  -0.564  0.00  0.00    -0.153 OA
ATOM      9  O   UNL     1       2.462  -2.841  -0.588  0.00  0.00    -0.153 OA
BRANCH   7  10
ATOM     10  N   UNL     1       1.238  -2.946   1.556  0.00  0.00    -0.190 NA
ATOM     11  H   UNL     1       2.006  -3.424   1.905  0.00  0.00    +0.148 HD
BRANCH  10  12
ATOM     12  C   UNL     1       0.094  -2.663   2.427  0.00  0.00    +0.111 C 
BRANCH  12  13
ATOM     13  C   UNL     1       0.186  -3.528   3.686  0.00  0.00    +0.059 C 
BRANCH  13  14
ATOM     14  C   UNL     1      -0.991  -3.237   4.582  0.00  0.00    -0.009 A 
ATOM     15  C   UNL     1      -2.208  -3.833   4.613  0.00  0.00    +0.011 A 
ATOM     16  C   UNL     1      -3.144  -3.397   5.532  0.00  0.00    +0.008 A 
ATOM     17  C   UNL     1      -2.818  -2.387   6.374  0.00  0.00    +0.045 A 
ATOM     18  S   UNL     1      -1.141  -2.023   5.883  0.00  0.00    -0.102 S 
ENDBRANCH  13  14
ENDBRANCH  12  13
ENDBRANCH  10  12
ENDBRANCH   7  10
ENDBRANCH   5   7
BRANCH   3  19
ATOM     19  C   UNL     1       3.617   2.137  -0.021  0.00  0.00    -0.068 C 
ATOM     20  C   UNL     1       4.627   2.735  -0.028  0.00  0.00    -0.117 C 
BRANCH  20  21
ATOM     21  C   UNL     1       5.893   3.485  -0.037  0.00  0.00    +0.005 C 
BRANCH  21  22
ATOM     22  N   UNL     1       7.020   2.543  -0.053  0.00  0.00    +0.385 N 
ATOM     23  H   UNL     1       6.981   1.958   0.769  0.00  0.00    -0.089 HD
ATOM     24  H   UNL     1       6.965   1.966  -0.879  0.00  0.00    -0.089 HD
ATOM     25  H   UNL     1       7.888   3.057  -0.059  0.00  0.00    -0.089 HD
ENDBRANCH  21  22
ENDBRANCH  20  21
ENDBRANCH   3  19
TORSDOF 8
