REMARK  Name = ZINC12882702
REMARK  6 active torsions:
REMARK  status: ('A' for Active; 'I' for Inactive)
REMARK    1  A    between atoms: C_1  and  C_2
REMARK    2  A    between atoms: C_2  and  C_4
REMARK    3  A    between atoms: C_2  and  O_34
REMARK    4  A    between atoms: N_12  and  C_15
REMARK    5  A    between atoms: C_15  and  C_16
REMARK    6  A    between atoms: C_16  and  C_17
REMARK                            x       y       z     vdW  Elec       q    Type
REMARK                         _______ _______ _______ _____ _____    ______ ____
ROOT
ATOM      1  C   UNL     1      -2.628   4.235  -0.753  0.00  0.00    -0.028 C 
ATOM      2  C   UNL     1      -2.516   4.630   0.735  0.00  0.00    +0.075 C 
ATOM      3  C   UNL     1      -1.248   3.891   1.248  0.00  0.00    +0.088 C 
ATOM      4  C   UNL     1      -1.801   2.901   2.248  0.00  0.00    +0.225 C 
ATOM      5  O   UNL     1      -1.143   2.111   2.889  0.00  0.00    -0.275 OA
ATOM      6  N   UNL     1      -3.131   3.033   2.314  0.00  0.00    -0.241 N 
ATOM      7  C   UNL     1      -3.637   3.974   1.508  0.00  0.00    +0.224 C 
ATOM      8  O   UNL     1      -4.812   4.256   1.413  0.00  0.00    -0.275 OA
ATOM      9  C   UNL     1      -0.712   3.145   0.020  0.00  0.00    +0.050 C 
ATOM     10  C   UNL     1       0.790   3.108   0.009  0.00  0.00    -0.026 A 
ATOM     11  C   UNL     1       1.762   4.084   0.005  0.00  0.00    +0.004 A 
ATOM     12  C   UNL     1       3.099   3.730  -0.005  0.00  0.00    +0.002 A 
ATOM     13  C   UNL     1       3.458   2.394  -0.014  0.00  0.00    +0.022 A 
ATOM     14  C   UNL     1       2.487   1.413  -0.011  0.00  0.00    +0.062 A 
ATOM     15  C   UNL     1       1.137   1.761   0.001  0.00  0.00    +0.054 A 
ATOM     16  N   UNL     1      -0.011   0.966   0.007  0.00  0.00    -0.285 N 
ATOM     17  C   UNL     1      -1.139   1.702   0.016  0.00  0.00    +0.211 C 
ATOM     18  O   UNL     1      -2.277   1.284   0.022  0.00  0.00    -0.277 OA
ATOM     19 CL   UNL     1       2.948  -0.261  -0.023  0.00  0.00    -0.082 Cl
ATOM     20  H   UNL     1       0.002  -0.004   0.002  0.00  0.00    +0.155 HD
ATOM     21  N   UNL     1      -1.263   3.854  -1.122  0.00  0.00    +0.396 N 
ATOM     22  H   UNL     1      -0.703   4.691  -1.324  0.00  0.00    -0.083 HD
ATOM     23  H   UNL     1      -1.275   3.243  -1.947  0.00  0.00    -0.083 HD
ENDROOT
BRANCH   1  25
ATOM     24  C   UNL     1      -3.224   5.010  -3.053  0.00  0.00    +0.036 C 
ATOM     25  C   UNL     1      -3.120   5.423  -1.583  0.00  0.00    +0.098 C 
BRANCH  25  26
ATOM     26  O   UNL     1      -4.405   5.834  -1.112  0.00  0.00    -0.394 OA
ATOM     27  H   UNL     1      -5.083   5.146  -1.168  0.00  0.00    +0.210 HD
ENDBRANCH  25  26
ENDBRANCH   1  25
BRANCH   6  28
ATOM     28  C   UNL     1      -3.966   2.215   3.198  0.00  0.00    +0.121 C 
BRANCH  28  29
ATOM     29  C   UNL     1      -4.406   0.951   2.457  0.00  0.00    +0.054 C 
BRANCH  29  30
ATOM     30  C   UNL     1      -5.264   0.109   3.365  0.00  0.00    -0.046 A 
ATOM     31  C   UNL     1      -4.682  -0.852   4.171  0.00  0.00    +0.004 A 
ATOM     32  C   UNL     1      -5.468  -1.622   5.007  0.00  0.00    +0.000 A 
ATOM     33  C   UNL     1      -6.838  -1.437   5.032  0.00  0.00    +0.000 A 
ATOM     34  C   UNL     1      -7.421  -0.479   4.223  0.00  0.00    +0.000 A 
ATOM     35  C   UNL     1      -6.634   0.293   3.389  0.00  0.00    +0.004 A 
ENDBRANCH  29  30
ENDBRANCH  28  29
ENDBRANCH   6  28
TORSDOF 5
