REMARK  Name = ZINC53254454
REMARK  4 active torsions:
REMARK  status: ('A' for Active; 'I' for Inactive)
REMARK    1  A    between atoms: C_4  and  S_8
REMARK    2  A    between atoms: S_8  and  N_11
REMARK    3  A    between atoms: N_11  and  C_12
REMARK    4  A    between atoms: C_12  and  C_13
REMARK                            x       y       z     vdW  Elec       q    Type
REMARK                         _______ _______ _______ _____ _____    ______ ____
ROOT
ATOM      1  S   UNL     1       4.072  -0.872   0.007  0.00  0.00    +0.059 S 
ATOM      2  O   UNL     1       5.090  -0.410   0.884  0.00  0.00    -0.153 OA
ATOM      3  O   UNL     1       3.593  -2.209   0.033  0.00  0.00    -0.153 OA
ENDROOT
BRANCH   1   7
ATOM      4  C   UNL     1       0.478   1.800   0.677  0.00  0.00    +0.016 A 
ATOM      5  C   UNL     1       0.428   0.801  -0.277  0.00  0.00    +0.018 A 
ATOM      6  C   UNL     1       1.526  -0.015  -0.482  0.00  0.00    +0.044 A 
ATOM      7  C   UNL     1       2.674   0.168   0.268  0.00  0.00    +0.120 A 
ATOM      8  C   UNL     1       2.723   1.167   1.222  0.00  0.00    +0.045 A 
ATOM      9  C   UNL     1       1.625   1.983   1.427  0.00  0.00    +0.020 A 
ATOM     10 BR   UNL     1       1.693   3.349   2.732  0.00  0.00    -0.050 Br
ATOM     11 BR   UNL     1       1.457  -1.381  -1.788  0.00  0.00    -0.048 Br
ENDBRANCH   1   7
BRANCH   1  12
ATOM     12  N   UNL     1       4.610  -0.591  -1.533  0.00  0.00    -0.191 NA
ATOM     13  H   UNL     1       4.589  -1.303  -2.192  0.00  0.00    +0.148 HD
BRANCH  12  14
ATOM     14  C   UNL     1       5.119   0.732  -1.902  0.00  0.00    +0.090 C 
BRANCH  14  15
ATOM     15  C   UNL     1       5.906   0.630  -3.210  0.00  0.00    -0.056 C 
ATOM     16  C   UNL     1       6.302   2.040  -3.696  0.00  0.00    -0.016 C 
ATOM     17  C   UNL     1       6.131   1.941  -5.234  0.00  0.00    -0.021 C 
ATOM     18  C   UNL     1       4.899   1.009  -5.353  0.00  0.00    -0.082 C 
ATOM     19  N   UNL     1       5.062   0.025  -4.257  0.00  0.00    +0.382 N 
ATOM     20  H   UNL     1       5.506  -0.810  -4.610  0.00  0.00    -0.085 HD
ATOM     21  H   UNL     1       4.159  -0.209  -3.872  0.00  0.00    -0.085 HD
ENDBRANCH  14  15
ENDBRANCH  12  14
ENDBRANCH   1  12
TORSDOF 4
