REMARK  Name = ZINC23436060
REMARK  6 active torsions:
REMARK  status: ('A' for Active; 'I' for Inactive)
REMARK    1  A    between atoms: C_4  and  O_11
REMARK    2  A    between atoms: C_5  and  C_7
REMARK    3  A    between atoms: O_11  and  S_12
REMARK    4  A    between atoms: S_12  and  C_15
REMARK    5  A    between atoms: C_19  and  S_21
REMARK    6  A    between atoms: S_21  and  N_24
REMARK                            x       y       z     vdW  Elec       q    Type
REMARK                         _______ _______ _______ _____ _____    ______ ____
ROOT
ATOM      1  S   UNL     1       4.046  -1.081   0.763  0.00  0.00    +0.151 S 
ATOM      2  O   UNL     1       5.386  -1.487   0.522  0.00  0.00    -0.131 OA
ATOM      3  O   UNL     1       3.718  -0.034   1.667  0.00  0.00    -0.131 OA
ENDROOT
BRANCH   1   4
ATOM      4  C   UNL     1       3.177  -2.511   1.314  0.00  0.00    +0.130 A 
ATOM      5  C   UNL     1       2.169  -2.389   2.252  0.00  0.00    +0.030 A 
ATOM      6  C   UNL     1       1.487  -3.512   2.684  0.00  0.00    +0.004 A 
ATOM      7  C   UNL     1       1.813  -4.756   2.177  0.00  0.00    +0.028 A 
ATOM      8  C   UNL     1       2.821  -4.878   1.238  0.00  0.00    +0.107 A 
ATOM      9  C   UNL     1       3.499  -3.755   0.803  0.00  0.00    +0.059 A 
BRANCH   8  10
ATOM     10  S   UNL     1       3.237  -6.464   0.593  0.00  0.00    +0.056 S 
ATOM     11  O   UNL     1       4.579  -6.376   0.135  0.00  0.00    -0.153 OA
ATOM     12  O   UNL     1       2.823  -7.418   1.561  0.00  0.00    -0.153 OA
BRANCH  10  13
ATOM     13  N   UNL     1       2.295  -6.710  -0.747  0.00  0.00    -0.204 NA
ATOM     14  H   UNL     1       1.663  -6.029  -1.027  0.00  0.00    +0.144 HD
ATOM     15  H   UNL     1       2.374  -7.535  -1.251  0.00  0.00    +0.144 HD
ENDBRANCH  10  13
ENDBRANCH   8  10
ENDBRANCH   1   4
BRANCH   1  16
ATOM     16  O   UNL     1       3.460  -0.690  -0.586  0.00  0.00    -0.342 OA
BRANCH  16  20
ATOM     17  C   UNL     1      -0.189   1.220  -0.340  0.00  0.00    +0.001 A 
ATOM     18  C   UNL     1      -0.125  -0.160  -0.270  0.00  0.00    +0.004 A 
ATOM     19  C   UNL     1       1.095  -0.801  -0.352  0.00  0.00    +0.049 A 
ATOM     20  C   UNL     1       2.258  -0.061  -0.505  0.00  0.00    +0.168 A 
ATOM     21  C   UNL     1       2.192   1.323  -0.576  0.00  0.00    +0.099 A 
ATOM     22  C   UNL     1       0.969   1.960  -0.492  0.00  0.00    +0.016 A 
BRANCH  21  23
ATOM     23  C   UNL     1       3.453   2.131  -0.742  0.00  0.00    +0.421 C 
ATOM     24  F   UNL     1       3.124   3.479  -0.916  0.00  0.00    -0.166 F 
ATOM     25  F   UNL     1       4.251   1.989   0.398  0.00  0.00    -0.166 F 
ATOM     26  F   UNL     1       4.155   1.674  -1.863  0.00  0.00    -0.166 F 
ENDBRANCH  21  23
ENDBRANCH  16  20
ENDBRANCH   1  16
TORSDOF 6
