REMARK  Name = ZINC02198647
REMARK  11 active torsions:
REMARK  status: ('A' for Active; 'I' for Inactive)
REMARK    1  A    between atoms: C_1  and  C_2
REMARK    2  A    between atoms: C_2  and  C_4
REMARK    3  A    between atoms: C_2  and  N_12
REMARK    4  A    between atoms: C_4  and  C_5
REMARK    5  A    between atoms: C_5  and  C_6
REMARK    6  A    between atoms: C_13  and  C_15
REMARK    7  A    between atoms: N_26  and  C_29
REMARK    8  A    between atoms: C_27  and  N_28
REMARK    9  A    between atoms: C_32  and  C_35
REMARK   10  A    between atoms: C_35  and  C_36
REMARK   11  A    between atoms: C_35  and  C_37
REMARK                            x       y       z     vdW  Elec       q    Type
REMARK                         _______ _______ _______ _____ _____    ______ ____
ROOT
ATOM      1  C   UNL     1       0.758  -1.117   3.539  0.00  0.00    +0.104 A 
ATOM      2  C   UNL     1       1.451  -0.299   4.547  0.00  0.00    +0.123 A 
ATOM      3  C   UNL     1       1.990  -1.253   5.520  0.00  0.00    +0.166 A 
ATOM      4  N   UNL     1       2.672  -0.808   6.554  0.00  0.00    -0.225 NA
ATOM      5  C   UNL     1       2.868   0.508   6.707  0.00  0.00    +0.092 A 
ATOM      6  C   UNL     1       3.596   0.992   7.809  0.00  0.00    +0.030 A 
ATOM      7  C   UNL     1       3.790   2.331   7.957  0.00  0.00    +0.002 A 
ATOM      8  C   UNL     1       3.277   3.236   7.030  0.00  0.00    +0.002 A 
ATOM      9  C   UNL     1       2.568   2.806   5.952  0.00  0.00    +0.030 A 
ATOM     10  C   UNL     1       2.346   1.429   5.765  0.00  0.00    +0.090 A 
ATOM     11  N   UNL     1       1.649   0.994   4.708  0.00  0.00    -0.241 NA
ATOM     12  N   UNL     1       1.626  -2.515   5.091  0.00  0.00    -0.280 N 
ATOM     13  C   UNL     1       0.902  -2.442   3.938  0.00  0.00    +0.117 A 
ENDROOT
BRANCH  12  14
ATOM     14  C   UNL     1       1.951  -3.706   5.753  0.00  0.00    +0.050 A 
ATOM     15  C   UNL     1       3.278  -4.099   5.867  0.00  0.00    +0.026 A 
ATOM     16  C   UNL     1       3.596  -5.273   6.520  0.00  0.00    +0.006 A 
ATOM     17  C   UNL     1       2.594  -6.058   7.061  0.00  0.00    -0.045 A 
ATOM     18  C   UNL     1       1.272  -5.670   6.949  0.00  0.00    +0.006 A 
ATOM     19  C   UNL     1       0.948  -4.494   6.301  0.00  0.00    +0.026 A 
BRANCH  17  20
ATOM     20  C   UNL     1       2.944  -7.340   7.773  0.00  0.00    +0.013 C 
ATOM     21  C   UNL     1       2.455  -7.269   9.221  0.00  0.00    +0.012 C 
ATOM     22  C   UNL     1       2.271  -8.517   7.064  0.00  0.00    +0.012 C 
ENDBRANCH  17  20
ENDBRANCH  12  14
BRANCH   1  24
ATOM     23  N   UNL     1       0.711  -0.489   1.189  0.00  0.00    -0.309 N 
ATOM     24  C   UNL     1       0.051  -0.633   2.355  0.00  0.00    +0.250 C 
ATOM     25  O   UNL     1      -1.133  -0.360   2.423  0.00  0.00    -0.270 OA
ATOM     26  H   UNL     1       1.654  -0.707   1.135  0.00  0.00    +0.149 HD
BRANCH  23  28
ATOM     27  C   UNL     1      -0.019   1.526   0.010  0.00  0.00    +0.028 C 
ATOM     28  C   UNL     1       0.002  -0.004   0.002  0.00  0.00    +0.070 C 
BRANCH  28  29
ATOM     29  C   UNL     1       0.718  -0.497  -1.257  0.00  0.00    +0.026 C 
BRANCH  29  30
ATOM     30  C   UNL     1       0.630  -2.023  -1.329  0.00  0.00    +0.037 C 
BRANCH  30  31
ATOM     31  C   UNL     1       1.336  -2.509  -2.568  0.00  0.00    -0.047 A 
ATOM     32  C   UNL     1       0.638  -2.639  -3.755  0.00  0.00    +0.003 A 
ATOM     33  C   UNL     1       1.285  -3.085  -4.892  0.00  0.00    +0.000 A 
ATOM     34  C   UNL     1       2.630  -3.400  -4.843  0.00  0.00    +0.000 A 
ATOM     35  C   UNL     1       3.328  -3.270  -3.657  0.00  0.00    +0.000 A 
ATOM     36  C   UNL     1       2.682  -2.820  -2.521  0.00  0.00    +0.003 A 
ENDBRANCH  30  31
ENDBRANCH  29  30
ENDBRANCH  28  29
ENDBRANCH  23  28
ENDBRANCH   1  24
BRANCH  13  37
ATOM     37  N   UNL     1       0.392  -3.521   3.265  0.00  0.00    -0.343 N 
ATOM     38  H   UNL     1      -0.112  -3.389   2.447  0.00  0.00    +0.144 HD
ATOM     39  H   UNL     1       0.535  -4.418   3.607  0.00  0.00    +0.144 HD
ENDBRANCH  13  37
TORSDOF 8
