REMARK  Name = ZINC32747541
REMARK  2 active torsions:
REMARK  status: ('A' for Active; 'I' for Inactive)
REMARK    1  A    between atoms: C_9  and  C_12
REMARK    2  A    between atoms: C_15  and  C_17
REMARK                            x       y       z     vdW  Elec       q    Type
REMARK                         _______ _______ _______ _____ _____    ______ ____
ROOT
ATOM      1  C   UNL     1       0.021   1.058   0.203  0.00  0.00    +0.002 A 
ATOM      2  C   UNL     1      -1.196   1.714   0.169  0.00  0.00    +0.004 A 
ATOM      3  C   UNL     1      -1.242   3.093   0.077  0.00  0.00    +0.047 A 
ATOM      4  C   UNL     1      -0.065   3.824   0.008  0.00  0.00    +0.143 A 
ATOM      5  C   UNL     1       1.158   3.160   0.035  0.00  0.00    +0.079 A 
ATOM      6  C   UNL     1       1.199   1.778   0.133  0.00  0.00    +0.027 A 
ATOM      7  N   UNL     1       2.352   3.896  -0.041  0.00  0.00    -0.258 N 
ATOM      8  C   UNL     1       2.273   5.352   0.164  0.00  0.00    +0.168 C 
ATOM      9  C   UNL     1       1.033   5.859  -0.586  0.00  0.00    +0.276 C 
ATOM     10  O   UNL     1      -0.120   5.179  -0.084  0.00  0.00    -0.476 OA
ATOM     11  C   UNL     1       3.530   3.290  -0.293  0.00  0.00    +0.286 C 
ATOM     12  O   UNL     1       3.576   2.082  -0.427  0.00  0.00    -0.266 OA
ENDROOT
BRANCH  11  13
ATOM     13  C   UNL     1       4.758   4.089  -0.405  0.00  0.00    +0.191 A 
ATOM     14  C   UNL     1       5.970   3.610  -0.786  0.00  0.00    +0.063 A 
ATOM     15  C   UNL     1       6.885   4.751  -0.754  0.00  0.00    +0.022 A 
ATOM     16  C   UNL     1       8.244   4.917  -1.032  0.00  0.00    +0.031 A 
ATOM     17  C   UNL     1       8.816   6.152  -0.902  0.00  0.00    +0.042 A 
ATOM     18  C   UNL     1       8.055   7.240  -0.495  0.00  0.00    +0.023 A 
ATOM     19  C   UNL     1       6.713   7.096  -0.216  0.00  0.00    +0.048 A 
ATOM     20  C   UNL     1       6.109   5.850  -0.342  0.00  0.00    +0.136 A 
ATOM     21  O   UNL     1       4.850   5.412  -0.152  0.00  0.00    -0.450 OA
ATOM     22 CL   UNL     1      10.505   6.361  -1.246  0.00  0.00    -0.084 Cl
ENDBRANCH  11  13
BRANCH   9  23
ATOM     23  C   UNL     1       0.880   7.342  -0.366  0.00  0.00    +0.253 C 
ATOM     24  O   UNL     1      -0.080   7.769   0.239  0.00  0.00    -0.272 OA
ATOM     25  N   UNL     1       1.811   8.193  -0.840  0.00  0.00    -0.326 N 
ATOM     26  H   UNL     1       1.700   9.276  -0.679  0.00  0.00    +0.145 HD
ATOM     27  H   UNL     1       2.682   7.806  -1.389  0.00  0.00    +0.145 HD
ENDBRANCH   9  23
TORSDOF 2
