REMARK  Name = ZINC05959399
REMARK  4 active torsions:
REMARK  status: ('A' for Active; 'I' for Inactive)
REMARK    1  A    between atoms: C_1  and  O_2
REMARK    2  A    between atoms: O_2  and  C_3
REMARK    3  A    between atoms: C_6  and  C_9
REMARK    4  A    between atoms: C_12  and  C_20
REMARK                            x       y       z     vdW  Elec       q    Type
REMARK                         _______ _______ _______ _____ _____    ______ ____
ROOT
ATOM      1  C   UNL     1      -2.585   3.796   0.041  0.00  0.00    +0.100 C 
ATOM      2  N   UNL     1      -2.861   4.852  -0.651  0.00  0.00    -0.172 NA
ATOM      3  N   UNL     1      -1.857   5.527  -1.358  0.00  0.00    -0.263 N 
ATOM      4  C   UNL     1      -0.790   6.034  -0.637  0.00  0.00    +0.124 C 
ATOM      5  N   UNL     1      -0.005   5.265   0.050  0.00  0.00    -0.299 N 
ATOM      6  C   UNL     1      -0.054   3.900   0.056  0.00  0.00    +0.042 A 
ATOM      7  C   UNL     1      -1.245   3.165   0.059  0.00  0.00    +0.024 A 
ATOM      8  C   UNL     1      -1.190   1.771   0.072  0.00  0.00    +0.012 A 
ATOM      9  C   UNL     1       0.027   1.114   0.089  0.00  0.00    +0.001 A 
ATOM     10  C   UNL     1       1.204   1.838   0.081  0.00  0.00    +0.002 A 
ATOM     11  C   UNL     1       1.168   3.219   0.063  0.00  0.00    +0.024 A 
ATOM     12  H   UNL     1      -1.896   5.661  -2.450  0.00  0.00    +0.190 HD
ATOM     13  H   UNL     1       0.773   5.704   0.691  0.00  0.00    +0.154 HD
ENDROOT
BRANCH   4  14
ATOM     14  C   UNL     1      -0.538   7.489  -0.651  0.00  0.00    +0.015 A 
ATOM     15  C   UNL     1       0.529   8.023   0.075  0.00  0.00    +0.012 A 
ATOM     16  C   UNL     1       0.761   9.382   0.054  0.00  0.00    +0.016 A 
ATOM     17  C   UNL     1      -0.067  10.218  -0.676  0.00  0.00    +0.018 A 
ATOM     18  C   UNL     1      -1.131   9.695  -1.393  0.00  0.00    +0.016 A 
ATOM     19  C   UNL     1      -1.371   8.338  -1.385  0.00  0.00    +0.012 A 
ATOM     20 BR   UNL     1       0.254  12.081  -0.693  0.00  0.00    -0.050 Br
ENDBRANCH   4  14
BRANCH   1  24
ATOM     21  C   UNL     1      -5.674   2.049   2.380  0.00  0.00    +0.120 A 
ATOM     22  C   UNL     1      -4.344   1.829   2.714  0.00  0.00    +0.046 A 
ATOM     23  C   UNL     1      -3.339   2.394   1.958  0.00  0.00    +0.013 A 
ATOM     24  C   UNL     1      -3.660   3.188   0.855  0.00  0.00    +0.003 A 
ATOM     25  C   UNL     1      -4.999   3.411   0.526  0.00  0.00    +0.013 A 
ATOM     26  C   UNL     1      -5.997   2.839   1.284  0.00  0.00    +0.046 A 
BRANCH  21  28
ATOM     27  C   UNL     1      -8.007   1.758   2.728  0.00  0.00    +0.277 C 
ATOM     28  O   UNL     1      -6.662   1.491   3.127  0.00  0.00    -0.495 OA
ENDBRANCH  21  28
ENDBRANCH   1  24
TORSDOF 3
