REMARK  Name = ZINC15521303
REMARK  12 active torsions:
REMARK  status: ('A' for Active; 'I' for Inactive)
REMARK    1  A    between atoms: C_1  and  C_2
REMARK    2  A    between atoms: C_2  and  C_3
REMARK    3  A    between atoms: C_3  and  C_4
REMARK    4  A    between atoms: C_4  and  N_5
REMARK    5  A    between atoms: C_9  and  S_28
REMARK    6  A    between atoms: C_13  and  C_14
REMARK    7  A    between atoms: C_14  and  N_61
REMARK    8  A    between atoms: C_15  and  C_16
REMARK    9  A    between atoms: C_15  and  N_61
REMARK   10  A    between atoms: C_21  and  C_22
REMARK   11  A    between atoms: C_21  and  N_61
REMARK   12  A    between atoms: S_28  and  N_31
REMARK                            x       y       z     vdW  Elec       q    Type
REMARK                         _______ _______ _______ _____ _____    ______ ____
ROOT
ATOM      1  N   UNL     1      -0.720   1.236  -1.376  0.00  0.00    -0.329 N 
ATOM      2  C   UNL     1      -1.749   0.639  -2.076  0.00  0.00    +0.069 A 
ATOM      3  C   UNL     1      -2.392  -0.588  -1.989  0.00  0.00    +0.030 A 
ATOM      4  C   UNL     1      -3.419  -0.884  -2.860  0.00  0.00    +0.030 A 
ATOM      5  C   UNL     1      -3.817   0.038  -3.818  0.00  0.00    +0.107 A 
ATOM      6  C   UNL     1      -3.199   1.253  -3.914  0.00  0.00    +0.058 A 
ATOM      7  C   UNL     1      -2.155   1.575  -3.042  0.00  0.00    +0.091 A 
ATOM      8  N   UNL     1      -1.365   2.668  -2.891  0.00  0.00    -0.234 NA
ATOM      9  C   UNL     1      -0.526   2.470  -1.916  0.00  0.00    +0.094 A 
ENDROOT
BRANCH   5  10
ATOM     10  S   UNL     1      -5.131  -0.361  -4.921  0.00  0.00    +0.056 S 
ATOM     11  O   UNL     1      -5.916  -1.354  -4.275  0.00  0.00    -0.153 OA
ATOM     12  O   UNL     1      -5.678   0.873  -5.365  0.00  0.00    -0.153 OA
BRANCH  10  13
ATOM     13  N   UNL     1      -4.454  -1.084  -6.249  0.00  0.00    -0.204 NA
ATOM     14  H   UNL     1      -3.493  -1.209  -6.295  0.00  0.00    +0.144 HD
ATOM     15  H   UNL     1      -5.018  -1.381  -6.980  0.00  0.00    +0.144 HD
ENDBRANCH  10  13
ENDBRANCH   5  10
BRANCH   1  16
ATOM     16  C   UNL     1       0.028   0.649  -0.262  0.00  0.00    +0.123 C 
BRANCH  16  17
ATOM     17  C   UNL     1      -0.662   1.003   1.058  0.00  0.00    +0.021 C 
BRANCH  17  19
ATOM     18  C   UNL     1      -0.570   0.743   3.541  0.00  0.00    +0.004 C 
ATOM     19  C   UNL     1       0.119   0.389   2.222  0.00  0.00    -0.002 C 
ENDBRANCH  17  19
ENDBRANCH  16  17
ENDBRANCH   1  16
BRANCH   9  20
ATOM     20  C   UNL     1       0.510   3.461  -1.454  0.00  0.00    -0.003 C 
BRANCH  20  21
ATOM     21  N   UNL     1       1.766   3.220  -2.196  0.00  0.00    +0.389 N 
ATOM     22  H   UNL     1       2.011   2.226  -2.122  0.00  0.00    -0.081 HD
BRANCH  21  23
ATOM     23  C   UNL     1       1.583   3.564  -3.622  0.00  0.00    -0.035 C 
BRANCH  23  24
ATOM     24  C   UNL     1       2.724   2.975  -4.412  0.00  0.00    -0.027 A 
ATOM     25  C   UNL     1       2.845   1.734  -4.941  0.00  0.00    +0.009 A 
ATOM     26  C   UNL     1       3.994   1.411  -5.639  0.00  0.00    +0.008 A 
ATOM     27  C   UNL     1       4.970   2.342  -5.764  0.00  0.00    +0.045 A 
ATOM     28  S   UNL     1       4.271   3.731  -4.886  0.00  0.00    -0.103 S 
ENDBRANCH  23  24
ENDBRANCH  21  23
BRANCH  21  29
ATOM     29  C   UNL     1       2.858   4.029  -1.617  0.00  0.00    -0.046 C 
BRANCH  29  30
ATOM     30  C   UNL     1       3.336   3.358  -0.328  0.00  0.00    +0.102 C 
ATOM     31  C   UNL     1       4.461   4.190   0.327  0.00  0.00    +0.032 C 
ATOM     32  C   UNL     1       5.427   3.129   0.900  0.00  0.00    +0.030 C 
ATOM     33  C   UNL     1       4.771   1.782   0.524  0.00  0.00    +0.160 C 
ATOM     34  O   UNL     1       3.943   2.081  -0.621  0.00  0.00    -0.378 OA
ENDBRANCH  29  30
ENDBRANCH  21  29
ENDBRANCH  20  21
ENDBRANCH   9  20
TORSDOF 11
