REMARK  Name = ZINC27562721
REMARK  3 active torsions:
REMARK  status: ('A' for Active; 'I' for Inactive)
REMARK    1  A    between atoms: C_1  and  C_2
REMARK    2  A    between atoms: C_2  and  C_3
REMARK    3  A    between atoms: C_3  and  N_4
REMARK                            x       y       z     vdW  Elec       q    Type
REMARK                         _______ _______ _______ _____ _____    ______ ____
ROOT
ATOM      1  N   UNL     1       1.175   1.739   0.000  0.00  0.00    -0.298 N 
ATOM      2  C   UNL     1      -0.013   1.076   0.008  0.00  0.00    +0.202 A 
ATOM      3  N   UNL     1      -1.159   1.676   0.017  0.00  0.00    -0.235 NA
ATOM      4  C   UNL     1      -1.261   3.047   0.030  0.00  0.00    +0.107 A 
ATOM      5  C   UNL     1      -2.441   3.819   0.047  0.00  0.00    +0.081 A 
ATOM      6  C   UNL     1      -2.289   5.187   0.048  0.00  0.00    +0.070 A 
ATOM      7  S   UNL     1      -0.546   5.457   0.032  0.00  0.00    -0.073 S 
ATOM      8  C   UNL     1      -0.043   3.754   0.021  0.00  0.00    +0.105 A 
ATOM      9  C   UNL     1       1.179   3.094   0.006  0.00  0.00    +0.268 A 
ATOM     10  O   UNL     1       2.229   3.717  -0.001  0.00  0.00    -0.266 OA
ATOM     11  S   UNL     1      -3.611   6.338   0.060  0.00  0.00    -0.107 S 
ATOM     12  C   UNL     1      -4.950   5.353  -0.689  0.00  0.00    +0.171 C 
ATOM     13  C   UNL     1      -4.862   3.941  -0.186  0.00  0.00    +0.227 C 
ATOM     14  O   UNL     1      -5.912   3.364   0.006  0.00  0.00    -0.275 OA
ATOM     15  N   UNL     1      -3.749   3.258   0.069  0.00  0.00    -0.282 N 
ATOM     16  H   UNL     1      -3.887   2.194   0.308  0.00  0.00    +0.155 HD
ENDROOT
BRANCH   1  17
ATOM     17  C   UNL     1       2.437   0.995  -0.015  0.00  0.00    +0.126 C 
BRANCH  17  19
ATOM     18  C   UNL     1       4.181  -0.034  -1.479  0.00  0.00    +0.005 C 
ATOM     19  C   UNL     1       2.863   0.743  -1.463  0.00  0.00    +0.018 C 
ENDBRANCH  17  19
ENDBRANCH   1  17
TORSDOF 2
