REMARK  Name = ZINC12877994
REMARK  7 active torsions:
REMARK  status: ('A' for Active; 'I' for Inactive)
REMARK    1  A    between atoms: C_1  and  O_2
REMARK    2  A    between atoms: O_2  and  C_3
REMARK    3  A    between atoms: C_6  and  C_9
REMARK    4  A    between atoms: C_9  and  N_10
REMARK    5  A    between atoms: C_15  and  C_32
REMARK    6  A    between atoms: C_32  and  C_33
REMARK    7  A    between atoms: C_33  and  C_34
REMARK                            x       y       z     vdW  Elec       q    Type
REMARK                         _______ _______ _______ _____ _____    ______ ____
ROOT
ATOM      1  N   UNL     1       1.662   3.451  -2.726  0.00  0.00    -0.237 N 
ATOM      2  C   UNL     1       0.545   2.788  -3.046  0.00  0.00    +0.224 C 
ATOM      3  O   UNL     1      -0.303   3.176  -3.821  0.00  0.00    -0.275 OA
ATOM      4  C   UNL     1       0.504   1.479  -2.290  0.00  0.00    +0.073 C 
ATOM      5  C   UNL     1      -0.624   1.536  -1.239  0.00  0.00    -0.057 C 
ATOM      6  C   UNL     1       1.358   1.552  -0.003  0.00  0.00    +0.050 C 
ATOM      7  C   UNL     1       1.820   1.502  -1.463  0.00  0.00    +0.088 C 
ATOM      8  C   UNL     1       2.450   2.822  -1.847  0.00  0.00    +0.225 C 
ATOM      9  O   UNL     1       3.504   3.245  -1.423  0.00  0.00    -0.275 OA
ATOM     10  C   UNL     1       2.272   0.767   0.895  0.00  0.00    -0.026 A 
ATOM     11  C   UNL     1       2.666  -0.552   0.926  0.00  0.00    +0.024 A 
ATOM     12  C   UNL     1       3.542  -0.990   1.905  0.00  0.00    +0.041 A 
ATOM     13  C   UNL     1       4.019  -0.099   2.850  0.00  0.00    +0.022 A 
ATOM     14  C   UNL     1       3.628   1.223   2.821  0.00  0.00    +0.025 A 
ATOM     15  C   UNL     1       2.748   1.672   1.839  0.00  0.00    +0.036 A 
ATOM     16  N   UNL     1       2.214   2.942   1.603  0.00  0.00    -0.286 N 
ATOM     17  C   UNL     1       1.390   2.956   0.538  0.00  0.00    +0.211 C 
ATOM     18  O   UNL     1       0.790   3.914   0.099  0.00  0.00    -0.277 OA
ATOM     19 CL   UNL     1       4.040  -2.653   1.947  0.00  0.00    -0.084 Cl
ATOM     20  H   UNL     1       2.415   3.722   2.143  0.00  0.00    +0.155 HD
ATOM     21  N   UNL     1       0.004   1.027  -0.018  0.00  0.00    +0.394 N 
ATOM     22  H   UNL     1       0.021   0.000  -0.030  0.00  0.00    -0.083 HD
ATOM     23  H   UNL     1      -0.512   1.351   0.809  0.00  0.00    -0.083 HD
ENDROOT
BRANCH   1  24
ATOM     24  C   UNL     1       1.995   4.761  -3.293  0.00  0.00    +0.151 C 
BRANCH  24  28
ATOM     25  C   UNL     1       0.377   7.841  -0.812  0.00  0.00    +0.120 A 
ATOM     26  C   UNL     1       1.656   7.358  -0.575  0.00  0.00    +0.046 A 
ATOM     27  C   UNL     1       2.177   6.362  -1.379  0.00  0.00    +0.009 A 
ATOM     28  C   UNL     1       1.424   5.847  -2.418  0.00  0.00    -0.029 A 
ATOM     29  C   UNL     1       0.151   6.330  -2.659  0.00  0.00    +0.009 A 
ATOM     30  C   UNL     1      -0.376   7.321  -1.855  0.00  0.00    +0.046 A 
BRANCH  25  32
ATOM     31  C   UNL     1      -1.461   9.269  -0.325  0.00  0.00    +0.277 C 
ATOM     32  O   UNL     1      -0.138   8.821  -0.023  0.00  0.00    -0.495 OA
ENDBRANCH  25  32
ENDBRANCH  24  28
ENDBRANCH   1  24
BRANCH   5  33
ATOM     33  C   UNL     1      -1.800   0.657  -1.671  0.00  0.00    -0.006 C 
BRANCH  33  34
ATOM     34  C   UNL     1      -2.924   0.766  -0.639  0.00  0.00    +0.094 C 
BRANCH  34  35
ATOM     35  C   UNL     1      -4.082  -0.100  -1.065  0.00  0.00    +0.210 C 
ATOM     36  O   UNL     1      -4.014  -0.740  -2.092  0.00  0.00    -0.276 OA
ATOM     37  N   UNL     1      -5.192  -0.162  -0.303  0.00  0.00    -0.329 N 
ATOM     38  H   UNL     1      -5.246   0.351   0.518  0.00  0.00    +0.145 HD
ATOM     39  H   UNL     1      -5.938  -0.719  -0.577  0.00  0.00    +0.145 HD
ENDBRANCH  34  35
ENDBRANCH  33  34
ENDBRANCH   5  33
TORSDOF 6
