REMARK  Name = ZINC36500733
REMARK  12 active torsions:
REMARK  status: ('A' for Active; 'I' for Inactive)
REMARK    1  A    between atoms: C_1  and  C_2
REMARK    2  A    between atoms: C_2  and  C_3
REMARK    3  A    between atoms: C_2  and  C_4
REMARK    4  A    between atoms: C_2  and  N_5
REMARK    5  A    between atoms: C_6  and  C_8
REMARK    6  A    between atoms: C_8  and  C_10
REMARK    7  A    between atoms: C_8  and  N_24
REMARK    8  A    between atoms: N_24  and  C_25
REMARK    9  A    between atoms: C_25  and  C_26
REMARK   10  A    between atoms: C_31  and  C_33
REMARK   11  A    between atoms: C_37  and  O_40
REMARK   12  A    between atoms: C_38  and  O_39
REMARK                            x       y       z     vdW  Elec       q    Type
REMARK                         _______ _______ _______ _____ _____    ______ ____
ROOT
ATOM      1  C   UNL     1       3.216   0.825  -3.752  0.00  0.00    +0.194 C 
ENDROOT
BRANCH   1   2
ATOM      2  C   UNL     1       2.705  -0.586  -3.614  0.00  0.00    -0.010 A 
ATOM      3  C   UNL     1       3.087  -1.324  -2.551  0.00  0.00    +0.015 A 
ATOM      4  C   UNL     1       2.635  -2.653  -2.376  0.00  0.00    -0.017 A 
ATOM      5  C   UNL     1       3.038  -3.412  -1.268  0.00  0.00    +0.008 A 
ATOM      6  C   UNL     1       2.586  -4.691  -1.124  0.00  0.00    +0.001 A 
ATOM      7  C   UNL     1       1.731  -5.256  -2.062  0.00  0.00    +0.001 A 
ATOM      8  C   UNL     1       1.321  -4.543  -3.152  0.00  0.00    +0.009 A 
ATOM      9  C   UNL     1       1.765  -3.231  -3.327  0.00  0.00    -0.010 A 
ATOM     10  C   UNL     1       1.351  -2.429  -4.482  0.00  0.00    -0.010 A 
ATOM     11  C   UNL     1       1.832  -1.106  -4.597  0.00  0.00    -0.012 A 
ATOM     12  C   UNL     1       1.437  -0.328  -5.695  0.00  0.00    +0.009 A 
ATOM     13  C   UNL     1       0.593  -0.855  -6.629  0.00  0.00    +0.001 A 
ATOM     14  C   UNL     1       0.117  -2.155  -6.509  0.00  0.00    +0.001 A 
ATOM     15  C   UNL     1       0.493  -2.942  -5.457  0.00  0.00    +0.009 A 
ENDBRANCH   1   2
BRANCH   1  17
ATOM     16  N   UNL     1       0.950   1.718  -4.187  0.00  0.00    -0.309 N 
ATOM     17  C   UNL     1       2.095   1.794  -3.479  0.00  0.00    +0.239 C 
ATOM     18  O   UNL     1       2.222   2.643  -2.622  0.00  0.00    -0.273 OA
ATOM     19  H   UNL     1       0.816   0.991  -4.815  0.00  0.00    +0.149 HD
BRANCH  16  21
ATOM     20  C   UNL     1       0.471   4.109  -4.367  0.00  0.00    +0.031 C 
ATOM     21  C   UNL     1      -0.091   2.732  -4.008  0.00  0.00    +0.026 C 
ATOM     22  C   UNL     1      -0.554   2.736  -2.549  0.00  0.00    +0.031 C 
ATOM     23  C   UNL     1      -1.278   2.412  -4.919  0.00  0.00    +0.031 C 
ENDBRANCH  16  21
ENDBRANCH   1  17
BRANCH   1  24
ATOM     24  N   UNL     1       4.300   1.049  -2.792  0.00  0.00    -0.274 N 
ATOM     25  C   UNL     1       5.553   0.647  -3.085  0.00  0.00    +0.252 C 
ATOM     26  O   UNL     1       6.380   0.544  -2.200  0.00  0.00    -0.270 OA
BRANCH  25  27
ATOM     27  C   UNL     1       5.920   0.334  -4.479  0.00  0.00    +0.082 A 
ATOM     28  C   UNL     1       5.023  -0.349  -5.306  0.00  0.00    +0.017 A 
ATOM     29  C   UNL     1       5.370  -0.639  -6.607  0.00  0.00    +0.005 A 
ATOM     30  C   UNL     1       6.605  -0.257  -7.104  0.00  0.00    +0.049 A 
ATOM     31  C   UNL     1       7.504   0.420  -6.298  0.00  0.00    +0.159 A 
ATOM     32  C   UNL     1       7.166   0.725  -4.983  0.00  0.00    +0.171 A 
BRANCH  32  33
ATOM     33  O   UNL     1       8.043   1.394  -4.191  0.00  0.00    -0.503 OA
ATOM     34  H   UNL     1       8.644   0.820  -3.698  0.00  0.00    +0.292 HD
ENDBRANCH  32  33
BRANCH  31  35
ATOM     35  O   UNL     1       8.715   0.791  -6.793  0.00  0.00    -0.503 OA
ATOM     36  H   UNL     1       8.722   1.669  -7.199  0.00  0.00    +0.292 HD
ENDBRANCH  31  35
ENDBRANCH  25  27
BRANCH  24  37
ATOM     37  C   UNL     1       4.022   1.708  -1.514  0.00  0.00    +0.183 C 
BRANCH  37  38
ATOM     38  C   UNL     1       4.433   3.156  -1.596  0.00  0.00    +0.122 A 
ATOM     39  C   UNL     1       3.605   4.214  -1.537  0.00  0.00    +0.046 A 
ATOM     40  C   UNL     1       4.409   5.371  -1.653  0.00  0.00    +0.041 A 
ATOM     41  C   UNL     1       5.681   4.950  -1.775  0.00  0.00    +0.195 A 
ATOM     42  O   UNL     1       5.690   3.608  -1.734  0.00  0.00    -0.466 OA
ENDBRANCH  37  38
ENDBRANCH  24  37
ENDBRANCH   1  24
TORSDOF 9
