REMARK  Name = ZINC24458009
REMARK  9 active torsions:
REMARK  status: ('A' for Active; 'I' for Inactive)
REMARK    1  A    between atoms: C_1  and  C_2
REMARK    2  A    between atoms: C_6  and  N_9
REMARK    3  A    between atoms: C_7  and  C_8
REMARK    4  A    between atoms: C_19  and  S_20
REMARK    5  A    between atoms: S_20  and  C_21
REMARK    6  A    between atoms: C_21  and  C_23
REMARK    7  A    between atoms: C_21  and  C_26
REMARK    8  A    between atoms: C_23  and  C_24
REMARK    9  A    between atoms: C_23  and  C_25
REMARK                            x       y       z     vdW  Elec       q    Type
REMARK                         _______ _______ _______ _____ _____    ______ ____
ROOT
ATOM      1  N   UNL     1       0.052  -2.844   2.419  0.00  0.00    -0.255 N 
ATOM      2  C   UNL     1      -1.097  -3.369   2.902  0.00  0.00    +0.267 A 
ATOM      3  O   UNL     1      -2.179  -3.046   2.446  0.00  0.00    -0.267 OA
ATOM      4  C   UNL     1      -0.993  -4.343   3.996  0.00  0.00    +0.065 A 
ATOM      5  C   UNL     1      -2.120  -4.939   4.559  0.00  0.00    +0.017 A 
ATOM      6  C   UNL     1      -1.973  -5.841   5.576  0.00  0.00    +0.021 A 
ATOM      7  C   UNL     1      -0.710  -6.171   6.055  0.00  0.00    +0.043 A 
ATOM      8  C   UNL     1       0.421  -5.597   5.516  0.00  0.00    +0.048 A 
ATOM      9  C   UNL     1       0.296  -4.673   4.476  0.00  0.00    +0.080 A 
ATOM     10  N   UNL     1       1.379  -4.084   3.916  0.00  0.00    -0.223 NA
ATOM     11  C   UNL     1       1.260  -3.221   2.937  0.00  0.00    +0.177 A 
ATOM     12 CL   UNL     1      -0.556  -7.320   7.347  0.00  0.00    -0.083 Cl
ENDROOT
BRANCH   1  18
ATOM     13  C   UNL     1      -0.226   1.836   0.933  0.00  0.00    +0.044 C 
ATOM     14  C   UNL     1      -0.130   0.363   0.627  0.00  0.00    -0.046 A 
ATOM     15  C   UNL     1      -0.089  -0.068  -0.687  0.00  0.00    +0.004 A 
ATOM     16  C   UNL     1      -0.000  -1.418  -0.972  0.00  0.00    +0.002 A 
ATOM     17  C   UNL     1       0.047  -2.340   0.055  0.00  0.00    +0.026 A 
ATOM     18  C   UNL     1       0.005  -1.911   1.375  0.00  0.00    +0.055 A 
ATOM     19  C   UNL     1      -0.078  -0.554   1.658  0.00  0.00    -0.024 A 
ATOM     20  C   UNL     1      -0.118  -0.083   3.089  0.00  0.00    +0.046 C 
ENDBRANCH   1  18
BRANCH  11  21
ATOM     21  S   UNL     1       2.724  -2.509   2.263  0.00  0.00    -0.074 S 
BRANCH  21  22
ATOM     22  C   UNL     1       4.050  -3.136   3.331  0.00  0.00    +0.143 C 
BRANCH  22  23
ATOM     23  C   UNL     1       3.912  -2.536   4.707  0.00  0.00    +0.234 C 
ATOM     24  O   UNL     1       3.269  -1.520   4.864  0.00  0.00    -0.274 OA
ATOM     25  N   UNL     1       4.503  -3.129   5.763  0.00  0.00    -0.239 N 
ATOM     26  C   UNL     1       4.380  -2.593   6.993  0.00  0.00    +0.303 C 
ATOM     27  O   UNL     1       3.736  -1.575   7.151  0.00  0.00    -0.253 OA
ATOM     28  N   UNL     1       4.971  -3.187   8.049  0.00  0.00    -0.313 N 
ATOM     29  H   UNL     1       5.017  -3.942   5.638  0.00  0.00    +0.159 HD
ATOM     30  H   UNL     1       5.485  -3.999   7.924  0.00  0.00    +0.146 HD
ATOM     31  H   UNL     1       4.882  -2.801   8.935  0.00  0.00    +0.146 HD
ENDBRANCH  22  23
BRANCH  22  32
ATOM     32  C   UNL     1       5.407  -2.749   2.740  0.00  0.00    +0.005 C 
ATOM     33  C   UNL     1       6.524  -3.259   3.652  0.00  0.00    +0.009 C 
ATOM     34  C   UNL     1       5.556  -3.376   1.352  0.00  0.00    +0.009 C 
ENDBRANCH  22  32
ENDBRANCH  21  22
ENDBRANCH  11  21
TORSDOF 5
