REMARK  Name = ZINC01640589
REMARK  3 active torsions:
REMARK  status: ('A' for Active; 'I' for Inactive)
REMARK    1  A    between atoms: C_4  and  N_19
REMARK    2  A    between atoms: C_5  and  C_7
REMARK    3  A    between atoms: C_7  and  N_8
REMARK                            x       y       z     vdW  Elec       q    Type
REMARK                         _______ _______ _______ _____ _____    ______ ____
ROOT
ATOM      1  N   UNL     1       1.165   4.057  -1.392  0.00  0.00    -0.230 N 
ATOM      2  C   UNL     1       2.311   4.259  -2.068  0.00  0.00    +0.254 C 
ATOM      3  O   UNL     1       3.430   4.071  -1.636  0.00  0.00    -0.270 OA
ATOM      4  C   UNL     1       1.979   4.744  -3.424  0.00  0.00    +0.049 A 
ATOM      5  C   UNL     1       2.728   5.108  -4.532  0.00  0.00    +0.014 A 
ATOM      6  C   UNL     1       2.087   5.537  -5.683  0.00  0.00    +0.001 A 
ATOM      7  C   UNL     1       0.707   5.605  -5.734  0.00  0.00    +0.001 A 
ATOM      8  C   UNL     1      -0.055   5.245  -4.633  0.00  0.00    +0.014 A 
ATOM      9  C   UNL     1       0.572   4.814  -3.475  0.00  0.00    +0.049 A 
ATOM     10  C   UNL     1       0.096   4.364  -2.150  0.00  0.00    +0.254 C 
ATOM     11  O   UNL     1      -1.065   4.284  -1.803  0.00  0.00    -0.270 OA
ENDROOT
BRANCH   1  12
ATOM     12  C   UNL     1       1.091   3.574  -0.011  0.00  0.00    +0.154 C 
BRANCH  12  17
ATOM     13  C   UNL     1       0.909  -0.005  -1.199  0.00  0.00    +0.000 A 
ATOM     14  C   UNL     1       0.707  -0.685  -0.012  0.00  0.00    +0.002 A 
ATOM     15  C   UNL     1       0.628   0.009   1.179  0.00  0.00    +0.023 A 
ATOM     16  C   UNL     1       0.752   1.393   1.183  0.00  0.00    +0.029 A 
ATOM     17  C   UNL     1       0.955   2.073  -0.011  0.00  0.00    -0.009 A 
ATOM     18  C   UNL     1       1.033   1.371  -1.198  0.00  0.00    +0.007 A 
BRANCH  16  19
ATOM     19  N   UNL     1       0.673   2.099   2.385  0.00  0.00    -0.358 N 
ATOM     20  H   UNL     1       0.442   1.636   3.206  0.00  0.00    +0.142 HD
ATOM     21  H   UNL     1       0.849   3.053   2.400  0.00  0.00    +0.142 HD
ENDBRANCH  16  19
ENDBRANCH  12  17
ENDBRANCH   1  12
TORSDOF 3
