REMARK  Name = ZINC63627230
REMARK  7 active torsions:
REMARK  status: ('A' for Active; 'I' for Inactive)
REMARK    1  A    between atoms: C_1  and  C_2
REMARK    2  A    between atoms: C_2  and  C_3
REMARK    3  A    between atoms: N_5  and  C_6
REMARK    4  A    between atoms: C_9  and  S_12
REMARK    5  A    between atoms: S_12  and  N_15
REMARK    6  A    between atoms: N_15  and  C_16
REMARK    7  A    between atoms: C_19  and  C_22
REMARK                            x       y       z     vdW  Elec       q    Type
REMARK                         _______ _______ _______ _____ _____    ______ ____
ROOT
ATOM      1  N   UNL     1       2.427  -4.247   7.688  0.00  0.00    -0.216 N 
ATOM      2  H   UNL     1       2.512  -3.643   8.443  0.00  0.00    +0.174 HD
ENDROOT
BRANCH   1   3
ATOM      3  C   UNL     1       1.421  -5.216   7.678  0.00  0.00    +0.048 A 
ATOM      4  C   UNL     1       0.661  -5.418   6.533  0.00  0.00    +0.025 A 
ATOM      5  C   UNL     1      -0.332  -6.377   6.527  0.00  0.00    +0.008 A 
ATOM      6  C   UNL     1      -0.571  -7.136   7.658  0.00  0.00    -0.021 A 
ATOM      7  C   UNL     1       0.185  -6.938   8.799  0.00  0.00    +0.008 A 
ATOM      8  C   UNL     1       1.183  -5.984   8.811  0.00  0.00    +0.025 A 
BRANCH   6   9
ATOM      9  C   UNL     1      -1.656  -8.182   7.647  0.00  0.00    +0.133 C 
ATOM     10  C   UNL     1      -2.880  -7.670   8.374  0.00  0.00    +0.012 C 
ATOM     11  C   UNL     1      -3.079  -8.515   9.412  0.00  0.00    -0.004 A 
ATOM     12  C   UNL     1      -4.089  -8.561  10.476  0.00  0.00    +0.010 A 
ATOM     13  C   UNL     1      -4.029  -9.551  11.395  0.00  0.00    +0.001 A 
ATOM     14  C   UNL     1      -3.028 -10.532  11.357  0.00  0.00    +0.002 A 
ATOM     15  C   UNL     1      -2.066 -10.556  10.410  0.00  0.00    +0.026 A 
ATOM     16  C   UNL     1      -2.033  -9.562   9.394  0.00  0.00    +0.043 A 
ATOM     17  N   UNL     1      -1.218  -9.373   8.383  0.00  0.00    -0.374 N 
ATOM     18  H   UNL     1      -0.453  -9.927   8.159  0.00  0.00    +0.161 HD
ENDBRANCH   6   9
ENDBRANCH   1   3
BRANCH   1  19
ATOM     19  S   UNL     1       3.475  -4.127   6.411  0.00  0.00    +0.072 S 
ATOM     20  O   UNL     1       4.410  -3.111   6.747  0.00  0.00    -0.150 OA
ATOM     21  O   UNL     1       2.678  -4.071   5.236  0.00  0.00    -0.150 OA
BRANCH  19  25
ATOM     22  C   UNL     1       5.797  -8.010   6.216  0.00  0.00    +0.033 A 
ATOM     23  C   UNL     1       4.662  -7.838   5.434  0.00  0.00    +0.025 A 
ATOM     24  C   UNL     1       3.957  -6.652   5.496  0.00  0.00    +0.030 A 
ATOM     25  C   UNL     1       4.378  -5.638   6.335  0.00  0.00    +0.109 A 
ATOM     26  C   UNL     1       5.508  -5.806   7.115  0.00  0.00    +0.030 A 
ATOM     27  C   UNL     1       6.215  -6.992   7.062  0.00  0.00    +0.025 A 
BRANCH  22  30
ATOM     28  C   UNL     1       7.089  -9.708   7.268  0.00  0.00    +0.217 C 
ATOM     29  O   UNL     1       7.058  -9.075   8.303  0.00  0.00    -0.275 OA
ATOM     30  N   UNL     1       6.514  -9.210   6.156  0.00  0.00    -0.286 N 
ATOM     31  H   UNL     1       6.598  -9.683   5.313  0.00  0.00    +0.155 HD
BRANCH  28  33
ATOM     32  C   UNL     1       8.336 -11.379   8.611  0.00  0.00    +0.013 C 
ATOM     33  C   UNL     1       7.772 -11.051   7.227  0.00  0.00    +0.093 C 
ENDBRANCH  28  33
ENDBRANCH  22  30
ENDBRANCH  19  25
ENDBRANCH   1  19
TORSDOF 6
