REMARK  Name = ZINC20285987
REMARK  18 active torsions:
REMARK  status: ('A' for Active; 'I' for Inactive)
REMARK    1  A    between atoms: C_1  and  C_2
REMARK    2  A    between atoms: C_2  and  C_4
REMARK    3  A    between atoms: C_2  and  N_29
REMARK    4  A    between atoms: C_4  and  N_5
REMARK    5  A    between atoms: N_10  and  C_11
REMARK    6  A    between atoms: N_10  and  C_24
REMARK    7  A    between atoms: C_11  and  C_12
REMARK    8  A    between atoms: C_15  and  O_22
REMARK    9  A    between atoms: C_16  and  O_20
REMARK   10  A    between atoms: C_17  and  O_18
REMARK   11  A    between atoms: O_18  and  C_19
REMARK   12  A    between atoms: O_20  and  C_21
REMARK   13  A    between atoms: O_22  and  C_23
REMARK   14  A    between atoms: N_29  and  C_30
REMARK   15  A    between atoms: C_32  and  C_38
REMARK   16  A    between atoms: C_32  and  C_39
REMARK   17  A    between atoms: C_34  and  C_36
REMARK   18  A    between atoms: C_34  and  C_37
REMARK                            x       y       z     vdW  Elec       q    Type
REMARK                         _______ _______ _______ _____ _____    ______ ____
ROOT
ATOM      1  N   UNL     1      -1.983  -1.503  -0.677  0.00  0.00    -0.258 NA
ATOM      2  C   UNL     1      -2.742  -2.255   0.065  0.00  0.00    +0.193 C 
ATOM      3  N   UNL     1      -3.401  -2.221   1.300  0.00  0.00    -0.200 NA
ATOM      4  C   UNL     1      -4.107  -3.338   1.628  0.00  0.00    +0.167 C 
ATOM      5  S   UNL     1      -3.498  -3.864   0.042  0.00  0.00    -0.015 S 
ATOM      6  N   UNL     1      -4.884  -3.808   2.645  0.00  0.00    -0.302 N 
ENDROOT
BRANCH   6   7
ATOM      7  C   UNL     1      -5.469  -5.148   2.560  0.00  0.00    +0.076 C 
ATOM      8  C   UNL     1      -4.357  -6.199   2.366  0.00  0.00    +0.022 C 
ATOM      9  C   UNL     1      -4.981  -7.238   1.401  0.00  0.00    +0.002 C 
ATOM     10  C   UNL     1      -5.800  -6.352   0.429  0.00  0.00    +0.002 C 
ATOM     11  C   UNL     1      -6.386  -5.245   1.328  0.00  0.00    +0.022 C 
ENDBRANCH   6   7
BRANCH   1  12
ATOM     12  C   UNL     1      -1.596  -0.168  -0.213  0.00  0.00    +0.162 C 
BRANCH  12  14
ATOM     13  C   UNL     1       0.338   1.302   0.372  0.00  0.00    +0.026 C 
ATOM     14  C   UNL     1      -0.083  -0.124   0.009  0.00  0.00    +0.072 C 
BRANCH  14  15
ATOM     15  N   UNL     1       0.605  -0.538  -1.221  0.00  0.00    -0.309 NA
ATOM     16  H   UNL     1       0.006  -0.425  -2.026  0.00  0.00    +0.123 HD
BRANCH  15  17
ATOM     17  C   UNL     1       1.087  -1.925  -1.114  0.00  0.00    +0.051 C 
ATOM     18  C   UNL     1       2.477  -1.925  -0.474  0.00  0.00    +0.006 C 
ATOM     19  C   UNL     1       2.998  -3.358  -0.367  0.00  0.00    -0.072 C 
ATOM     20  N   UNL     1       2.973  -4.048  -1.649  0.00  0.00    +0.386 N 
ATOM     21  C   UNL     1       1.763  -3.945  -2.448  0.00  0.00    -0.072 C 
ATOM     22  C   UNL     1       1.204  -2.528  -2.514  0.00  0.00    +0.006 C 
ATOM     23  C   UNL     1       0.680  -4.912  -1.961  0.00  0.00    -0.010 C 
ATOM     24  C   UNL     1       2.124  -4.363  -3.893  0.00  0.00    -0.010 C 
ATOM     25  C   UNL     1       2.230  -4.121   0.711  0.00  0.00    -0.010 C 
ATOM     26  C   UNL     1       4.473  -3.277   0.091  0.00  0.00    -0.010 C 
ATOM     27  H   UNL     1       3.759  -3.709  -2.210  0.00  0.00    -0.084 HD
ATOM     28  H   UNL     1       3.168  -5.038  -1.484  0.00  0.00    -0.084 HD
ENDBRANCH  15  17
ENDBRANCH  14  15
ENDBRANCH  12  14
ENDBRANCH   1  12
BRANCH   6  29
ATOM     29  C   UNL     1      -5.133  -2.972   3.822  0.00  0.00    +0.146 C 
BRANCH  29  30
ATOM     30  C   UNL     1      -6.371  -2.143   3.597  0.00  0.00    +0.015 A 
ATOM     31  C   UNL     1      -6.254  -0.821   3.208  0.00  0.00    +0.012 A 
ATOM     32  C   UNL     1      -7.386  -0.056   3.000  0.00  0.00    +0.050 A 
ATOM     33  C   UNL     1      -8.644  -0.612   3.181  0.00  0.00    +0.165 A 
ATOM     34  C   UNL     1      -8.765  -1.940   3.571  0.00  0.00    +0.204 A 
ATOM     35  C   UNL     1      -7.624  -2.707   3.775  0.00  0.00    +0.170 A 
BRANCH  35  36
ATOM     36  O   UNL     1      -7.738  -4.009   4.152  0.00  0.00    -0.491 OA
ATOM     37  C   UNL     1      -7.778  -4.277   5.555  0.00  0.00    +0.277 C 
ENDBRANCH  35  36
BRANCH  34  38
ATOM     38  O   UNL     1      -9.998  -2.489   3.750  0.00  0.00    -0.488 OA
ATOM     39  C   UNL     1     -10.603  -3.108   2.614  0.00  0.00    +0.277 C 
ENDBRANCH  34  38
BRANCH  33  40
ATOM     40  O   UNL     1      -9.758   0.142   2.977  0.00  0.00    -0.491 OA
ATOM     41  C   UNL     1      -9.557   1.499   2.577  0.00  0.00    +0.277 C 
ENDBRANCH  33  40
ENDBRANCH  29  30
ENDBRANCH   6  29
TORSDOF 10
