REMARK  Name = ZINC07488892
REMARK  2 active torsions:
REMARK  status: ('A' for Active; 'I' for Inactive)
REMARK    1  A    between atoms: C_6  and  C_7
REMARK    2  A    between atoms: C_8  and  C_9
REMARK                            x       y       z     vdW  Elec       q    Type
REMARK                         _______ _______ _______ _____ _____    ______ ____
ROOT
ATOM      1  C   UNL     1      -2.508  -2.849  -0.202  0.00  0.00    +0.176 A 
ATOM      2  N   UNL     1      -3.663  -2.184  -0.191  0.00  0.00    -0.188 NA
ATOM      3  C   UNL     1      -4.826  -2.800  -0.280  0.00  0.00    +0.282 A 
ATOM      4  O   UNL     1      -5.980  -2.091  -0.266  0.00  0.00    -0.265 OA
ATOM      5  C   UNL     1      -4.854  -4.217  -0.390  0.00  0.00    +0.077 A 
ATOM      6  C   UNL     1      -6.025  -5.101  -0.499  0.00  0.00    -0.023 A 
ATOM      7  C   UNL     1      -5.785  -6.420  -0.592  0.00  0.00    -0.004 A 
ATOM      8  S   UNL     1      -4.014  -6.573  -0.545  0.00  0.00    -0.073 S 
ATOM      9  C   UNL     1      -3.598  -4.857  -0.396  0.00  0.00    +0.116 A 
ATOM     10  N   UNL     1      -2.476  -4.174  -0.309  0.00  0.00    -0.219 NA
ATOM     11  C   UNL     1      -7.055  -7.222  -0.693  0.00  0.00    +0.043 C 
ATOM     12  C   UNL     1      -8.162  -6.257  -0.217  0.00  0.00    +0.010 C 
ATOM     13  C   UNL     1      -7.541  -4.884  -0.538  0.00  0.00    +0.037 C 
ENDROOT
BRANCH   1  15
ATOM     14  C   UNL     1      -1.262  -0.761   0.010  0.00  0.00    +0.031 C 
ATOM     15  C   UNL     1      -1.244  -2.101  -0.099  0.00  0.00    +0.086 C 
ATOM     16 CL   UNL     1       0.271  -2.950  -0.118  0.00  0.00    -0.080 Cl
BRANCH  14  22
ATOM     17  C   UNL     1       0.174   1.254  -0.253  0.00  0.00    +0.011 A 
ATOM     18  C   UNL     1       1.345   1.937  -0.003  0.00  0.00    +0.042 A 
ATOM     19  C   UNL     1       2.338   1.357   0.771  0.00  0.00    +0.158 A 
ATOM     20  C   UNL     1       2.160   0.086   1.299  0.00  0.00    +0.159 A 
ATOM     21  C   UNL     1       0.991  -0.608   1.055  0.00  0.00    +0.049 A 
ATOM     22  C   UNL     1      -0.013  -0.026   0.275  0.00  0.00    -0.021 A 
ATOM     23  F   UNL     1       3.132  -0.474   2.052  0.00  0.00    -0.202 F 
ATOM     24  F   UNL     1       3.483   2.032   1.012  0.00  0.00    -0.202 F 
ENDBRANCH  14  22
ENDBRANCH   1  15
TORSDOF 2
