REMARK  Name = ZINC09385477
REMARK  8 active torsions:
REMARK  status: ('A' for Active; 'I' for Inactive)
REMARK    1  A    between atoms: C_4  and  C_7
REMARK    2  A    between atoms: C_7  and  N_8
REMARK    3  A    between atoms: C_9  and  N_35
REMARK    4  A    between atoms: C_10  and  N_17
REMARK    5  A    between atoms: N_17  and  C_18
REMARK    6  A    between atoms: C_18  and  C_19
REMARK    7  A    between atoms: C_24  and  C_26
REMARK    8  A    between atoms: C_26  and  C_27
REMARK                            x       y       z     vdW  Elec       q    Type
REMARK                         _______ _______ _______ _____ _____    ______ ____
ROOT
ATOM      1  N   UNL     1      -0.564  -4.555  -2.390  0.00  0.00    -0.276 N 
ATOM      2  C   UNL     1      -1.167  -3.548  -1.673  0.00  0.00    +0.128 A 
ATOM      3  C   UNL     1      -1.003  -2.240  -2.080  0.00  0.00    +0.140 A 
ATOM      4  C   UNL     1      -0.212  -1.975  -3.214  0.00  0.00    +0.277 A 
ATOM      5  O   UNL     1      -0.047  -0.828  -3.592  0.00  0.00    -0.266 OA
ATOM      6  N   UNL     1       0.361  -2.998  -3.878  0.00  0.00    -0.273 N 
ATOM      7  H   UNL     1       0.923  -2.811  -4.684  0.00  0.00    +0.173 HD
ATOM      8  C   UNL     1       0.185  -4.268  -3.470  0.00  0.00    +0.331 A 
ATOM      9  O   UNL     1       0.714  -5.172  -4.088  0.00  0.00    -0.246 OA
ENDROOT
BRANCH   3  10
ATOM     10  N   UNL     1      -1.612  -1.185  -1.368  0.00  0.00    -0.257 N 
ATOM     11  C   UNL     1      -2.579  -0.447  -1.952  0.00  0.00    +0.225 C 
ATOM     12  O   UNL     1      -2.988  -0.746  -3.054  0.00  0.00    -0.275 OA
BRANCH  10  13
ATOM     13  C   UNL     1      -1.195  -0.892   0.006  0.00  0.00    +0.188 C 
BRANCH  13  14
ATOM     14  C   UNL     1       0.022  -0.003  -0.018  0.00  0.00    +0.122 A 
ATOM     15  C   UNL     1       0.014   1.342  -0.024  0.00  0.00    +0.046 A 
ATOM     16  C   UNL     1       1.365   1.759  -0.046  0.00  0.00    +0.041 A 
ATOM     17  C   UNL     1       2.117   0.644  -0.053  0.00  0.00    +0.195 A 
ATOM     18  O   UNL     1       1.298  -0.420  -0.036  0.00  0.00    -0.466 OA
ENDBRANCH  13  14
ENDBRANCH  10  13
BRANCH  11  19
ATOM     19  C   UNL     1      -3.151   0.749  -1.235  0.00  0.00    +0.135 C 
BRANCH  19  20
ATOM     20  C   UNL     1      -4.206   1.394  -2.096  0.00  0.00    +0.015 A 
ATOM     21  C   UNL     1      -5.526   0.991  -1.993  0.00  0.00    +0.128 A 
ATOM     22  C   UNL     1      -6.494   1.585  -2.785  0.00  0.00    +0.039 A 
ATOM     23  C   UNL     1      -6.142   2.579  -3.678  0.00  0.00    +0.004 A 
ATOM     24  C   UNL     1      -4.824   2.981  -3.782  0.00  0.00    +0.020 A 
ATOM     25  C   UNL     1      -3.856   2.393  -2.987  0.00  0.00    +0.047 A 
ATOM     26 CL   UNL     1      -2.201   2.903  -3.112  0.00  0.00    -0.083 Cl
ATOM     27  F   UNL     1      -5.870   0.019  -1.119  0.00  0.00    -0.205 F 
ENDBRANCH  19  20
ENDBRANCH  11  19
ENDBRANCH   3  10
BRANCH   2  28
ATOM     28  N   UNL     1      -1.929  -3.842  -0.567  0.00  0.00    -0.343 N 
ATOM     29  H   UNL     1      -2.295  -3.125  -0.026  0.00  0.00    +0.144 HD
ATOM     30  H   UNL     1      -2.099  -4.766  -0.328  0.00  0.00    +0.144 HD
ENDBRANCH   2  28
BRANCH   1  31
ATOM     31  C   UNL     1      -0.734  -5.949  -1.972  0.00  0.00    +0.163 C 
BRANCH  31  35
ATOM     32  C   UNL     1       2.361  -7.001   0.777  0.00  0.00    +0.000 A 
ATOM     33  C   UNL     1       1.172  -6.473   1.244  0.00  0.00    +0.000 A 
ATOM     34  C   UNL     1       0.170  -6.133   0.354  0.00  0.00    +0.005 A 
ATOM     35  C   UNL     1       0.358  -6.320  -1.002  0.00  0.00    -0.028 A 
ATOM     36  C   UNL     1       1.545  -6.852  -1.469  0.00  0.00    +0.005 A 
ATOM     37  C   UNL     1       2.549  -7.188  -0.580  0.00  0.00    +0.000 A 
ENDBRANCH  31  35
ENDBRANCH   1  31
TORSDOF 8
