REMARK  Name = ZINC07955564
REMARK  3 active torsions:
REMARK  status: ('A' for Active; 'I' for Inactive)
REMARK    1  A    between atoms: C_5  and  C_6
REMARK    2  A    between atoms: N_8  and  N_9
REMARK    3  A    between atoms: C_10  and  C_12
REMARK                            x       y       z     vdW  Elec       q    Type
REMARK                         _______ _______ _______ _____ _____    ______ ____
ROOT
ATOM      1  N   UNL     1      -1.191   1.867   0.018  0.00  0.00    -0.234 N 
ATOM      2  C   UNL     1      -0.014   1.209   0.009  0.00  0.00    +0.234 C 
ATOM      3  O   UNL     1       0.002  -0.004   0.002  0.00  0.00    -0.274 OA
ATOM      4  H   UNL     1      -1.204   2.837   0.023  0.00  0.00    +0.173 HD
ENDROOT
BRANCH   2   5
ATOM      5  C   UNL     1       1.280   1.980   0.001  0.00  0.00    +0.099 C 
ATOM      6  C   UNL     1       1.359   2.848  -1.266  0.00  0.00    +0.037 C 
ATOM      7  C   UNL     1       2.798   3.389  -1.446  0.00  0.00    +0.166 C 
ATOM      8  S   UNL     1       3.821   2.097  -0.630  0.00  0.00    -0.030 S 
ATOM      9  O   UNL     1       4.492   2.672   0.483  0.00  0.00    -0.174 OA
ATOM     10  O   UNL     1       4.572   1.407  -1.619  0.00  0.00    -0.174 OA
ATOM     11  C   UNL     1       2.481   0.991  -0.015  0.00  0.00    +0.178 C 
ENDBRANCH   2   5
BRANCH   1  14
ATOM     12  C   UNL     1      -3.571   1.808   0.029  0.00  0.00    +0.267 C 
ATOM     13  O   UNL     1      -3.587   3.025   0.035  0.00  0.00    -0.268 OA
ATOM     14  N   UNL     1      -2.394   1.150   0.020  0.00  0.00    -0.230 N 
ATOM     15  H   UNL     1      -2.381   0.180   0.014  0.00  0.00    +0.173 HD
BRANCH  12  20
ATOM     16  C   UNL     1      -6.130   1.536   0.045  0.00  0.00    +0.022 A 
ATOM     17  C   UNL     1      -7.138   0.605   0.040  0.00  0.00    +0.028 A 
ATOM     18  C   UNL     1      -6.819  -0.718   0.031  0.00  0.00    +0.079 A 
ATOM     19  S   UNL     1      -5.086  -0.707   0.023  0.00  0.00    -0.072 S 
ATOM     20  C   UNL     1      -4.829   1.058   0.031  0.00  0.00    +0.077 A 
ATOM     21 CL   UNL     1      -7.890  -2.085   0.029  0.00  0.00    -0.076 Cl
ENDBRANCH  12  20
ENDBRANCH   1  14
TORSDOF 3
