REMARK  Name = ZINC39947783
REMARK  22 active torsions:
REMARK  status: ('A' for Active; 'I' for Inactive)
REMARK    1  A    between atoms: C_1  and  C_2
REMARK    2  A    between atoms: C_3  and  C_40
REMARK    3  A    between atoms: C_4  and  C_24
REMARK    4  A    between atoms: C_7  and  C_8
REMARK    5  A    between atoms: C_8  and  C_9
REMARK    6  A    between atoms: C_11  and  C_23
REMARK    7  A    between atoms: C_12  and  C_22
REMARK    8  A    between atoms: C_13  and  C_15
REMARK    9  A    between atoms: C_15  and  O_17
REMARK   10  A    between atoms: O_17  and  C_18
REMARK   11  A    between atoms: C_18  and  C_19
REMARK   12  A    between atoms: C_18  and  C_20
REMARK   13  A    between atoms: C_18  and  C_21
REMARK   14  A    between atoms: C_24  and  C_25
REMARK   15  A    between atoms: C_27  and  C_33
REMARK   16  A    between atoms: C_29  and  C_32
REMARK   17  A    between atoms: C_30  and  C_31
REMARK   18  A    between atoms: C_33  and  O_35
REMARK   19  A    between atoms: O_35  and  C_36
REMARK   20  A    between atoms: C_36  and  C_37
REMARK   21  A    between atoms: C_36  and  C_38
REMARK   22  A    between atoms: C_36  and  C_39
REMARK                            x       y       z     vdW  Elec       q    Type
REMARK                         _______ _______ _______ _____ _____    ______ ____
ROOT
ATOM      1  C   UNL     1      -0.018   1.503   0.010  0.00  0.00    +0.046 C 
ATOM      2  C   UNL     1       0.002  -0.004   0.002  0.00  0.00    -0.027 A 
ATOM      3  C   UNL     1       0.009  -0.832  -1.138  0.00  0.00    -0.026 A 
ATOM      4  C   UNL     1       0.029  -2.110  -0.709  0.00  0.00    +0.025 A 
ATOM      5  N   UNL     1       0.035  -2.102   0.654  0.00  0.00    -0.361 N 
ATOM      6  H   UNL     1       0.048  -2.887   1.224  0.00  0.00    +0.165 HD
ATOM      7  C   UNL     1       0.023  -0.808   1.085  0.00  0.00    +0.022 A 
ATOM      8  C   UNL     1      -0.004  -0.373  -2.574  0.00  0.00    +0.046 C 
ENDROOT
BRANCH   7   9
ATOM      9  C   UNL     1       0.030  -0.355   2.522  0.00  0.00    +0.082 C 
BRANCH   9  10
ATOM     10  C   UNL     1      -1.406  -0.101   2.984  0.00  0.00    +0.112 C 
ATOM     11  C   UNL     1      -1.426   0.265   4.451  0.00  0.00    -0.045 C 
ATOM     12  C   UNL     1      -1.944   1.489   4.519  0.00  0.00    -0.020 C 
ATOM     13  C   UNL     1      -2.271   1.957   3.166  0.00  0.00    +0.124 C 
ATOM     14  N   UNL     1      -1.969   1.058   2.279  0.00  0.00    -0.372 N 
ATOM     15  C   UNL     1      -2.163   2.272   5.788  0.00  0.00    +0.046 C 
ATOM     16  C   UNL     1      -0.956  -0.585   5.603  0.00  0.00    +0.041 C 
ATOM     17  H   UNL     1      -2.092   1.137   1.320  0.00  0.00    +0.160 HD
BRANCH  13  18
ATOM     18  C   UNL     1      -2.868   3.283   2.853  0.00  0.00    +0.356 C 
ATOM     19  O   UNL     1      -3.118   4.062   3.749  0.00  0.00    -0.243 OA
BRANCH  18  20
ATOM     20  O   UNL     1      -3.130   3.619   1.576  0.00  0.00    -0.454 OA
BRANCH  20  21
ATOM     21  C   UNL     1      -3.703   4.908   1.349  0.00  0.00    +0.106 C 
ATOM     22  C   UNL     1      -2.753   5.988   1.871  0.00  0.00    +0.055 C 
ATOM     23  C   UNL     1      -3.928   5.109  -0.151  0.00  0.00    +0.055 C 
ATOM     24  C   UNL     1      -5.042   5.008   2.083  0.00  0.00    +0.055 C 
ENDBRANCH  20  21
ENDBRANCH  18  20
ENDBRANCH  13  18
ENDBRANCH   9  10
ENDBRANCH   7   9
BRANCH   4  25
ATOM     25  C   UNL     1       0.042  -3.336  -1.585  0.00  0.00    +0.108 C 
BRANCH  25  26
ATOM     26  C   UNL     1       1.460  -3.653  -1.985  0.00  0.00    +0.046 C 
ATOM     27  N   UNL     1       2.493  -2.970  -1.617  0.00  0.00    -0.269 NA
ATOM     28  C   UNL     1       3.684  -3.592  -2.208  0.00  0.00    +0.240 C 
ATOM     29  C   UNL     1       3.171  -4.775  -2.999  0.00  0.00    -0.033 C 
ATOM     30  C   UNL     1       1.849  -4.779  -2.835  0.00  0.00    -0.028 C 
ATOM     31  C   UNL     1       0.900  -5.783  -3.437  0.00  0.00    +0.045 C 
ATOM     32  C   UNL     1       3.988  -5.753  -3.803  0.00  0.00    +0.042 C 
BRANCH  28  33
ATOM     33  C   UNL     1       4.623  -4.055  -1.125  0.00  0.00    +0.337 C 
ATOM     34  O   UNL     1       4.218  -4.201   0.004  0.00  0.00    -0.248 OA
BRANCH  33  35
ATOM     35  O   UNL     1       5.910  -4.304  -1.413  0.00  0.00    -0.457 OA
BRANCH  35  36
ATOM     36  C   UNL     1       6.744  -4.739  -0.337  0.00  0.00    +0.105 C 
ATOM     37  C   UNL     1       6.192  -6.044   0.240  0.00  0.00    +0.055 C 
ATOM     38  C   UNL     1       8.165  -4.972  -0.855  0.00  0.00    +0.055 C 
ATOM     39  C   UNL     1       6.768  -3.668   0.755  0.00  0.00    +0.055 C 
ENDBRANCH  35  36
ENDBRANCH  33  35
ENDBRANCH  28  33
ENDBRANCH  25  26
ENDBRANCH   4  25
TORSDOF 10
