REMARK  Name = ZINC14015735
REMARK  3 active torsions:
REMARK  status: ('A' for Active; 'I' for Inactive)
REMARK    1  A    between atoms: C_4  and  S_7
REMARK    2  A    between atoms: S_7  and  N_10
REMARK    3  A    between atoms: C_14  and  C_17
REMARK                            x       y       z     vdW  Elec       q    Type
REMARK                         _______ _______ _______ _____ _____    ______ ____
ROOT
ATOM      1  C   UNL     1      -2.363   2.140   0.026  0.00  0.00    +0.223 C 
ATOM      2  O   UNL     1      -2.536   0.940   0.021  0.00  0.00    -0.275 OA
ATOM      3  N   UNL     1      -1.111   2.640   0.022  0.00  0.00    -0.264 N 
ATOM      4  C   UNL     1      -0.022   1.783   0.012  0.00  0.00    +0.165 A 
ATOM      5  N   UNL     1       1.260   2.075   0.001  0.00  0.00    -0.224 NA
ATOM      6  C   UNL     1       2.215   1.135  -0.013  0.00  0.00    +0.088 A 
ATOM      7  C   UNL     1       3.681   1.316  -0.026  0.00  0.00    +0.009 A 
ATOM      8  C   UNL     1       4.236   2.601  -0.023  0.00  0.00    +0.010 A 
ATOM      9  C   UNL     1       5.592   2.748  -0.034  0.00  0.00    +0.001 A 
ATOM     10  C   UNL     1       6.429   1.636  -0.048  0.00  0.00    +0.001 A 
ATOM     11  C   UNL     1       5.919   0.373  -0.051  0.00  0.00    +0.008 A 
ATOM     12  C   UNL     1       4.525   0.186  -0.040  0.00  0.00    -0.016 A 
ATOM     13  C   UNL     1       3.978  -1.113  -0.042  0.00  0.00    +0.010 A 
ATOM     14  C   UNL     1       2.629  -1.282  -0.030  0.00  0.00    +0.018 A 
ATOM     15  C   UNL     1       1.769  -0.199  -0.016  0.00  0.00    +0.041 A 
ATOM     16  S   UNL     1       0.002  -0.004   0.002  0.00  0.00    -0.052 S 
ATOM     17  H   UNL     1      -0.973   3.600   0.026  0.00  0.00    +0.157 HD
ENDROOT
BRANCH   1  22
ATOM     18  N   UNL     1      -5.982   3.172  -0.085  0.00  0.00    -0.176 NA
ATOM     19  C   UNL     1      -6.001   4.133  -1.196  0.00  0.00    +0.109 C 
ATOM     20  C   UNL     1      -4.693   4.930  -1.181  0.00  0.00    +0.018 C 
ATOM     21  C   UNL     1      -3.509   3.961  -1.208  0.00  0.00    +0.015 C 
ATOM     22  C   UNL     1      -3.547   3.072   0.037  0.00  0.00    +0.091 C 
ATOM     23  C   UNL     1      -4.842   2.253   0.036  0.00  0.00    +0.122 C 
BRANCH  18  24
ATOM     24  S   UNL     1      -7.223   3.126   1.011  0.00  0.00    +0.061 S 
ATOM     25  O   UNL     1      -6.692   2.557   2.201  0.00  0.00    -0.153 OA
ATOM     26  O   UNL     1      -7.834   4.408   0.987  0.00  0.00    -0.153 OA
BRANCH  24  30
ATOM     27  C   UNL     1     -10.293   0.197  -0.565  0.00  0.00    +0.000 A 
ATOM     28  C   UNL     1      -9.275  -0.245   0.258  0.00  0.00    +0.002 A 
ATOM     29  C   UNL     1      -8.338   0.649   0.740  0.00  0.00    +0.028 A 
ATOM     30  C   UNL     1      -8.418   1.986   0.397  0.00  0.00    +0.105 A 
ATOM     31  C   UNL     1      -9.439   2.429  -0.422  0.00  0.00    +0.028 A 
ATOM     32  C   UNL     1     -10.374   1.534  -0.907  0.00  0.00    +0.002 A 
ENDBRANCH  24  30
ENDBRANCH  18  24
ENDBRANCH   1  22
TORSDOF 3
