REMARK  Name = ZINC67412201
REMARK  11 active torsions:
REMARK  status: ('A' for Active; 'I' for Inactive)
REMARK    1  A    between atoms: C_1  and  C_2
REMARK    2  A    between atoms: C_2  and  C_3
REMARK    3  A    between atoms: C_2  and  N_4
REMARK    4  A    between atoms: C_7  and  C_10
REMARK    5  A    between atoms: C_10  and  N_11
REMARK    6  A    between atoms: N_14  and  C_15
REMARK    7  A    between atoms: N_14  and  C_25
REMARK    8  A    between atoms: C_15  and  C_16
REMARK    9  A    between atoms: C_19  and  O_24
REMARK   10  A    between atoms: C_20  and  O_22
REMARK   11  A    between atoms: O_22  and  C_23
REMARK                            x       y       z     vdW  Elec       q    Type
REMARK                         _______ _______ _______ _____ _____    ______ ____
ROOT
ATOM      1  N   UNL     1      -4.773  -3.557  -0.879  0.00  0.00    -0.299 N 
ATOM      2  C   UNL     1      -5.787  -4.245  -0.317  0.00  0.00    +0.303 C 
ATOM      3  O   UNL     1      -5.854  -4.347   0.893  0.00  0.00    -0.253 OA
ATOM      4  N   UNL     1      -6.725  -4.819  -1.095  0.00  0.00    -0.278 N 
ATOM      5  H   UNL     1      -4.677  -3.536  -1.844  0.00  0.00    +0.150 HD
ENDROOT
BRANCH   4   6
ATOM      6  C   UNL     1      -6.585  -4.790  -2.553  0.00  0.00    +0.078 C 
ATOM      7  C   UNL     1      -7.734  -5.362  -3.385  0.00  0.00    +0.024 C 
ATOM      8  C   UNL     1      -6.415  -6.129  -3.274  0.00  0.00    +0.024 C 
ENDBRANCH   4   6
BRANCH   1   9
ATOM      9  C   UNL     1      -3.816  -2.840  -0.032  0.00  0.00    +0.107 C 
BRANCH   9  13
ATOM     10  N   UNL     1      -1.817   0.011  -0.350  0.00  0.00    +0.381 N 
ATOM     11  C   UNL     1      -2.372   0.098  -1.725  0.00  0.00    -0.078 C 
ATOM     12  C   UNL     1      -3.437  -1.027  -1.748  0.00  0.00    -0.015 C 
ATOM     13  C   UNL     1      -2.775  -2.147  -0.913  0.00  0.00    -0.012 C 
ATOM     14  C   UNL     1      -1.725  -1.433  -0.043  0.00  0.00    -0.074 C 
ATOM     15  H   UNL     1      -2.433   0.468   0.305  0.00  0.00    -0.081 HD
BRANCH  10  17
ATOM     16  C   UNL     1      -0.596   2.117  -0.624  0.00  0.00    -0.014 C 
ATOM     17  C   UNL     1      -0.483   0.625  -0.303  0.00  0.00    -0.075 C 
ATOM     18  C   UNL     1       0.112   0.447   1.095  0.00  0.00    -0.014 C 
ENDBRANCH  10  17
ENDBRANCH   9  13
ENDBRANCH   1   9
BRANCH   4  19
ATOM     19  C   UNL     1      -7.885  -5.472  -0.484  0.00  0.00    +0.144 C 
BRANCH  19  20
ATOM     20  C   UNL     1      -8.948  -4.443  -0.199  0.00  0.00    -0.026 A 
ATOM     21  C   UNL     1      -8.934  -3.748   0.996  0.00  0.00    +0.009 A 
ATOM     22  C   UNL     1      -9.907  -2.803   1.262  0.00  0.00    +0.049 A 
ATOM     23  C   UNL     1     -10.900  -2.551   0.329  0.00  0.00    +0.158 A 
ATOM     24  C   UNL     1     -10.915  -3.250  -0.874  0.00  0.00    +0.162 A 
ATOM     25  C   UNL     1      -9.934  -4.192  -1.136  0.00  0.00    +0.054 A 
BRANCH  24  26
ATOM     26  O   UNL     1     -11.888  -3.006  -1.792  0.00  0.00    -0.491 OA
ATOM     27  C   UNL     1     -11.840  -3.761  -3.004  0.00  0.00    +0.277 C 
ENDBRANCH  24  26
BRANCH  23  28
ATOM     28  O   UNL     1     -11.859  -1.622   0.590  0.00  0.00    -0.503 OA
ATOM     29  H   UNL     1     -11.632  -0.729   0.296  0.00  0.00    +0.292 HD
ENDBRANCH  23  28
ENDBRANCH  19  20
ENDBRANCH   4  19
TORSDOF 8
