REMARK  Name = ZINC50743105
REMARK  8 active torsions:
REMARK  status: ('A' for Active; 'I' for Inactive)
REMARK    1  A    between atoms: C_1  and  C_2
REMARK    2  A    between atoms: C_5  and  C_23
REMARK    3  A    between atoms: C_10  and  C_12
REMARK    4  A    between atoms: C_13  and  N_21
REMARK    5  A    between atoms: C_16  and  C_18
REMARK    6  A    between atoms: C_18  and  C_19
REMARK    7  A    between atoms: C_18  and  C_20
REMARK    8  A    between atoms: N_21  and  C_22
REMARK                            x       y       z     vdW  Elec       q    Type
REMARK                         _______ _______ _______ _____ _____    ______ ____
ROOT
ATOM      1  C   UNL     1       3.086  -2.112   1.358  0.00  0.00    +0.150 A 
ATOM      2  C   UNL     1       3.846  -2.122   0.178  0.00  0.00    +0.076 A 
ATOM      3  C   UNL     1       5.102  -1.508   0.201  0.00  0.00    +0.138 A 
ATOM      4  N   UNL     1       5.521  -0.949   1.321  0.00  0.00    -0.238 NA
ATOM      5  C   UNL     1       4.777  -0.960   2.410  0.00  0.00    +0.132 A 
ATOM      6  N   UNL     1       3.588  -1.519   2.439  0.00  0.00    -0.225 NA
ENDROOT
BRANCH   1  14
ATOM      7  C   UNL     1      -0.055   1.601   0.355  0.00  0.00    +0.009 C 
ATOM      8  C   UNL     1      -0.036   0.075   0.245  0.00  0.00    +0.004 C 
ATOM      9  C   UNL     1      -1.471  -0.457   0.268  0.00  0.00    +0.009 C 
ATOM     10  C   UNL     1      -1.455  -1.980   0.124  0.00  0.00    +0.004 C 
ATOM     11  C   UNL     1      -0.694  -2.592   1.304  0.00  0.00    +0.111 C 
ATOM     12  N   UNL     1       0.640  -1.978   1.376  0.00  0.00    -0.296 N 
ATOM     13  C   UNL     1       0.742  -0.513   1.426  0.00  0.00    +0.111 C 
ATOM     14  C   UNL     1       1.748  -2.745   1.397  0.00  0.00    +0.267 C 
ATOM     15  O   UNL     1       1.649  -3.955   1.447  0.00  0.00    -0.268 OA
ATOM     16  C   UNL     1      -2.891  -2.507   0.113  0.00  0.00    +0.009 C 
ENDBRANCH   1  14
BRANCH   5  17
ATOM     17  C   UNL     1       5.306  -0.306   3.661  0.00  0.00    +0.051 C 
ATOM     18  C   UNL     1       6.610  -0.987   4.080  0.00  0.00    +0.015 C 
ATOM     19  C   UNL     1       5.568   1.176   3.390  0.00  0.00    +0.015 C 
ENDBRANCH   5  17
BRANCH   2  20
ATOM     20  N   UNL     1       3.366  -2.723  -0.977  0.00  0.00    -0.344 N 
ATOM     21  C   UNL     1       4.221  -2.820  -2.163  0.00  0.00    +0.125 C 
ATOM     22  H   UNL     1       2.464  -3.079  -1.000  0.00  0.00    +0.146 HD
ENDBRANCH   2  20
TORSDOF 3
