REMARK  Name = ZINC67292709
REMARK  6 active torsions:
REMARK  status: ('A' for Active; 'I' for Inactive)
REMARK    1  A    between atoms: C_1  and  O_2
REMARK    2  A    between atoms: O_2  and  C_3
REMARK    3  A    between atoms: N_11  and  C_12
REMARK    4  A    between atoms: C_17  and  O_18
REMARK    5  A    between atoms: O_18  and  C_19
REMARK    6  A    between atoms: C_21  and  C_23
REMARK                            x       y       z     vdW  Elec       q    Type
REMARK                         _______ _______ _______ _____ _____    ______ ____
ROOT
ATOM      1  C   UNL     1       1.620  -0.508   0.520  0.00  0.00    +0.163 A 
ATOM      2  C   UNL     1       2.426   0.226   1.374  0.00  0.00    +0.049 A 
ATOM      3  C   UNL     1       3.060  -0.386   2.445  0.00  0.00    +0.004 A 
ATOM      4  C   UNL     1       2.898  -1.734   2.675  0.00  0.00    +0.012 A 
ATOM      5  C   UNL     1       2.088  -2.491   1.820  0.00  0.00    +0.022 A 
ATOM      6  C   UNL     1       1.438  -1.870   0.739  0.00  0.00    +0.179 A 
ATOM      7  O   UNL     1       0.642  -2.600  -0.081  0.00  0.00    -0.435 OA
ATOM      8  C   UNL     1       0.927  -3.922  -0.199  0.00  0.00    +0.212 A 
ATOM      9  N   UNL     1       0.864  -4.528  -1.365  0.00  0.00    -0.322 N 
ATOM     10  C   UNL     1       1.311  -4.659   1.022  0.00  0.00    +0.097 A 
ATOM     11  C   UNL     1       1.906  -3.929   2.038  0.00  0.00    +0.030 A 
ATOM     12  H   UNL     1       1.140  -5.455  -1.445  0.00  0.00    +0.169 HD
ENDROOT
BRANCH   9  13
ATOM     13  C   UNL     1       0.410  -3.851  -2.464  0.00  0.00    +0.085 A 
ATOM     14  C   UNL     1      -0.785  -3.133  -2.400  0.00  0.00    +0.049 A 
ATOM     15  C   UNL     1      -1.238  -2.452  -3.513  0.00  0.00    +0.043 A 
ATOM     16  C   UNL     1      -0.512  -2.479  -4.691  0.00  0.00    +0.024 A 
ATOM     17  C   UNL     1       0.674  -3.189  -4.764  0.00  0.00    +0.049 A 
ATOM     18  C   UNL     1       1.144  -3.871  -3.656  0.00  0.00    +0.143 A 
ATOM     19 CL   UNL     1      -2.725  -1.558  -3.434  0.00  0.00    -0.083 Cl
BRANCH  18  20
ATOM     20  O   UNL     1       2.312  -4.564  -3.727  0.00  0.00    -0.493 OA
ATOM     21  C   UNL     1       3.006  -4.540  -4.976  0.00  0.00    +0.277 C 
ENDBRANCH  18  20
ENDBRANCH   9  13
BRANCH  10  22
ATOM     22  C   UNL     1       1.082  -6.109   1.149  0.00  0.00    +0.247 C 
ATOM     23  O   UNL     1       0.615  -6.735   0.216  0.00  0.00    -0.270 OA
ATOM     24  N   UNL     1       1.388  -6.742   2.298  0.00  0.00    -0.325 N 
ATOM     25  H   UNL     1       1.829  -6.259   3.015  0.00  0.00    +0.145 HD
ATOM     26  H   UNL     1       1.169  -7.680   2.409  0.00  0.00    +0.145 HD
ENDBRANCH  10  22
BRANCH   1  28
ATOM     27  C   UNL     1       1.235   1.504  -0.689  0.00  0.00    +0.277 C 
ATOM     28  O   UNL     1       1.002   0.103  -0.526  0.00  0.00    -0.491 OA
ENDBRANCH   1  28
TORSDOF 4
