REMARK  Name = ZINC09046109
REMARK  5 active torsions:
REMARK  status: ('A' for Active; 'I' for Inactive)
REMARK    1  A    between atoms: C_1  and  C_2
REMARK    2  A    between atoms: C_2  and  C_4
REMARK    3  A    between atoms: C_7  and  N_10
REMARK    4  A    between atoms: C_15  and  C_31
REMARK    5  A    between atoms: C_31  and  C_32
REMARK                            x       y       z     vdW  Elec       q    Type
REMARK                         _______ _______ _______ _____ _____    ______ ____
ROOT
ATOM      1  N   UNL     1      -2.683   9.787   2.606  0.00  0.00    -0.210 N 
ATOM      2  C   UNL     1      -1.773   9.255   1.730  0.00  0.00    +0.228 C 
ATOM      3  O   UNL     1      -0.831   9.821   1.217  0.00  0.00    -0.275 OA
ATOM      4  C   UNL     1      -2.186   7.830   1.540  0.00  0.00    +0.074 C 
ATOM      5  C   UNL     1      -1.157   6.704   1.486  0.00  0.00    -0.053 C 
ATOM      6  C   UNL     1      -2.764   6.143   3.175  0.00  0.00    +0.050 C 
ATOM      7  C   UNL     1      -2.674   7.591   3.016  0.00  0.00    +0.088 C 
ATOM      8  C   UNL     1      -3.365   8.823   3.309  0.00  0.00    +0.229 C 
ATOM      9  O   UNL     1      -4.335   8.975   4.020  0.00  0.00    -0.275 OA
ATOM     10  C   UNL     1      -4.163   5.587   3.086  0.00  0.00    -0.028 A 
ATOM     11  C   UNL     1      -5.157   5.688   2.138  0.00  0.00    +0.004 A 
ATOM     12  C   UNL     1      -6.369   5.050   2.336  0.00  0.00    +0.000 A 
ATOM     13  C   UNL     1      -6.578   4.313   3.487  0.00  0.00    +0.002 A 
ATOM     14  C   UNL     1      -5.585   4.210   4.439  0.00  0.00    +0.023 A 
ATOM     15  C   UNL     1      -4.362   4.849   4.247  0.00  0.00    +0.036 A 
ATOM     16  N   UNL     1      -3.220   4.893   5.049  0.00  0.00    -0.286 N 
ATOM     17  C   UNL     1      -2.239   5.628   4.496  0.00  0.00    +0.211 C 
ATOM     18  O   UNL     1      -1.142   5.838   4.967  0.00  0.00    -0.277 OA
ATOM     19  H   UNL     1      -3.143   4.446   5.906  0.00  0.00    +0.155 HD
ATOM     20  N   UNL     1      -1.940   5.582   2.076  0.00  0.00    +0.394 N 
ATOM     21  H   UNL     1      -1.304   4.866   2.445  0.00  0.00    -0.083 HD
ATOM     22  H   UNL     1      -2.547   5.164   1.361  0.00  0.00    -0.083 HD
ENDROOT
BRANCH   1  26
ATOM     23  C   UNL     1      -3.313  13.880   3.086  0.00  0.00    +0.017 A 
ATOM     24  C   UNL     1      -2.362  13.418   2.167  0.00  0.00    +0.013 A 
ATOM     25  C   UNL     1      -2.158  12.066   2.013  0.00  0.00    +0.024 A 
ATOM     26  C   UNL     1      -2.894  11.158   2.767  0.00  0.00    +0.044 A 
ATOM     27  C   UNL     1      -3.844  11.612   3.677  0.00  0.00    +0.024 A 
ATOM     28  C   UNL     1      -4.052  12.962   3.842  0.00  0.00    +0.013 A 
BRANCH  23  30
ATOM     29  C   UNL     1      -4.560  15.816   4.243  0.00  0.00    +0.091 C 
ATOM     30  C   UNL     1      -3.535  15.322   3.254  0.00  0.00    +0.160 C 
ATOM     31  O   UNL     1      -2.894  16.115   2.598  0.00  0.00    -0.292 OA
ENDBRANCH  23  30
ENDBRANCH   1  26
BRANCH   5  32
ATOM     32  C   UNL     1      -0.741   6.409   0.043  0.00  0.00    +0.022 C 
BRANCH  32  33
ATOM     33  C   UNL     1       0.245   5.269   0.029  0.00  0.00    -0.024 A 
ATOM     34  C   UNL     1       1.583   5.371   0.017  0.00  0.00    +0.087 A 
ATOM     35  N   UNL     1       2.147   4.124   0.004  0.00  0.00    -0.360 N 
ATOM     36  H   UNL     1       3.099   3.943  -0.006  0.00  0.00    +0.165 HD
ATOM     37  C   UNL     1       1.159   3.165   0.008  0.00  0.00    +0.047 A 
ATOM     38  C   UNL     1      -0.075   3.840   0.023  0.00  0.00    +0.003 A 
ATOM     39  C   UNL     1      -1.267   3.112   0.031  0.00  0.00    +0.010 A 
ATOM     40  C   UNL     1      -1.228   1.746   0.017  0.00  0.00    +0.001 A 
ATOM     41  C   UNL     1      -0.013   1.076   0.008  0.00  0.00    +0.002 A 
ATOM     42  C   UNL     1       1.175   1.774   0.000  0.00  0.00    +0.026 A 
ENDBRANCH  32  33
ENDBRANCH   5  32
TORSDOF 4
