REMARK  Name = ZINC12566329
REMARK  12 active torsions:
REMARK  status: ('A' for Active; 'I' for Inactive)
REMARK    1  A    between atoms: C_1  and  C_2
REMARK    2  A    between atoms: C_2  and  O_3
REMARK    3  A    between atoms: O_3  and  C_4
REMARK    4  A    between atoms: C_4  and  C_6
REMARK    5  A    between atoms: C_10  and  N_11
REMARK    6  A    between atoms: C_12  and  C_14
REMARK    7  A    between atoms: C_14  and  C_16
REMARK    8  A    between atoms: C_14  and  N_72
REMARK    9  A    between atoms: C_17  and  C_19
REMARK   10  A    between atoms: C_17  and  C_20
REMARK   11  A    between atoms: C_17  and  N_72
REMARK   12  A    between atoms: C_31  and  C_35
REMARK                            x       y       z     vdW  Elec       q    Type
REMARK                         _______ _______ _______ _____ _____    ______ ____
ROOT
ATOM      1  N   UNL     1      -2.067  -6.290   0.637  0.00  0.00    -0.281 N 
ATOM      2  C   UNL     1      -3.363  -6.438   0.298  0.00  0.00    +0.203 C 
ATOM      3  O   UNL     1      -3.982  -5.497  -0.153  0.00  0.00    -0.277 OA
ATOM      4  H   UNL     1      -1.571  -7.042   0.998  0.00  0.00    +0.155 HD
ENDROOT
BRANCH   1   9
ATOM      5  C   UNL     1      -0.128  -4.719   0.758  0.00  0.00    +0.091 A 
ATOM      6  C   UNL     1       0.281  -3.350   0.487  0.00  0.00    -0.021 A 
ATOM      7  C   UNL     1      -0.681  -2.553  -0.024  0.00  0.00    -0.004 A 
ATOM      8  S   UNL     1      -2.111  -3.590  -0.147  0.00  0.00    -0.077 S 
ATOM      9  C   UNL     1      -1.442  -5.064   0.470  0.00  0.00    +0.086 A 
ATOM     10  C   UNL     1      -0.552  -1.109  -0.400  0.00  0.00    +0.046 C 
ATOM     11  C   UNL     1       0.941  -0.760  -0.471  0.00  0.00    -0.009 C 
ATOM     12  C   UNL     1       1.633  -1.290   0.788  0.00  0.00    +0.008 C 
ATOM     13  C   UNL     1       1.685  -2.818   0.748  0.00  0.00    +0.037 C 
ATOM     14  C   UNL     1       1.110   0.759  -0.548  0.00  0.00    +0.008 C 
BRANCH   5  15
ATOM     15  C   UNL     1       0.810  -5.696   1.313  0.00  0.00    +0.342 C 
ATOM     16  O   UNL     1       0.913  -5.824   2.518  0.00  0.00    -0.245 OA
BRANCH  15  17
ATOM     17  O   UNL     1       1.560  -6.455   0.488  0.00  0.00    -0.461 OA
BRANCH  17  19
ATOM     18  C   UNL     1       3.228  -8.168   0.022  0.00  0.00    +0.048 C 
ATOM     19  C   UNL     1       2.469  -7.403   1.108  0.00  0.00    +0.229 C 
ENDBRANCH  17  19
ENDBRANCH  15  17
ENDBRANCH   5  15
ENDBRANCH   1   9
BRANCH   2  20
ATOM     20  C   UNL     1      -4.042  -7.771   0.479  0.00  0.00    +0.014 C 
ATOM     21  C   UNL     1      -3.999  -8.168   1.956  0.00  0.00    -0.004 C 
BRANCH  20  22
ATOM     22  N   UNL     1      -5.448  -7.669   0.046  0.00  0.00    +0.388 N 
ATOM     23  H   UNL     1      -5.798  -6.725   0.249  0.00  0.00    -0.084 HD
ATOM     24  H   UNL     1      -6.011  -8.360   0.557  0.00  0.00    -0.084 HD
BRANCH  22  25
ATOM     25  C   UNL     1      -5.558  -7.928  -1.402  0.00  0.00    -0.068 C 
ATOM     26  C   UNL     1      -5.619  -9.437  -1.648  0.00  0.00    -0.013 C 
BRANCH  25  27
ATOM     27  C   UNL     1      -6.834  -7.273  -1.934  0.00  0.00    -0.041 C 
ATOM     28  C   UNL     1      -8.048  -7.859  -1.211  0.00  0.00    +0.009 C 
ATOM     29  C   UNL     1      -9.325  -7.204  -1.742  0.00  0.00    -0.010 C 
ATOM     30  C   UNL     1      -9.447  -7.471  -3.244  0.00  0.00    +0.007 C 
ATOM     31  C   UNL     1      -8.233  -6.885  -3.967  0.00  0.00    -0.010 C 
ATOM     32  C   UNL     1      -6.957  -7.540  -3.436  0.00  0.00    +0.009 C 
ATOM     33  C   UNL     1      -8.173  -5.376  -3.721  0.00  0.00    +0.007 C 
ATOM     34  C   UNL     1      -8.050  -5.109  -2.220  0.00  0.00    -0.010 C 
ATOM     35  C   UNL     1      -9.264  -5.695  -1.496  0.00  0.00    +0.007 C 
ATOM     36  C   UNL     1      -6.774  -5.764  -1.688  0.00  0.00    +0.009 C 
ENDBRANCH  25  27
ENDBRANCH  22  25
ENDBRANCH  20  22
ENDBRANCH   2  20
TORSDOF 8
