REMARK  Name = ZINC37557225
REMARK  2 active torsions:
REMARK  status: ('A' for Active; 'I' for Inactive)
REMARK    1  A    between atoms: N_7  and  S_10
REMARK    2  A    between atoms: S_10  and  C_13
REMARK                            x       y       z     vdW  Elec       q    Type
REMARK                         _______ _______ _______ _____ _____    ______ ____
ROOT
ATOM      1  S   UNL     1      -1.722  -3.079  -1.410  0.00  0.00    +0.066 S 
ATOM      2  O   UNL     1      -1.486  -4.465  -1.205  0.00  0.00    -0.153 OA
ATOM      3  O   UNL     1      -3.023  -2.510  -1.346  0.00  0.00    -0.153 OA
ENDROOT
BRANCH   1  10
ATOM      4  C   UNL     1       0.304   1.291   0.018  0.00  0.00    +0.013 A 
ATOM      5  C   UNL     1       1.509   1.906  -0.001  0.00  0.00    +0.046 A 
ATOM      6  S   UNL     1       2.631   0.517  -0.040  0.00  0.00    -0.101 S 
ATOM      7  C   UNL     1       1.414  -0.774  -0.031  0.00  0.00    -0.004 A 
ATOM      8  C   UNL     1       0.232  -0.101   0.005  0.00  0.00    -0.021 A 
ATOM      9  C   UNL     1      -1.087  -0.871   0.035  0.00  0.00    +0.145 C 
ATOM     10  N   UNL     1      -0.797  -2.272  -0.300  0.00  0.00    -0.172 NA
ATOM     11  C   UNL     1       0.327  -2.947   0.366  0.00  0.00    +0.115 C 
ATOM     12  C   UNL     1       1.629  -2.252  -0.060  0.00  0.00    +0.060 C 
ENDBRANCH   1  10
BRANCH   1  13
ATOM     13  C   UNL     1      -1.081  -2.690  -3.005  0.00  0.00    +0.164 A 
ATOM     14  C   UNL     1      -1.711  -1.974  -3.963  0.00  0.00    +0.135 A 
ATOM     15  N   UNL     1      -0.890  -1.899  -5.032  0.00  0.00    -0.281 N 
ATOM     16  H   UNL     1      -1.081  -1.444  -5.867  0.00  0.00    +0.188 HD
ATOM     17  N   UNL     1       0.288  -2.591  -4.723  0.00  0.00    -0.157 NA
ATOM     18  C   UNL     1       0.178  -3.062  -3.503  0.00  0.00    +0.164 A 
ATOM     19  N   UNL     1       1.145  -3.809  -2.819  0.00  0.00    -0.340 N 
ATOM     20  H   UNL     1       0.940  -4.188  -1.950  0.00  0.00    +0.144 HD
ATOM     21  H   UNL     1       2.020  -3.947  -3.215  0.00  0.00    +0.144 HD
ENDBRANCH   1  13
TORSDOF 2
