REMARK  Name = ZINC02441280
REMARK  8 active torsions:
REMARK  status: ('A' for Active; 'I' for Inactive)
REMARK    1  A    between atoms: C_1  and  C_2
REMARK    2  A    between atoms: N_8  and  C_9
REMARK    3  A    between atoms: C_9  and  C_10
REMARK    4  A    between atoms: C_15  and  O_16
REMARK    5  A    between atoms: O_16  and  C_17
REMARK    6  A    between atoms: C_18  and  C_26
REMARK    7  A    between atoms: C_20  and  C_24
REMARK    8  A    between atoms: C_21  and  N_23
REMARK                            x       y       z     vdW  Elec       q    Type
REMARK                         _______ _______ _______ _____ _____    ______ ____
ROOT
ATOM      1  C   UNL     1      -1.538  -1.159   1.085  0.00  0.00    +0.064 C 
ATOM      2  C   UNL     1      -2.405  -0.257   1.925  0.00  0.00    +0.023 A 
ATOM      3  C   UNL     1      -2.695  -0.607   3.197  0.00  0.00    +0.068 A 
ATOM      4  C   UNL     1      -3.510   0.230   3.986  0.00  0.00    +0.141 A 
ATOM      5  C   UNL     1      -3.993   1.400   3.438  0.00  0.00    +0.072 A 
ATOM      6  C   UNL     1      -3.663   1.724   2.116  0.00  0.00    +0.259 A 
ATOM      7  O   UNL     1      -4.083   2.757   1.618  0.00  0.00    -0.267 OA
ATOM      8  N   UNL     1      -2.881   0.899   1.394  0.00  0.00    -0.308 N 
ATOM      9  C   UNL     1      -4.866   2.323   4.243  0.00  0.00    +0.103 C 
ATOM     10  C   UNL     1      -5.404   1.605   5.450  0.00  0.00    +0.098 C 
ATOM     11  C   UNL     1      -4.854   0.446   5.880  0.00  0.00    +0.199 C 
ATOM     12  O   UNL     1      -3.806  -0.119   5.255  0.00  0.00    -0.441 OA
ENDROOT
BRANCH   9  13
ATOM     13  C   UNL     1      -4.056   3.513   4.690  0.00  0.00    -0.032 A 
ATOM     14  C   UNL     1      -4.430   4.787   4.306  0.00  0.00    +0.005 A 
ATOM     15  C   UNL     1      -3.688   5.879   4.715  0.00  0.00    +0.003 A 
ATOM     16  C   UNL     1      -2.571   5.698   5.509  0.00  0.00    +0.038 A 
ATOM     17  C   UNL     1      -2.195   4.423   5.893  0.00  0.00    +0.124 A 
ATOM     18  C   UNL     1      -2.942   3.330   5.488  0.00  0.00    +0.043 A 
ATOM     19  F   UNL     1      -1.103   4.245   6.669  0.00  0.00    -0.205 F 
ENDBRANCH   9  13
BRANCH  11  20
ATOM     20  N   UNL     1      -5.380  -0.171   6.988  0.00  0.00    -0.328 N 
ATOM     21  H   UNL     1      -4.997  -1.002   7.309  0.00  0.00    +0.145 HD
ATOM     22  H   UNL     1      -6.136   0.225   7.450  0.00  0.00    +0.145 HD
ENDBRANCH  11  20
BRANCH  10  23
ATOM     23  C   UNL     1      -6.520   2.159   6.157  0.00  0.00    +0.101 C 
ATOM     24  N   UNL     1      -7.405   2.597   6.717  0.00  0.00    -0.191 NA
ENDBRANCH  10  23
BRANCH   8  25
ATOM     25  C   UNL     1      -2.543   1.251   0.013  0.00  0.00    +0.164 C 
BRANCH  25  26
ATOM     26  C   UNL     1      -3.544   0.625  -0.924  0.00  0.00    +0.014 A 
ATOM     27  C   UNL     1      -3.216  -0.523  -1.619  0.00  0.00    +0.009 A 
ATOM     28  C   UNL     1      -4.131  -1.096  -2.482  0.00  0.00    +0.001 A 
ATOM     29  C   UNL     1      -5.379  -0.523  -2.649  0.00  0.00    +0.004 A 
ATOM     30  C   UNL     1      -5.714   0.622  -1.953  0.00  0.00    +0.046 A 
ATOM     31  C   UNL     1      -4.797   1.198  -1.086  0.00  0.00    +0.125 A 
BRANCH  31  32
ATOM     32  O   UNL     1      -5.123   2.325  -0.401  0.00  0.00    -0.495 OA
ATOM     33  C   UNL     1      -6.428   2.864  -0.621  0.00  0.00    +0.277 C 
ENDBRANCH  31  32
ENDBRANCH  25  26
ENDBRANCH   8  25
TORSDOF 6
