REMARK  Name = ZINC07018850
REMARK  6 active torsions:
REMARK  status: ('A' for Active; 'I' for Inactive)
REMARK    1  A    between atoms: C_1  and  C_2
REMARK    2  A    between atoms: C_2  and  C_21
REMARK    3  A    between atoms: N_5  and  C_9
REMARK    4  A    between atoms: C_9  and  C_10
REMARK    5  A    between atoms: N_12  and  C_13
REMARK    6  A    between atoms: C_13  and  C_19
REMARK                            x       y       z     vdW  Elec       q    Type
REMARK                         _______ _______ _______ _____ _____    ______ ____
ROOT
ATOM      1  C   UNL     1       0.645   6.197  -1.079  0.00  0.00    +0.047 C 
ATOM      2  C   UNL     1      -0.716   5.690  -0.598  0.00  0.00    +0.135 C 
ATOM      3  C   UNL     1      -0.960   4.275  -1.085  0.00  0.00    +0.251 C 
ATOM      4  O   UNL     1      -1.030   3.899  -2.235  0.00  0.00    -0.272 OA
ATOM      5  N   UNL     1      -1.083   3.523   0.026  0.00  0.00    -0.215 N 
ATOM      6  C   UNL     1      -0.956   4.259   1.137  0.00  0.00    +0.310 C 
ATOM      7  O   UNL     1      -1.034   3.804   2.261  0.00  0.00    -0.252 OA
ATOM      8  N   UNL     1      -0.730   5.558   0.869  0.00  0.00    -0.281 N 
ATOM      9  H   UNL     1      -0.605   6.269   1.516  0.00  0.00    +0.152 HD
ENDROOT
BRANCH   2  10
ATOM     10  C   UNL     1      -1.818   6.607  -1.059  0.00  0.00    -0.015 A 
ATOM     11  C   UNL     1      -2.476   6.354  -2.248  0.00  0.00    +0.007 A 
ATOM     12  C   UNL     1      -3.491   7.193  -2.668  0.00  0.00    +0.020 A 
ATOM     13  C   UNL     1      -3.841   8.292  -1.905  0.00  0.00    +0.041 A 
ATOM     14  C   UNL     1      -3.179   8.548  -0.717  0.00  0.00    +0.020 A 
ATOM     15  C   UNL     1      -2.167   7.706  -0.295  0.00  0.00    +0.007 A 
ATOM     16 CL   UNL     1      -5.111   9.350  -2.436  0.00  0.00    -0.084 Cl
ENDBRANCH   2  10
BRANCH   5  17
ATOM     17  C   UNL     1      -1.331   2.079   0.020  0.00  0.00    +0.213 C 
BRANCH  17  18
ATOM     18  C   UNL     1      -0.016   1.344   0.009  0.00  0.00    +0.232 C 
ATOM     19  O   UNL     1       1.026   1.964   0.003  0.00  0.00    -0.274 OA
ATOM     20  N   UNL     1       0.002  -0.004   0.002  0.00  0.00    -0.296 N 
ATOM     21  H   UNL     1      -0.831  -0.500   0.007  0.00  0.00    +0.150 HD
BRANCH  20  22
ATOM     22  C   UNL     1       1.281  -0.719  -0.014  0.00  0.00    +0.121 C 
ATOM     23  C   UNL     1       2.066  -0.332  -1.269  0.00  0.00    +0.041 C 
ATOM     24  C   UNL     1       3.401  -1.079  -1.286  0.00  0.00    +0.003 C 
ATOM     25  C   UNL     1       3.142  -2.587  -1.291  0.00  0.00    +0.000 C 
ATOM     26  C   UNL     1       2.357  -2.974  -0.036  0.00  0.00    +0.003 C 
ATOM     27  C   UNL     1       1.021  -2.227  -0.020  0.00  0.00    +0.041 C 
BRANCH  22  28
ATOM     28  C   UNL     1       2.059  -0.360   1.182  0.00  0.00    +0.088 C 
ATOM     29  N   UNL     1       2.660  -0.082   2.106  0.00  0.00    -0.194 NA
ENDBRANCH  22  28
ENDBRANCH  20  22
ENDBRANCH  17  18
ENDBRANCH   5  17
TORSDOF 5
