REMARK  Name = ZINC58467379
REMARK  10 active torsions:
REMARK  status: ('A' for Active; 'I' for Inactive)
REMARK    1  A    between atoms: C_1  and  N_2
REMARK    2  A    between atoms: N_2  and  S_3
REMARK    3  A    between atoms: S_3  and  C_6
REMARK    4  A    between atoms: C_6  and  C_7
REMARK    5  A    between atoms: C_10  and  C_13
REMARK    6  A    between atoms: C_13  and  N_14
REMARK    7  A    between atoms: N_17  and  C_18
REMARK    8  A    between atoms: C_18  and  C_19
REMARK    9  A    between atoms: C_19  and  C_21
REMARK   10  A    between atoms: C_19  and  N_26
REMARK                            x       y       z     vdW  Elec       q    Type
REMARK                         _______ _______ _______ _____ _____    ______ ____
ROOT
ATOM      1  N   UNL     1      -7.523  -3.955  -0.705  0.00  0.00    -0.295 N 
ATOM      2  C   UNL     1      -8.584  -4.782  -0.624  0.00  0.00    +0.300 C 
ATOM      3  O   UNL     1      -9.327  -4.912  -1.577  0.00  0.00    -0.253 OA
ATOM      4  N   UNL     1      -8.822  -5.464   0.514  0.00  0.00    -0.301 N 
ATOM      5  H   UNL     1      -6.930  -3.851   0.056  0.00  0.00    +0.151 HD
ATOM      6  H   UNL     1      -8.229  -5.360   1.275  0.00  0.00    +0.150 HD
ENDROOT
BRANCH   1   7
ATOM      7  C   UNL     1      -7.264  -3.214  -1.942  0.00  0.00    +0.141 C 
BRANCH   7  11
ATOM      8  C   UNL     1      -3.761  -0.817  -1.464  0.00  0.00    -0.025 A 
ATOM      9  C   UNL     1      -3.654  -2.110  -1.941  0.00  0.00    +0.005 A 
ATOM     10  C   UNL     1      -4.788  -2.886  -2.096  0.00  0.00    +0.005 A 
ATOM     11  C   UNL     1      -6.028  -2.369  -1.772  0.00  0.00    -0.030 A 
ATOM     12  C   UNL     1      -6.135  -1.076  -1.294  0.00  0.00    +0.005 A 
ATOM     13  C   UNL     1      -5.001  -0.302  -1.135  0.00  0.00    +0.005 A 
BRANCH   8  14
ATOM     14  C   UNL     1      -2.525   0.028  -1.295  0.00  0.00    +0.220 C 
BRANCH  14  15
ATOM     15  S   UNL     1      -1.848  -0.216   0.370  0.00  0.00    +0.033 S 
ATOM     16  O   UNL     1      -1.344  -1.537   0.505  0.00  0.00    -0.158 OA
ATOM     17  O   UNL     1      -2.733   0.325   1.342  0.00  0.00    -0.158 OA
BRANCH  15  19
ATOM     18  C   UNL     1      -0.654   2.211   0.344  0.00  0.00    +0.127 C 
ATOM     19  N   UNL     1      -0.508   0.756   0.431  0.00  0.00    -0.197 NA
ATOM     20  H   UNL     1       0.373   0.361   0.525  0.00  0.00    +0.147 HD
ENDBRANCH  15  19
ENDBRANCH  14  15
ENDBRANCH   8  14
ENDBRANCH   7  11
ENDBRANCH   1   7
BRANCH   4  21
ATOM     21  C   UNL     1      -9.975  -6.362   0.603  0.00  0.00    +0.095 C 
BRANCH  21  22
ATOM     22  C   UNL     1      -9.941  -7.106   1.939  0.00  0.00    -0.013 C 
BRANCH  22  23
ATOM     23  N   UNL     1     -11.163  -7.908   2.084  0.00  0.00    +0.386 N 
ATOM     24  C   UNL     1     -12.347  -7.024   2.044  0.00  0.00    -0.078 C 
ATOM     25  C   UNL     1     -13.345  -7.653   3.049  0.00  0.00    -0.020 C 
ATOM     26  C   UNL     1     -12.392  -8.152   4.166  0.00  0.00    -0.020 C 
ATOM     27  C   UNL     1     -11.145  -8.610   3.381  0.00  0.00    -0.078 C 
ATOM     28  H   UNL     1     -11.219  -8.581   1.335  0.00  0.00    -0.081 HD
ENDBRANCH  22  23
BRANCH  22  29
ATOM     29  C   UNL     1      -8.738  -8.012   1.980  0.00  0.00    -0.022 A 
ATOM     30  C   UNL     1      -7.542  -7.816   2.588  0.00  0.00    +0.009 A 
ATOM     31  C   UNL     1      -6.572  -8.796   2.492  0.00  0.00    +0.008 A 
ATOM     32  C   UNL     1      -6.846  -9.925   1.792  0.00  0.00    +0.045 A 
ATOM     33  S   UNL     1      -8.519  -9.625   1.247  0.00  0.00    -0.103 S 
ENDBRANCH  22  29
ENDBRANCH  21  22
ENDBRANCH   4  21
TORSDOF 9
