REMARK  Name = ZINC39911887
REMARK  12 active torsions:
REMARK  status: ('A' for Active; 'I' for Inactive)
REMARK    1  A    between atoms: C_1  and  C_2
REMARK    2  A    between atoms: C_2  and  C_3
REMARK    3  A    between atoms: C_3  and  C_4
REMARK    4  A    between atoms: C_4  and  N_5
REMARK    5  A    between atoms: C_6  and  C_25
REMARK    6  A    between atoms: C_9  and  C_16
REMARK    7  A    between atoms: C_18  and  C_24
REMARK    8  A    between atoms: C_20  and  C_23
REMARK    9  A    between atoms: C_21  and  O_22
REMARK   10  A    between atoms: C_28  and  O_33
REMARK   11  A    between atoms: C_29  and  O_31
REMARK   12  A    between atoms: O_31  and  C_32
REMARK                            x       y       z     vdW  Elec       q    Type
REMARK                         _______ _______ _______ _____ _____    ______ ____
ROOT
ATOM      1  N   UNL     1       1.724  -2.201  -3.231  0.00  0.00    -0.285 N 
ATOM      2  C   UNL     1       0.970  -2.762  -4.359  0.00  0.00    +0.141 C 
ATOM      3  C   UNL     1       1.963  -3.539  -5.179  0.00  0.00    +0.035 A 
ATOM      4  C   UNL     1       2.196  -4.337  -6.305  0.00  0.00    +0.102 A 
ATOM      5  N   UNL     1       3.478  -4.647  -6.310  0.00  0.00    -0.173 NA
ATOM      6  N   UNL     1       4.077  -4.125  -5.299  0.00  0.00    -0.272 N 
ATOM      7  H   UNL     1       5.021  -4.220  -5.101  0.00  0.00    +0.189 HD
ATOM      8  C   UNL     1       3.185  -3.415  -4.546  0.00  0.00    +0.126 A 
ATOM      9  C   UNL     1       3.009  -2.581  -3.352  0.00  0.00    +0.265 C 
ATOM     10  O   UNL     1       3.898  -2.279  -2.579  0.00  0.00    -0.268 OA
ENDROOT
BRANCH   4  11
ATOM     11  C   UNL     1       1.187  -4.757  -7.309  0.00  0.00    +0.044 A 
ATOM     12  C   UNL     1      -0.158  -4.453  -7.116  0.00  0.00    +0.017 A 
ATOM     13  C   UNL     1      -1.093  -4.845  -8.053  0.00  0.00    -0.049 A 
ATOM     14  C   UNL     1      -0.699  -5.540  -9.183  0.00  0.00    +0.010 A 
ATOM     15  C   UNL     1       0.634  -5.846  -9.383  0.00  0.00    -0.008 A 
ATOM     16  C   UNL     1       1.583  -5.453  -8.453  0.00  0.00    +0.129 A 
ATOM     17  C   UNL     1       1.055  -6.603 -10.616  0.00  0.00    +0.047 C 
ATOM     18  C   UNL     1      -2.549  -4.516  -7.844  0.00  0.00    +0.044 C 
BRANCH  16  19
ATOM     19  O   UNL     1       2.894  -5.749  -8.652  0.00  0.00    -0.506 OA
ATOM     20  H   UNL     1       3.166  -6.600  -8.281  0.00  0.00    +0.292 HD
ENDBRANCH  16  19
ENDBRANCH   4  11
BRANCH   2  21
ATOM     21  C   UNL     1       0.369  -1.654  -5.185  0.00  0.00    -0.019 A 
ATOM     22  C   UNL     1      -0.960  -1.718  -5.563  0.00  0.00    +0.009 A 
ATOM     23  C   UNL     1      -1.516  -0.704  -6.320  0.00  0.00    +0.049 A 
ATOM     24  C   UNL     1      -0.742   0.380  -6.701  0.00  0.00    +0.158 A 
ATOM     25  C   UNL     1       0.595   0.445  -6.320  0.00  0.00    +0.162 A 
ATOM     26  C   UNL     1       1.145  -0.572  -5.557  0.00  0.00    +0.055 A 
BRANCH  25  27
ATOM     27  O   UNL     1       1.359   1.508  -6.691  0.00  0.00    -0.491 OA
ATOM     28  C   UNL     1       2.678   1.579  -6.147  0.00  0.00    +0.277 C 
ENDBRANCH  25  27
BRANCH  24  29
ATOM     29  O   UNL     1      -1.287   1.379  -7.446  0.00  0.00    -0.503 OA
ATOM     30  H   UNL     1      -1.677   2.092  -6.923  0.00  0.00    +0.292 HD
ENDBRANCH  24  29
ENDBRANCH   2  21
BRANCH   1  31
ATOM     31  C   UNL     1       1.173  -1.364  -2.162  0.00  0.00    +0.109 C 
BRANCH  31  32
ATOM     32  C   UNL     1       1.259   0.108  -2.571  0.00  0.00    +0.019 C 
BRANCH  32  34
ATOM     33  C   UNL     1       0.769   2.453  -1.863  0.00  0.00    +0.004 C 
ATOM     34  C   UNL     1       0.684   0.981  -1.454  0.00  0.00    -0.002 C 
ENDBRANCH  32  34
ENDBRANCH  31  32
ENDBRANCH   1  31
TORSDOF 8
