REMARK  Name = ZINC64399055
REMARK  6 active torsions:
REMARK  status: ('A' for Active; 'I' for Inactive)
REMARK    1  A    between atoms: C_1  and  C_2
REMARK    2  A    between atoms: C_14  and  C_16
REMARK    3  A    between atoms: C_16  and  N_17
REMARK    4  A    between atoms: N_17  and  C_18
REMARK    5  A    between atoms: C_23  and  S_24
REMARK    6  A    between atoms: S_24  and  C_25
REMARK                            x       y       z     vdW  Elec       q    Type
REMARK                         _______ _______ _______ _____ _____    ______ ____
ROOT
ATOM      1  C   UNL     1      -0.019   1.526   0.010  0.00  0.00    +0.029 C 
ATOM      2  C   UNL     1       0.002  -0.004   0.002  0.00  0.00    +0.087 C 
ATOM      3  C   UNL     1       0.710  -0.496  -1.261  0.00  0.00    +0.118 C 
ATOM      4  C   UNL     1       1.092  -1.944  -1.111  0.00  0.00    +0.219 C 
ATOM      5  O   UNL     1       0.452  -2.800  -1.685  0.00  0.00    -0.275 OA
ATOM      6  N   UNL     1       2.144  -2.297  -0.340  0.00  0.00    -0.284 N 
ATOM      7  C   UNL     1       2.833  -1.333   0.404  0.00  0.00    +0.055 A 
ATOM      8  C   UNL     1       4.215  -1.255   0.360  0.00  0.00    +0.025 A 
ATOM      9  C   UNL     1       4.876  -0.309   1.123  0.00  0.00    +0.002 A 
ATOM     10  C   UNL     1       4.162   0.558   1.930  0.00  0.00    +0.002 A 
ATOM     11  C   UNL     1       2.781   0.493   1.972  0.00  0.00    +0.025 A 
ATOM     12  C   UNL     1       2.112  -0.444   1.202  0.00  0.00    +0.058 A 
ATOM     13  N   UNL     1       0.711  -0.488   1.189  0.00  0.00    -0.265 N 
ATOM     14  C   UNL     1       0.028  -0.965   2.248  0.00  0.00    +0.237 C 
ATOM     15  O   UNL     1      -1.184  -0.998   2.224  0.00  0.00    -0.274 OA
ATOM     16  H   UNL     1       2.424  -3.225  -0.302  0.00  0.00    +0.155 HD
ENDROOT
BRANCH  14  17
ATOM     17  C   UNL     1       0.771  -1.460   3.462  0.00  0.00    +0.198 C 
BRANCH  17  18
ATOM     18  N   UNL     1      -0.189  -1.923   4.467  0.00  0.00    -0.334 N 
ATOM     19  H   UNL     1      -1.141  -1.879   4.285  0.00  0.00    +0.147 HD
BRANCH  18  20
ATOM     20  C   UNL     1       0.268  -2.431   5.689  0.00  0.00    +0.042 A 
ATOM     21  C   UNL     1       1.627  -2.490   5.953  0.00  0.00    +0.044 A 
ATOM     22  C   UNL     1       2.076  -2.992   7.162  0.00  0.00    +0.043 A 
ATOM     23  C   UNL     1       1.171  -3.436   8.110  0.00  0.00    +0.021 A 
ATOM     24  C   UNL     1      -0.186  -3.380   7.855  0.00  0.00    +0.018 A 
ATOM     25  C   UNL     1      -0.645  -2.873   6.648  0.00  0.00    +0.029 A 
ATOM     26 CL   UNL     1       3.779  -3.066   7.490  0.00  0.00    -0.083 Cl
BRANCH  25  27
ATOM     27  S   UNL     1      -2.375  -2.796   6.322  0.00  0.00    -0.127 S 
ATOM     28  C   UNL     1      -3.135  -3.466   7.827  0.00  0.00    +0.090 C 
ENDBRANCH  25  27
ENDBRANCH  18  20
ENDBRANCH  17  18
ENDBRANCH  14  17
TORSDOF 4
