REMARK  Name = ZINC12401692
REMARK  7 active torsions:
REMARK  status: ('A' for Active; 'I' for Inactive)
REMARK    1  A    between atoms: C_1  and  C_2
REMARK    2  A    between atoms: C_2  and  C_3
REMARK    3  A    between atoms: C_2  and  S_4
REMARK    4  A    between atoms: S_4  and  C_5
REMARK    5  A    between atoms: C_13  and  C_20
REMARK    6  A    between atoms: C_15  and  C_18
REMARK    7  A    between atoms: C_16  and  N_17
REMARK                            x       y       z     vdW  Elec       q    Type
REMARK                         _______ _______ _______ _____ _____    ______ ____
ROOT
ATOM      1  C   UNL     1      -5.777   7.138   0.285  0.00  0.00    +0.160 A 
ATOM      2  N   UNL     1      -6.661   6.159   0.152  0.00  0.00    -0.133 NA
ATOM      3  N   UNL     1      -6.311   4.949   0.089  0.00  0.00    -0.124 NA
ATOM      4  C   UNL     1      -5.042   4.582   0.150  0.00  0.00    +0.194 A 
ATOM      5  S   UNL     1      -4.262   6.184   0.329  0.00  0.00    -0.024 S 
ATOM      6  N   UNL     1      -4.474   3.311   0.097  0.00  0.00    -0.237 N 
ATOM      7  C   UNL     1      -4.193   2.741  -1.117  0.00  0.00    +0.026 C 
ATOM      8  C   UNL     1      -3.306   1.728  -1.213  0.00  0.00    +0.026 C 
ATOM      9  C   UNL     1      -2.601   1.197   0.009  0.00  0.00    +0.104 C 
ATOM     10  C   UNL     1      -3.308   1.611   1.266  0.00  0.00    +0.077 C 
ATOM     11  C   UNL     1      -4.199   2.636   1.266  0.00  0.00    +0.108 C 
ATOM     12  C   UNL     1      -3.012   1.137  -2.455  0.00  0.00    +0.162 C 
ATOM     13  O   UNL     1      -2.221   0.216  -2.505  0.00  0.00    -0.292 OA
ATOM     14  C   UNL     1      -3.658   1.625  -3.722  0.00  0.00    +0.080 C 
ATOM     15  C   UNL     1      -4.003   3.110  -3.566  0.00  0.00    +0.014 C 
ATOM     16  C   UNL     1      -4.902   3.273  -2.339  0.00  0.00    +0.052 C 
ENDROOT
BRANCH   9  17
ATOM     17  C   UNL     1      -1.192   1.730   0.037  0.00  0.00    +0.002 A 
ATOM     18  C   UNL     1      -0.021   1.048   0.024  0.00  0.00    +0.012 A 
ATOM     19  C   UNL     1       1.167   1.754   0.049  0.00  0.00    +0.008 A 
ATOM     20  C   UNL     1       1.125   3.109   0.092  0.00  0.00    +0.045 A 
ATOM     21  S   UNL     1      -0.632   3.424   0.098  0.00  0.00    -0.101 S 
ENDBRANCH   9  17
BRANCH  11  22
ATOM     22  N   UNL     1      -4.826   3.001   2.433  0.00  0.00    -0.345 N 
ATOM     23  H   UNL     1      -5.524   3.674   2.419  0.00  0.00    +0.144 HD
ATOM     24  H   UNL     1      -4.571   2.584   3.271  0.00  0.00    +0.144 HD
ENDBRANCH  11  22
BRANCH  10  25
ATOM     25  C   UNL     1      -3.040   0.912   2.487  0.00  0.00    +0.099 C 
ATOM     26  N   UNL     1      -2.827   0.358   3.456  0.00  0.00    -0.191 NA
ENDBRANCH  10  25
BRANCH   1  27
ATOM     27  S   UNL     1      -6.022   8.879   0.395  0.00  0.00    -0.094 S 
BRANCH  27  29
ATOM     28  C   UNL     1      -8.482   8.433   1.504  0.00  0.00    +0.019 C 
ATOM     29  C   UNL     1      -7.822   9.077   0.283  0.00  0.00    +0.047 C 
ATOM     30  C   UNL     1      -8.170  10.566   0.241  0.00  0.00    +0.019 C 
ENDBRANCH  27  29
ENDBRANCH   1  27
TORSDOF 5
