REMARK  Name = ZINC48707764
REMARK  4 active torsions:
REMARK  status: ('A' for Active; 'I' for Inactive)
REMARK    1  A    between atoms: C_1  and  C_2
REMARK    2  A    between atoms: C_2  and  C_3
REMARK    3  A    between atoms: C_2  and  C_4
REMARK    4  A    between atoms: C_6  and  C_9
REMARK                            x       y       z     vdW  Elec       q    Type
REMARK                         _______ _______ _______ _____ _____    ______ ____
ROOT
ATOM      1  C   UNL     1      -3.944  -2.542  -1.738  0.00  0.00    +0.209 C 
ATOM      2  N   UNL     1      -4.965  -3.357  -1.067  0.00  0.00    -0.320 N 
ATOM      3  C   UNL     1      -4.552  -4.449  -0.312  0.00  0.00    +0.041 A 
ATOM      4  C   UNL     1      -5.267  -4.893   0.786  0.00  0.00    +0.024 A 
ATOM      5  C   UNL     1      -4.811  -5.982   1.504  0.00  0.00    +0.002 A 
ATOM      6  C   UNL     1      -3.644  -6.632   1.133  0.00  0.00    +0.001 A 
ATOM      7  C   UNL     1      -2.920  -6.203   0.040  0.00  0.00    +0.015 A 
ATOM      8  C   UNL     1      -3.369  -5.107  -0.693  0.00  0.00    +0.058 A 
ATOM      9  C   UNL     1      -2.640  -4.612  -1.874  0.00  0.00    +0.247 C 
ATOM     10  O   UNL     1      -1.766  -5.286  -2.385  0.00  0.00    -0.270 OA
ATOM     11  N   UNL     1      -2.953  -3.405  -2.381  0.00  0.00    -0.288 N 
ATOM     12  H   UNL     1      -5.906  -3.137  -1.148  0.00  0.00    +0.148 HD
ATOM     13  H   UNL     1      -2.511  -3.102  -3.189  0.00  0.00    +0.151 HD
ENDROOT
BRANCH   1  16
ATOM     14  C   UNL     1      -1.412  -0.526   0.013  0.00  0.00    +0.081 A 
ATOM     15  N   UNL     1      -2.004  -1.288  -0.872  0.00  0.00    -0.245 NA
ATOM     16  C   UNL     1      -3.259  -1.665  -0.722  0.00  0.00    +0.087 A 
ATOM     17  C   UNL     1      -3.904  -1.227   0.389  0.00  0.00    +0.073 A 
ATOM     18  S   UNL     1      -2.610  -0.276   1.168  0.00  0.00    -0.080 S 
BRANCH  14  20
ATOM     19  C   UNL     1      -0.019   1.526   0.010  0.00  0.00    +0.014 C 
ATOM     20  C   UNL     1       0.002  -0.004   0.002  0.00  0.00    +0.038 C 
ATOM     21  C   UNL     1       0.742  -0.511   1.242  0.00  0.00    +0.014 C 
ENDBRANCH  14  20
ENDBRANCH   1  16
TORSDOF 2
