REMARK  Name = ZINC21604836
REMARK  9 active torsions:
REMARK  status: ('A' for Active; 'I' for Inactive)
REMARK    1  A    between atoms: C_1  and  C_2
REMARK    2  A    between atoms: N_13  and  C_28
REMARK    3  A    between atoms: C_14  and  S_16
REMARK    4  A    between atoms: S_16  and  C_17
REMARK    5  A    between atoms: C_17  and  C_19
REMARK    6  A    between atoms: C_17  and  C_20
REMARK    7  A    between atoms: C_28  and  C_29
REMARK    8  A    between atoms: C_29  and  C_30
REMARK    9  A    between atoms: C_29  and  C_31
REMARK                            x       y       z     vdW  Elec       q    Type
REMARK                         _______ _______ _______ _____ _____    ______ ____
ROOT
ATOM      1  C   UNL     1       0.934  10.205  -0.035  0.00  0.00    +0.008 C 
ATOM      2  C   UNL     1       0.609   8.740  -0.330  0.00  0.00    -0.009 C 
ATOM      3  C   UNL     1      -0.588   8.296   0.516  0.00  0.00    +0.008 C 
ATOM      4  C   UNL     1      -1.072   6.922   0.050  0.00  0.00    +0.037 C 
ATOM      5  C   UNL     1       0.114   5.962   0.033  0.00  0.00    -0.023 A 
ATOM      6  C   UNL     1       1.379   6.429   0.024  0.00  0.00    -0.004 A 
ATOM      7  S   UNL     1       2.404   4.983   0.006  0.00  0.00    -0.073 S 
ATOM      8  C   UNL     1       1.127   3.751   0.011  0.00  0.00    +0.117 A 
ATOM      9  C   UNL     1      -0.057   4.508   0.026  0.00  0.00    +0.076 A 
ATOM     10  C   UNL     1      -1.276   3.759   0.034  0.00  0.00    +0.263 A 
ATOM     11  O   UNL     1      -2.353   4.331   0.046  0.00  0.00    -0.267 OA
ATOM     12  N   UNL     1      -1.218   2.415   0.021  0.00  0.00    -0.287 N 
ATOM     13  C   UNL     1      -0.022   1.758   0.012  0.00  0.00    +0.173 A 
ATOM     14  N   UNL     1       1.116   2.423   0.004  0.00  0.00    -0.216 NA
ATOM     15  C   UNL     1       1.817   7.862   0.028  0.00  0.00    +0.046 C 
ENDROOT
BRANCH  13  16
ATOM     16  S   UNL     1       0.002  -0.004   0.002  0.00  0.00    -0.075 S 
BRANCH  16  17
ATOM     17  C   UNL     1       1.789  -0.294  -0.017  0.00  0.00    +0.137 C 
ATOM     18  C   UNL     1       2.402   0.219   1.288  0.00  0.00    +0.029 C 
BRANCH  17  19
ATOM     19  C   UNL     1       2.056  -1.771  -0.151  0.00  0.00    +0.236 C 
ATOM     20  O   UNL     1       1.192  -2.572   0.132  0.00  0.00    -0.274 OA
ATOM     21  N   UNL     1       3.257  -2.201  -0.586  0.00  0.00    -0.224 N 
ATOM     22  C   UNL     1       3.646  -3.609  -0.761  0.00  0.00    +0.136 C 
ATOM     23  C   UNL     1       5.098  -3.530  -1.271  0.00  0.00    +0.125 C 
ATOM     24  N   UNL     1       5.373  -2.087  -1.329  0.00  0.00    -0.297 N 
ATOM     25  C   UNL     1       4.284  -1.415  -0.933  0.00  0.00    +0.309 C 
ATOM     26  O   UNL     1       4.234  -0.201  -0.889  0.00  0.00    -0.252 OA
ATOM     27  H   UNL     1       6.358  -1.728  -1.662  0.00  0.00    +0.150 HD
ENDBRANCH  17  19
ENDBRANCH  16  17
ENDBRANCH  13  16
BRANCH  12  28
ATOM     28  C   UNL     1      -2.462   1.641   0.023  0.00  0.00    +0.130 C 
BRANCH  28  29
ATOM     29  C   UNL     1      -2.889   1.365   1.466  0.00  0.00    +0.003 C 
ATOM     30  C   UNL     1      -4.250   0.667   1.471  0.00  0.00    +0.009 C 
ATOM     31  C   UNL     1      -1.851   0.465   2.141  0.00  0.00    +0.009 C 
ENDBRANCH  28  29
ENDBRANCH  12  28
TORSDOF 5
