REMARK  Name = ZINC37698340
REMARK  7 active torsions:
REMARK  status: ('A' for Active; 'I' for Inactive)
REMARK    1  A    between atoms: C_1  and  C_2
REMARK    2  A    between atoms: C_2  and  C_4
REMARK    3  A    between atoms: C_2  and  N_22
REMARK    4  A    between atoms: C_8  and  O_10
REMARK    5  A    between atoms: O_10  and  C_11
REMARK    6  A    between atoms: C_11  and  C_12
REMARK    7  A    between atoms: C_15  and  N_19
REMARK                            x       y       z     vdW  Elec       q    Type
REMARK                         _______ _______ _______ _____ _____    ______ ____
ROOT
ATOM      1  C   UNL     1      -1.412  -0.526   0.013  0.00  0.00    -0.059 A 
ATOM      2  C   UNL     1      -2.123  -0.571   1.198  0.00  0.00    +0.002 A 
ATOM      3  C   UNL     1      -3.420  -1.049   1.211  0.00  0.00    +0.004 A 
ATOM      4  C   UNL     1      -4.009  -1.483   0.040  0.00  0.00    +0.045 A 
ATOM      5  C   UNL     1      -3.298  -1.439  -1.151  0.00  0.00    +0.121 A 
ATOM      6  C   UNL     1      -1.998  -0.953  -1.162  0.00  0.00    +0.047 A 
ENDROOT
BRANCH   1   8
ATOM      7  C   UNL     1      -0.019   1.526   0.010  0.00  0.00    -0.009 C 
ATOM      8  C   UNL     1       0.002  -0.004   0.002  0.00  0.00    -0.047 C 
BRANCH   8   9
ATOM      9  N   UNL     1       0.713  -0.491   1.192  0.00  0.00    +0.382 N 
ATOM     10  H   UNL     1       0.240  -0.165   2.022  0.00  0.00    -0.089 HD
ATOM     11  H   UNL     1       0.726  -1.500   1.187  0.00  0.00    -0.089 HD
ATOM     12  H   UNL     1       1.659  -0.141   1.185  0.00  0.00    -0.089 HD
ENDBRANCH   8   9
ENDBRANCH   1   8
BRANCH   5  13
ATOM     13  O   UNL     1      -3.876  -1.866  -2.305  0.00  0.00    -0.487 OA
BRANCH  13  14
ATOM     14  C   UNL     1      -5.218  -2.348  -2.219  0.00  0.00    +0.265 C 
BRANCH  14  15
ATOM     15  C   UNL     1      -5.687  -2.773  -3.586  0.00  0.00    +0.004 A 
ATOM     16  C   UNL     1      -4.840  -2.666  -4.673  0.00  0.00    +0.010 A 
ATOM     17  C   UNL     1      -5.270  -3.057  -5.926  0.00  0.00    +0.033 A 
ATOM     18  C   UNL     1      -6.548  -3.556  -6.095  0.00  0.00    +0.127 A 
ATOM     19  C   UNL     1      -7.396  -3.664  -5.009  0.00  0.00    +0.048 A 
ATOM     20  C   UNL     1      -6.965  -3.278  -3.753  0.00  0.00    +0.026 A 
ATOM     21 BR   UNL     1      -8.122  -3.432  -2.266  0.00  0.00    -0.050 Br
BRANCH  18  22
ATOM     22  N   UNL     1      -7.008  -3.974  -7.438  0.00  0.00    +0.056 N 
ATOM     23  O   UNL     1      -6.267  -3.879  -8.388  0.00  0.00    -0.126 OA
ATOM     24  O   UNL     1      -8.126  -4.410  -7.585  0.00  0.00    -0.126 OA
ENDBRANCH  18  22
ENDBRANCH  14  15
ENDBRANCH  13  14
ENDBRANCH   5  13
TORSDOF 6
