REMARK  Name = ZINC20566478
REMARK  7 active torsions:
REMARK  status: ('A' for Active; 'I' for Inactive)
REMARK    1  A    between atoms: C_1  and  C_2
REMARK    2  A    between atoms: C_2  and  C_3
REMARK    3  A    between atoms: C_2  and  C_4
REMARK    4  A    between atoms: N_12  and  C_15
REMARK    5  A    between atoms: C_15  and  C_16
REMARK    6  A    between atoms: C_16  and  O_17
REMARK    7  A    between atoms: O_17  and  C_18
REMARK                            x       y       z     vdW  Elec       q    Type
REMARK                         _______ _______ _______ _____ _____    ______ ____
ROOT
ATOM      1  C   UNL     1       0.742  -0.511   1.242  0.00  0.00    +0.070 C 
ATOM      2  C   UNL     1       0.742  -2.054   1.274  0.00  0.00    +0.107 C 
ATOM      3  C   UNL     1       0.579  -2.421   2.775  0.00  0.00    +0.122 C 
ATOM      4  C   UNL     1       1.894  -3.083   3.117  0.00  0.00    +0.228 C 
ATOM      5  O   UNL     1       2.194  -3.525   4.206  0.00  0.00    -0.275 OA
ATOM      6  N   UNL     1       2.675  -3.107   2.031  0.00  0.00    -0.239 N 
ATOM      7  C   UNL     1       2.124  -2.558   0.924  0.00  0.00    +0.227 C 
ATOM      8  O   UNL     1       2.644  -2.475  -0.168  0.00  0.00    -0.275 OA
ATOM      9  C   UNL     1       0.460  -1.071   3.492  0.00  0.00    +0.136 C 
ATOM     10  N   UNL     1       0.023  -0.102   2.477  0.00  0.00    -0.295 NA
ATOM     11  C   UNL     1      -0.493  -1.145   4.652  0.00  0.00    +0.005 A 
ATOM     12  C   UNL     1      -1.826  -1.472   4.764  0.00  0.00    +0.027 A 
ATOM     13  C   UNL     1      -2.443  -1.448   6.003  0.00  0.00    +0.041 A 
ATOM     14  C   UNL     1      -1.717  -1.094   7.127  0.00  0.00    +0.022 A 
ATOM     15  C   UNL     1      -0.382  -0.765   7.018  0.00  0.00    +0.025 A 
ATOM     16  C   UNL     1       0.247  -0.788   5.775  0.00  0.00    +0.039 A 
ATOM     17  N   UNL     1       1.566  -0.503   5.414  0.00  0.00    -0.283 N 
ATOM     18  C   UNL     1       1.773  -0.647   4.091  0.00  0.00    +0.243 C 
ATOM     19  O   UNL     1       2.816  -0.471   3.498  0.00  0.00    -0.273 OA
ATOM     20 CL   UNL     1      -4.123  -1.860   6.147  0.00  0.00    -0.084 Cl
ATOM     21  H   UNL     1       0.265   0.842   2.741  0.00  0.00    +0.124 HD
ATOM     22  H   UNL     1       2.253  -0.233   6.043  0.00  0.00    +0.155 HD
ENDROOT
BRANCH   1  24
ATOM     23  C   UNL     1      -0.019   1.526   0.010  0.00  0.00    +0.009 C 
ATOM     24  C   UNL     1       0.002  -0.004   0.002  0.00  0.00    +0.001 C 
ATOM     25  C   UNL     1       0.718  -0.497  -1.257  0.00  0.00    +0.009 C 
ENDBRANCH   1  24
BRANCH   6  26
ATOM     26  C   UNL     1       4.020  -3.688   2.036  0.00  0.00    +0.144 C 
BRANCH  26  27
ATOM     27  C   UNL     1       3.936  -5.171   1.668  0.00  0.00    +0.179 C 
BRANCH  27  28
ATOM     28  O   UNL     1       3.472  -5.303   0.323  0.00  0.00    -0.381 OA
ATOM     29  C   UNL     1       3.357  -6.656  -0.122  0.00  0.00    +0.194 C 
ENDBRANCH  27  28
ENDBRANCH  26  27
ENDBRANCH   6  26
TORSDOF 4
