REMARK  Name = ZINC45561593
REMARK  6 active torsions:
REMARK  status: ('A' for Active; 'I' for Inactive)
REMARK    1  A    between atoms: C_6  and  C_7
REMARK    2  A    between atoms: N_9  and  C_10
REMARK    3  A    between atoms: C_10  and  C_11
REMARK    4  A    between atoms: C_11  and  O_13
REMARK    5  A    between atoms: O_13  and  C_14
REMARK    6  A    between atoms: C_14  and  C_15
REMARK                            x       y       z     vdW  Elec       q    Type
REMARK                         _______ _______ _______ _____ _____    ______ ____
ROOT
ATOM      1  C   UNL     1      -3.100  -6.296  -0.018  0.00  0.00    +0.308 C 
ENDROOT
BRANCH   1   2
ATOM      2  C   UNL     1      -4.219  -7.305  -0.003  0.00  0.00    +0.170 A 
ATOM      3  N   UNL     1      -4.743  -7.672   1.153  0.00  0.00    -0.214 NA
ATOM      4  C   UNL     1      -5.726  -8.554   1.233  0.00  0.00    +0.128 A 
ATOM      5  C   UNL     1      -6.240  -9.128   0.037  0.00  0.00    +0.051 A 
ATOM      6  C   UNL     1      -7.312 -10.113  -0.120  0.00  0.00    -0.025 A 
ATOM      7  C   UNL     1      -7.610 -10.496  -1.378  0.00  0.00    -0.004 A 
ATOM      8  S   UNL     1      -6.500  -9.584  -2.416  0.00  0.00    -0.073 S 
ATOM      9  C   UNL     1      -5.632  -8.687  -1.155  0.00  0.00    +0.114 A 
ATOM     10  N   UNL     1      -4.658  -7.798  -1.145  0.00  0.00    -0.221 NA
ATOM     11  C   UNL     1      -8.655 -11.483  -1.802  0.00  0.00    +0.043 C 
ATOM     12  C   UNL     1      -9.097 -12.282  -0.568  0.00  0.00    +0.005 C 
ATOM     13  C   UNL     1      -9.380 -11.302   0.575  0.00  0.00    +0.005 C 
ATOM     14  C   UNL     1      -8.069 -10.692   1.071  0.00  0.00    +0.037 C 
ATOM     15  N   UNL     1      -6.248  -8.912   2.463  0.00  0.00    -0.343 N 
ATOM     16  H   UNL     1      -6.066  -8.367   3.244  0.00  0.00    +0.144 HD
ATOM     17  H   UNL     1      -6.795  -9.709   2.544  0.00  0.00    +0.144 HD
ENDBRANCH   1   2
BRANCH   1  18
ATOM     18  O   UNL     1      -3.647  -4.979  -0.107  0.00  0.00    -0.456 OA
BRANCH  18  19
ATOM     19  C   UNL     1      -2.776  -3.958  -0.131  0.00  0.00    +0.325 C 
ATOM     20  O   UNL     1      -1.589  -4.175  -0.078  0.00  0.00    -0.249 OA
BRANCH  19  21
ATOM     21  C   UNL     1      -3.280  -2.540  -0.224  0.00  0.00    +0.225 C 
BRANCH  21  24
ATOM     22  C   UNL     1      -2.353  -0.288  -0.312  0.00  0.00    +0.245 C 
ATOM     23  O   UNL     1      -3.487   0.144  -0.375  0.00  0.00    -0.270 OA
ATOM     24  N   UNL     1      -2.142  -1.617  -0.234  0.00  0.00    -0.301 N 
ATOM     25  H   UNL     1      -1.237  -1.963  -0.183  0.00  0.00    +0.150 HD
BRANCH  22  31
ATOM     26  C   UNL     1      -1.420   2.019  -0.402  0.00  0.00    +0.014 A 
ATOM     27  C   UNL     1      -0.345   2.883  -0.410  0.00  0.00    +0.016 A 
ATOM     28  C   UNL     1       0.946   2.387  -0.338  0.00  0.00    +0.018 A 
ATOM     29  C   UNL     1       1.166   1.022  -0.257  0.00  0.00    +0.016 A 
ATOM     30  C   UNL     1       0.099   0.148  -0.249  0.00  0.00    +0.014 A 
ATOM     31  C   UNL     1      -1.205   0.642  -0.321  0.00  0.00    +0.037 A 
ATOM     32 BR   UNL     1       2.414   3.578  -0.350  0.00  0.00    -0.050 Br
ENDBRANCH  22  31
ENDBRANCH  21  24
ENDBRANCH  19  21
ENDBRANCH  18  19
ENDBRANCH   1  18
TORSDOF 6
