REMARK  Name = ZINC16807685
REMARK  9 active torsions:
REMARK  status: ('A' for Active; 'I' for Inactive)
REMARK    1  A    between atoms: C_1  and  C_2
REMARK    2  A    between atoms: C_5  and  S_8
REMARK    3  A    between atoms: S_8  and  N_11
REMARK    4  A    between atoms: N_11  and  C_12
REMARK    5  A    between atoms: C_14  and  N_20
REMARK    6  A    between atoms: C_15  and  O_19
REMARK    7  A    between atoms: C_17  and  C_18
REMARK    8  A    between atoms: C_21  and  C_30
REMARK    9  A    between atoms: C_22  and  C_29
REMARK                            x       y       z     vdW  Elec       q    Type
REMARK                         _______ _______ _______ _____ _____    ______ ____
ROOT
ATOM      1  C   UNL     1      -1.133   3.198   2.454  0.00  0.00    +0.053 A 
ATOM      2  C   UNL     1      -0.497   4.340   1.986  0.00  0.00    +0.054 A 
ATOM      3  C   UNL     1       0.336   5.062   2.827  0.00  0.00    +0.090 A 
ATOM      4  C   UNL     1       0.532   4.639   4.140  0.00  0.00    +0.141 A 
ATOM      5  C   UNL     1      -0.105   3.500   4.603  0.00  0.00    +0.052 A 
ATOM      6  C   UNL     1      -0.940   2.784   3.765  0.00  0.00    -0.025 A 
ATOM      7  C   UNL     1      -1.635   1.548   4.274  0.00  0.00    +0.046 C 
ENDROOT
BRANCH   3   8
ATOM      8  N   UNL     1       0.980   6.215   2.357  0.00  0.00    -0.310 N 
ATOM      9  C   UNL     1       2.216   6.242   1.768  0.00  0.00    +0.025 A 
ATOM     10  C   UNL     1       2.536   7.502   1.433  0.00  0.00    -0.022 A 
ATOM     11  C   UNL     1       1.419   8.354   1.848  0.00  0.00    +0.003 A 
ATOM     12  C   UNL     1       0.466   7.493   2.424  0.00  0.00    +0.054 A 
ATOM     13  C   UNL     1      -0.721   8.023   2.917  0.00  0.00    +0.027 A 
ATOM     14  C   UNL     1      -0.950   9.379   2.838  0.00  0.00    +0.002 A 
ATOM     15  C   UNL     1      -0.007  10.224   2.269  0.00  0.00    +0.001 A 
ATOM     16  C   UNL     1       1.166   9.725   1.777  0.00  0.00    +0.010 A 
ATOM     17  C   UNL     1       3.807   7.955   0.761  0.00  0.00    +0.046 C 
ATOM     18  C   UNL     1       3.086   5.035   1.528  0.00  0.00    +0.064 C 
ENDBRANCH   3   8
BRANCH   1  19
ATOM     19  N   UNL     1      -1.974   2.469   1.607  0.00  0.00    -0.216 N 
ATOM     20  H   UNL     1      -2.771   2.044   1.962  0.00  0.00    +0.174 HD
BRANCH  19  21
ATOM     21  S   UNL     1      -1.610   2.330  -0.003  0.00  0.00    +0.072 S 
ATOM     22  O   UNL     1      -1.425   3.652  -0.492  0.00  0.00    -0.150 OA
ATOM     23  O   UNL     1      -2.565   1.438  -0.560  0.00  0.00    -0.150 OA
BRANCH  21  28
ATOM     24  C   UNL     1       3.746  -0.418  -0.408  0.00  0.00    +0.044 C 
ATOM     25  C   UNL     1       2.409   0.269  -0.305  0.00  0.00    -0.050 A 
ATOM     26  C   UNL     1       1.247  -0.481  -0.287  0.00  0.00    +0.005 A 
ATOM     27  C   UNL     1       0.020   0.149  -0.193  0.00  0.00    +0.029 A 
ATOM     28  C   UNL     1      -0.045   1.528  -0.116  0.00  0.00    +0.109 A 
ATOM     29  C   UNL     1       1.116   2.277  -0.133  0.00  0.00    +0.029 A 
ATOM     30  C   UNL     1       2.343   1.647  -0.229  0.00  0.00    +0.005 A 
ENDBRANCH  21  28
ENDBRANCH  19  21
ENDBRANCH   1  19
BRANCH   4  31
ATOM     31  O   UNL     1       1.349   5.346   4.967  0.00  0.00    -0.505 OA
ATOM     32  H   UNL     1       0.898   6.040   5.467  0.00  0.00    +0.292 HD
ENDBRANCH   4  31
TORSDOF 5
