REMARK  Name = ZINC36648051
REMARK  10 active torsions:
REMARK  status: ('A' for Active; 'I' for Inactive)
REMARK    1  A    between atoms: C_1  and  C_2
REMARK    2  A    between atoms: C_2  and  N_3
REMARK    3  A    between atoms: N_3  and  C_4
REMARK    4  A    between atoms: N_3  and  C_6
REMARK    5  A    between atoms: C_4  and  C_5
REMARK    6  A    between atoms: C_6  and  C_7
REMARK    7  A    between atoms: C_7  and  N_8
REMARK    8  A    between atoms: C_19  and  C_21
REMARK    9  A    between atoms: N_27  and  S_28
REMARK   10  A    between atoms: S_28  and  C_31
REMARK                            x       y       z     vdW  Elec       q    Type
REMARK                         _______ _______ _______ _____ _____    ______ ____
ROOT
ATOM      1  N   UNL     1      -2.616  -4.175  -0.171  0.00  0.00    -0.251 N 
ATOM      2  C   UNL     1      -2.760  -5.004   0.930  0.00  0.00    +0.168 A 
ATOM      3  N   UNL     1      -2.875  -4.678   2.196  0.00  0.00    -0.224 NA
ATOM      4  C   UNL     1      -3.011  -5.600   3.175  0.00  0.00    +0.080 A 
ATOM      5  C   UNL     1      -3.142  -5.384   4.566  0.00  0.00    +0.032 A 
ATOM      6  C   UNL     1      -3.270  -6.439   5.430  0.00  0.00    +0.040 A 
ATOM      7  C   UNL     1      -3.275  -7.752   4.976  0.00  0.00    +0.125 A 
ATOM      8  C   UNL     1      -3.149  -8.000   3.620  0.00  0.00    +0.055 A 
ATOM      9  C   UNL     1      -3.021  -6.948   2.748  0.00  0.00    +0.043 A 
ATOM     10  S   UNL     1      -2.844  -6.788   0.987  0.00  0.00    -0.052 S 
ATOM     11  F   UNL     1      -3.402  -8.776   5.848  0.00  0.00    -0.205 F 
ATOM     12  C   UNL     1      -2.519  -4.707  -1.406  0.00  0.00    +0.240 C 
ATOM     13  O   UNL     1      -2.637  -5.903  -1.562  0.00  0.00    -0.273 OA
ENDROOT
BRANCH  12  14
ATOM     14  C   UNL     1      -2.263  -3.813  -2.592  0.00  0.00    +0.166 C 
ATOM     15  C   UNL     1      -3.436  -3.913  -3.572  0.00  0.00    +0.030 C 
ATOM     16  C   UNL     1      -3.108  -3.114  -4.836  0.00  0.00    +0.003 C 
ATOM     17  C   UNL     1      -1.867  -3.705  -5.508  0.00  0.00    +0.017 C 
ATOM     18  C   UNL     1      -0.676  -3.603  -4.549  0.00  0.00    +0.110 C 
ATOM     19  N   UNL     1      -1.034  -4.241  -3.275  0.00  0.00    -0.164 NA
BRANCH  19  20
ATOM     20  S   UNL     1      -0.075  -5.424  -2.624  0.00  0.00    +0.068 S 
ATOM     21  O   UNL     1       1.235  -5.210  -3.132  0.00  0.00    -0.152 OA
ATOM     22  O   UNL     1      -0.357  -5.454  -1.232  0.00  0.00    -0.152 OA
BRANCH  20  23
ATOM     23  C   UNL     1      -0.625  -6.963  -3.283  0.00  0.00    +0.143 A 
ATOM     24  C   UNL     1      -0.215  -7.608  -4.402  0.00  0.00    +0.036 A 
ATOM     25  C   UNL     1      -0.795  -8.820  -4.728  0.00  0.00    +0.010 A 
ATOM     26  C   UNL     1      -1.756  -9.328  -3.918  0.00  0.00    +0.047 A 
ATOM     27  S   UNL     1      -1.862  -8.081  -2.644  0.00  0.00    -0.077 S 
ENDBRANCH  20  23
ENDBRANCH  19  20
ENDBRANCH  12  14
BRANCH   1  28
ATOM     28  C   UNL     1      -2.569  -2.722   0.007  0.00  0.00    +0.097 C 
BRANCH  28  29
ATOM     29  C   UNL     1      -3.963  -2.135  -0.226  0.00  0.00    -0.059 C 
BRANCH  29  30
ATOM     30  N   UNL     1      -3.944  -0.697   0.075  0.00  0.00    +0.380 N 
ATOM     31  H   UNL     1      -3.589  -0.552   1.008  0.00  0.00    -0.082 HD
BRANCH  30  33
ATOM     32  C   UNL     1      -2.961   1.470  -0.505  0.00  0.00    -0.017 C 
ATOM     33  C   UNL     1      -3.079  -0.006  -0.891  0.00  0.00    -0.082 C 
ENDBRANCH  30  33
BRANCH  30  34
ATOM     34  C   UNL     1      -5.309  -0.160  -0.018  0.00  0.00    -0.082 C 
ATOM     35  C   UNL     1      -6.168  -0.754   1.100  0.00  0.00    -0.017 C 
ENDBRANCH  30  34
ENDBRANCH  29  30
ENDBRANCH  28  29
ENDBRANCH   1  28
TORSDOF 8
