REMARK  Name = ZINC61822104
REMARK  3 active torsions:
REMARK  status: ('A' for Active; 'I' for Inactive)
REMARK    1  A    between atoms: C_3  and  N_20
REMARK    2  A    between atoms: C_5  and  C_8
REMARK    3  A    between atoms: C_8  and  N_9
REMARK                            x       y       z     vdW  Elec       q    Type
REMARK                         _______ _______ _______ _____ _____    ______ ____
ROOT
ATOM      1  N   UNL     1       1.266  -2.667   1.361  0.00  0.00    +0.383 N 
ATOM      2  C   UNL     1       2.515  -2.250   2.009  0.00  0.00    -0.078 C 
ATOM      3  C   UNL     1       2.508  -2.696   3.473  0.00  0.00    -0.012 C 
ATOM      4  C   UNL     1       2.381  -4.220   3.536  0.00  0.00    -0.033 C 
ATOM      5  C   UNL     1       3.602  -4.862   2.875  0.00  0.00    +0.007 C 
ATOM      6  C   UNL     1       3.473  -6.385   2.936  0.00  0.00    +0.001 C 
ATOM      7  C   UNL     1       3.388  -6.832   4.397  0.00  0.00    +0.000 C 
ATOM      8  C   UNL     1       2.166  -6.190   5.056  0.00  0.00    +0.001 C 
ATOM      9  C   UNL     1       2.294  -4.667   4.996  0.00  0.00    +0.007 C 
ATOM     10  C   UNL     1       1.113  -4.650   2.793  0.00  0.00    -0.012 C 
ATOM     11  C   UNL     1       1.172  -4.132   1.354  0.00  0.00    -0.078 C 
ATOM     12  H   UNL     1       0.482  -2.284   1.867  0.00  0.00    -0.081 HD
ENDROOT
BRANCH   1  13
ATOM     13  C   UNL     1       1.244  -2.171  -0.021  0.00  0.00    -0.021 C 
BRANCH  13  18
ATOM     14  C   UNL     1      -0.017   1.385   0.010  0.00  0.00    +0.025 A 
ATOM     15  C   UNL     1       1.190   2.062   0.002  0.00  0.00    +0.045 A 
ATOM     16  C   UNL     1       2.374   1.333  -0.013  0.00  0.00    +0.116 A 
ATOM     17  N   UNL     1       2.351   0.009  -0.020  0.00  0.00    -0.238 NA
ATOM     18  C   UNL     1       1.216  -0.664  -0.013  0.00  0.00    +0.045 A 
ATOM     19  C   UNL     1       0.002  -0.004   0.002  0.00  0.00    +0.060 A 
ATOM     20 CL   UNL     1      -1.484  -0.901   0.012  0.00  0.00    -0.082 Cl
BRANCH  16  21
ATOM     21  N   UNL     1       3.594   2.000  -0.022  0.00  0.00    -0.343 N 
ATOM     22  H   UNL     1       3.616   2.970  -0.017  0.00  0.00    +0.144 HD
ATOM     23  H   UNL     1       4.423   1.496  -0.033  0.00  0.00    +0.144 HD
ENDBRANCH  16  21
ENDBRANCH  13  18
ENDBRANCH   1  13
TORSDOF 3
