REMARK  Name = ZINC15946361
REMARK  8 active torsions:
REMARK  status: ('A' for Active; 'I' for Inactive)
REMARK    1  A    between atoms: C_1  and  C_2
REMARK    2  A    between atoms: C_2  and  C_3
REMARK    3  A    between atoms: C_2  and  N_4
REMARK    4  A    between atoms: C_12  and  O_31
REMARK    5  A    between atoms: C_14  and  C_17
REMARK    6  A    between atoms: C_20  and  O_23
REMARK    7  A    between atoms: O_23  and  C_24
REMARK    8  A    between atoms: C_24  and  C_25
REMARK                            x       y       z     vdW  Elec       q    Type
REMARK                         _______ _______ _______ _____ _____    ______ ____
ROOT
ATOM      1  N   UNL     1       0.821  -0.225   1.202  0.00  0.00    +0.384 N 
ATOM      2  C   UNL     1       1.175  -1.647   1.297  0.00  0.00    -0.073 C 
ATOM      3  C   UNL     1       2.272  -1.849   2.348  0.00  0.00    +0.018 C 
ATOM      4  C   UNL     1       1.815  -1.180   3.637  0.00  0.00    -0.027 A 
ATOM      5  C   UNL     1       0.809  -0.273   3.610  0.00  0.00    -0.021 A 
ATOM      6  S   UNL     1       0.614   0.234   5.294  0.00  0.00    -0.080 S 
ATOM      7  C   UNL     1       1.791  -0.699   5.999  0.00  0.00    +0.080 A 
ATOM      8  C   UNL     1       2.373  -1.425   4.951  0.00  0.00    +0.067 A 
ATOM      9  C   UNL     1       3.485  -2.348   5.294  0.00  0.00    +0.220 C 
ATOM     10  N   UNL     1       3.684  -2.615   6.556  0.00  0.00    -0.223 NA
ATOM     11  C   UNL     1       2.853  -2.122   7.647  0.00  0.00    +0.224 C 
ATOM     12  N   UNL     1       2.210  -0.840   7.302  0.00  0.00    -0.313 N 
ATOM     13  C   UNL     1       0.057   0.177   2.398  0.00  0.00    -0.035 C 
ATOM     14  H   UNL     1       2.090  -0.136   7.958  0.00  0.00    +0.149 HD
ATOM     15  H   UNL     1       1.663   0.327   1.140  0.00  0.00    -0.081 HD
ENDROOT
BRANCH  11  16
ATOM     16  C   UNL     1       1.785  -3.140   7.950  0.00  0.00    -0.005 A 
ATOM     17  C   UNL     1       0.557  -2.729   8.437  0.00  0.00    +0.011 A 
ATOM     18  C   UNL     1      -0.423  -3.661   8.716  0.00  0.00    +0.046 A 
ATOM     19  C   UNL     1      -0.176  -5.010   8.509  0.00  0.00    +0.121 A 
ATOM     20  C   UNL     1       1.056  -5.420   8.020  0.00  0.00    +0.046 A 
ATOM     21  C   UNL     1       2.031  -4.484   7.737  0.00  0.00    +0.011 A 
BRANCH  19  22
ATOM     22  O   UNL     1      -1.140  -5.928   8.784  0.00  0.00    -0.487 OA
BRANCH  22  23
ATOM     23  C   UNL     1      -0.815  -7.300   8.545  0.00  0.00    +0.264 C 
BRANCH  23  24
ATOM     24  C   UNL     1      -1.996  -8.165   8.905  0.00  0.00    -0.010 A 
ATOM     25  C   UNL     1      -2.128  -8.654  10.191  0.00  0.00    +0.007 A 
ATOM     26  C   UNL     1      -3.211  -9.448  10.521  0.00  0.00    +0.000 A 
ATOM     27  C   UNL     1      -4.161  -9.752   9.564  0.00  0.00    +0.000 A 
ATOM     28  C   UNL     1      -4.030  -9.262   8.278  0.00  0.00    +0.000 A 
ATOM     29  C   UNL     1      -2.949  -8.465   7.950  0.00  0.00    +0.007 A 
ENDBRANCH  23  24
ENDBRANCH  22  23
ENDBRANCH  19  22
ENDBRANCH  11  16
BRANCH   1  31
ATOM     30  C   UNL     1      -0.450   1.457  -0.045  0.00  0.00    -0.014 C 
ATOM     31  C   UNL     1       0.002  -0.004   0.002  0.00  0.00    -0.074 C 
ATOM     32  C   UNL     1       0.829  -0.323  -1.245  0.00  0.00    -0.014 C 
ENDBRANCH   1  31
BRANCH   9  33
ATOM     33  O   UNL     1       4.264  -2.893   4.332  0.00  0.00    -0.492 OA
ATOM     34  H   UNL     1       4.956  -3.478   4.670  0.00  0.00    +0.294 HD
ENDBRANCH   9  33
TORSDOF 6
