REMARK  Name = ZINC66254081
REMARK  5 active torsions:
REMARK  status: ('A' for Active; 'I' for Inactive)
REMARK    1  A    between atoms: C_1  and  C_2
REMARK    2  A    between atoms: C_2  and  C_3
REMARK    3  A    between atoms: C_4  and  C_24
REMARK    4  A    between atoms: N_8  and  S_9
REMARK    5  A    between atoms: S_9  and  C_12
REMARK                            x       y       z     vdW  Elec       q    Type
REMARK                         _______ _______ _______ _____ _____    ______ ____
ROOT
ATOM      1  S   UNL     1       4.524  -1.825   4.022  0.00  0.00    +0.080 S 
ATOM      2  O   UNL     1       4.162  -0.814   4.953  0.00  0.00    -0.151 OA
ATOM      3  O   UNL     1       3.971  -3.130   4.118  0.00  0.00    -0.151 OA
ENDROOT
BRANCH   1   4
ATOM      4  C   UNL     1       6.330  -1.921   3.874  0.00  0.00    +0.208 C 
ATOM      5  C   UNL     1       6.912  -2.491   5.186  0.00  0.00    +0.205 C 
ATOM      6  S   UNL     1       7.309  -0.916   6.053  0.00  0.00    -0.001 S 
ATOM      7  O   UNL     1       8.614  -0.958   6.615  0.00  0.00    -0.169 OA
ATOM      8  O   UNL     1       6.194  -0.450   6.799  0.00  0.00    -0.169 OA
ATOM      9  C   UNL     1       7.426   0.149   4.632  0.00  0.00    +0.093 A 
ATOM     10  C   UNL     1       6.872  -0.545   3.572  0.00  0.00    +0.005 A 
ATOM     11  C   UNL     1       6.866   0.096   2.329  0.00  0.00    +0.007 A 
ATOM     12  C   UNL     1       7.381   1.362   2.178  0.00  0.00    +0.000 A 
ATOM     13  C   UNL     1       7.919   2.037   3.258  0.00  0.00    +0.002 A 
ATOM     14  C   UNL     1       7.938   1.418   4.487  0.00  0.00    +0.027 A 
ENDBRANCH   1   4
BRANCH   1  20
ATOM     15  C   UNL     1       0.731  -0.503   1.223  0.00  0.00    +0.027 A 
ATOM     16  C   UNL     1       0.045  -0.840   2.315  0.00  0.00    +0.009 A 
ATOM     17  S   UNL     1       1.342  -1.349   3.432  0.00  0.00    -0.053 S 
ATOM     18  C   UNL     1       2.728  -1.070   2.339  0.00  0.00    +0.191 A 
ATOM     19  N   UNL     1       2.090  -0.615   1.205  0.00  0.00    -0.336 N 
ATOM     20  N   UNL     1       4.007  -1.254   2.556  0.00  0.00    -0.107 NA
ATOM     21  C   UNL     1      -1.444  -0.800   2.548  0.00  0.00    +0.053 C 
ATOM     22  H   UNL     1       2.597  -0.376   0.413  0.00  0.00    +0.168 HD
BRANCH  15  24
ATOM     23  C   UNL     1      -0.019   1.526   0.010  0.00  0.00    +0.010 C 
ATOM     24  C   UNL     1       0.002  -0.004   0.002  0.00  0.00    +0.050 C 
ENDBRANCH  15  24
ENDBRANCH   1  20
TORSDOF 3
