REMARK  Name = ZINC39631846
REMARK  13 active torsions:
REMARK  status: ('A' for Active; 'I' for Inactive)
REMARK    1  A    between atoms: C_1  and  C_2
REMARK    2  A    between atoms: C_2  and  C_4
REMARK    3  A    between atoms: C_2  and  N_11
REMARK    4  A    between atoms: C_4  and  C_5
REMARK    5  A    between atoms: C_5  and  C_6
REMARK    6  A    between atoms: C_6  and  C_7
REMARK    7  A    between atoms: C_7  and  C_8
REMARK    8  A    between atoms: C_7  and  C_9
REMARK    9  A    between atoms: C_7  and  O_10
REMARK   10  A    between atoms: C_12  and  C_14
REMARK   11  A    between atoms: C_25  and  C_27
REMARK   12  A    between atoms: C_32  and  S_33
REMARK   13  A    between atoms: S_33  and  C_34
REMARK                            x       y       z     vdW  Elec       q    Type
REMARK                         _______ _______ _______ _____ _____    ______ ____
ROOT
ATOM      1  C   UNL     1       5.712  -3.016  -5.714  0.00  0.00    +0.100 C 
ATOM      2  C   UNL     1       5.095  -4.372  -6.122  0.00  0.00    +0.121 C 
ATOM      3  N   UNL     1       3.980  -4.017  -7.032  0.00  0.00    -0.296 N 
ATOM      4  C   UNL     1       4.509  -2.894  -7.843  0.00  0.00    +0.115 C 
ATOM      5  C   UNL     1       5.329  -2.050  -6.848  0.00  0.00    -0.004 C 
ATOM      6  C   UNL     1       6.583  -1.505  -7.525  0.00  0.00    -0.010 C 
ATOM      7  C   UNL     1       6.177  -0.502  -8.609  0.00  0.00    -0.082 C 
ATOM      8  N   UNL     1       5.409   0.592  -8.004  0.00  0.00    +0.379 N 
ATOM      9  C   UNL     1       4.159   0.072  -7.436  0.00  0.00    -0.082 C 
ATOM     10  C   UNL     1       4.479  -0.906  -6.302  0.00  0.00    -0.010 C 
ATOM     11  C   UNL     1       2.760  -4.586  -7.105  0.00  0.00    +0.249 C 
ATOM     12  O   UNL     1       1.949  -4.184  -7.917  0.00  0.00    -0.270 OA
ATOM     13  H   UNL     1       5.956   1.021  -7.273  0.00  0.00    -0.086 HD
ATOM     14  H   UNL     1       5.196   1.281  -8.709  0.00  0.00    -0.086 HD
ENDROOT
BRANCH  11  15
ATOM     15  C   UNL     1       2.410  -5.696  -6.201  0.00  0.00    +0.069 A 
ATOM     16  C   UNL     1       2.279  -5.480  -4.824  0.00  0.00    +0.017 A 
ATOM     17  C   UNL     1       1.948  -6.555  -4.019  0.00  0.00    +0.020 A 
ATOM     18  C   UNL     1       1.757  -7.802  -4.589  0.00  0.00    +0.112 A 
ATOM     19  N   UNL     1       1.885  -7.986  -5.888  0.00  0.00    -0.248 NA
ATOM     20  C   UNL     1       2.196  -6.990  -6.706  0.00  0.00    +0.114 A 
BRANCH  20  21
ATOM     21  S   UNL     1       2.347  -7.292  -8.436  0.00  0.00    -0.069 S 
BRANCH  21  22
ATOM     22  C   UNL     1       1.857  -8.975  -8.619  0.00  0.00    +0.014 A 
ATOM     23  C   UNL     1       0.513  -9.298  -8.759  0.00  0.00    +0.015 A 
ATOM     24  C   UNL     1       0.133 -10.617  -8.903  0.00  0.00    +0.001 A 
ATOM     25  C   UNL     1       1.088 -11.617  -8.908  0.00  0.00    +0.000 A 
ATOM     26  C   UNL     1       2.427 -11.300  -8.768  0.00  0.00    +0.001 A 
ATOM     27  C   UNL     1       2.815  -9.982  -8.630  0.00  0.00    +0.015 A 
ENDBRANCH  21  22
ENDBRANCH  20  21
ENDBRANCH  11  15
BRANCH   1  29
ATOM     28  N   UNL     1       5.836  -1.716  -3.613  0.00  0.00    -0.312 N 
ATOM     29  C   UNL     1       5.130  -2.547  -4.406  0.00  0.00    +0.218 C 
ATOM     30  O   UNL     1       4.026  -2.917  -4.066  0.00  0.00    -0.275 OA
ATOM     31  H   UNL     1       6.683  -1.356  -3.920  0.00  0.00    +0.149 HD
BRANCH  28  33
ATOM     32  C   UNL     1       4.361  -0.177  -2.415  0.00  0.00    +0.028 C 
ATOM     33  C   UNL     1       5.325  -1.358  -2.288  0.00  0.00    +0.070 C 
BRANCH  33  34
ATOM     34  C   UNL     1       6.493  -0.967  -1.379  0.00  0.00    +0.022 C 
BRANCH  34  35
ATOM     35  C   UNL     1       7.523  -2.097  -1.358  0.00  0.00    +0.005 C 
BRANCH  35  36
ATOM     36  C   UNL     1       8.628  -1.762  -0.354  0.00  0.00    +0.034 C 
BRANCH  36  37
ATOM     37  C   UNL     1       9.636  -2.912  -0.301  0.00  0.00    +0.061 C 
ATOM     38  C   UNL     1      10.907  -2.443   0.410  0.00  0.00    +0.041 C 
ATOM     39  C   UNL     1       9.027  -4.088   0.466  0.00  0.00    +0.041 C 
BRANCH  37  40
ATOM     40  O   UNL     1       9.957  -3.325  -1.630  0.00  0.00    -0.389 OA
ATOM     41  H   UNL     1      10.417  -2.652  -2.151  0.00  0.00    +0.210 HD
ENDBRANCH  37  40
ENDBRANCH  36  37
ENDBRANCH  35  36
ENDBRANCH  34  35
ENDBRANCH  33  34
ENDBRANCH  28  33
ENDBRANCH   1  29
TORSDOF 10
