REMARK  Name = ZINC23554891
REMARK  8 active torsions:
REMARK  status: ('A' for Active; 'I' for Inactive)
REMARK    1  A    between atoms: C_3  and  C_6
REMARK    2  A    between atoms: C_6  and  C_8
REMARK    3  A    between atoms: C_6  and  N_29
REMARK    4  A    between atoms: C_8  and  N_9
REMARK    5  A    between atoms: C_10  and  C_12
REMARK    6  A    between atoms: C_15  and  N_18
REMARK    7  A    between atoms: N_18  and  S_19
REMARK    8  A    between atoms: S_19  and  C_22
REMARK                            x       y       z     vdW  Elec       q    Type
REMARK                         _______ _______ _______ _____ _____    ______ ____
ROOT
ATOM      1  C   UNL     1       4.192  -1.951  -4.158  0.00  0.00    +0.037 A 
ATOM      2  C   UNL     1       3.499  -3.162  -4.239  0.00  0.00    +0.015 A 
ATOM      3  C   UNL     1       2.595  -3.503  -3.259  0.00  0.00    +0.025 A 
ATOM      4  C   UNL     1       2.372  -2.644  -2.186  0.00  0.00    +0.048 A 
ATOM      5  C   UNL     1       3.057  -1.435  -2.105  0.00  0.00    +0.025 A 
ATOM      6  C   UNL     1       3.966  -1.090  -3.080  0.00  0.00    +0.015 A 
ENDROOT
BRANCH   1   8
ATOM      7  N   UNL     1       5.829  -0.415  -5.127  0.00  0.00    -0.313 N 
ATOM      8  C   UNL     1       5.161  -1.583  -5.207  0.00  0.00    +0.244 C 
ATOM      9  O   UNL     1       5.357  -2.332  -6.144  0.00  0.00    -0.270 OA
ATOM     10  H   UNL     1       5.652   0.263  -4.280  0.00  0.00    +0.149 HD
BRANCH   7  11
ATOM     11  C   UNL     1       6.792  -0.049  -6.170  0.00  0.00    +0.094 C 
BRANCH  11  12
ATOM     12  C   UNL     1       7.318   1.363  -5.904  0.00  0.00    -0.013 C 
BRANCH  12  13
ATOM     13  N   UNL     1       8.197   1.773  -7.008  0.00  0.00    +0.386 N 
ATOM     14  C   UNL     1       7.470   1.755  -8.303  0.00  0.00    -0.078 C 
ATOM     15  C   UNL     1       8.327   2.679  -9.204  0.00  0.00    -0.020 C 
ATOM     16  C   UNL     1       8.781   3.789  -8.229  0.00  0.00    -0.020 C 
ATOM     17  C   UNL     1       8.662   3.166  -6.826  0.00  0.00    -0.078 C 
ATOM     18  H   UNL     1       9.038   1.064  -7.001  0.00  0.00    -0.081 HD
ENDBRANCH  12  13
BRANCH  12  21
ATOM     19  C   UNL     1       8.591   1.705  -2.330  0.00  0.00    +0.008 A 
ATOM     20  C   UNL     1       7.699   1.787  -3.383  0.00  0.00    +0.009 A 
ATOM     21  C   UNL     1       8.094   1.375  -4.613  0.00  0.00    -0.022 A 
ATOM     22  S   UNL     1       9.770   0.844  -4.303  0.00  0.00    -0.103 S 
ATOM     23  C   UNL     1       9.834   1.215  -2.558  0.00  0.00    +0.045 A 
ENDBRANCH  12  21
ENDBRANCH  11  12
ENDBRANCH   7  11
ENDBRANCH   1   8
BRANCH   4  24
ATOM     24  N   UNL     1       1.459  -2.991  -1.197  0.00  0.00    -0.216 N 
ATOM     25  H   UNL     1       0.482  -2.488  -1.149  0.00  0.00    +0.174 HD
BRANCH  24  26
ATOM     26  S   UNL     1       1.842  -4.163  -0.091  0.00  0.00    +0.072 S 
ATOM     27  O   UNL     1       2.298  -5.287  -0.832  0.00  0.00    -0.150 OA
ATOM     28  O   UNL     1       0.750  -4.240   0.814  0.00  0.00    -0.150 OA
BRANCH  26  29
ATOM     29  C   UNL     1       3.222  -3.575   0.833  0.00  0.00    +0.109 A 
ATOM     30  C   UNL     1       3.022  -2.750   1.924  0.00  0.00    +0.031 A 
ATOM     31  C   UNL     1       4.104  -2.289   2.650  0.00  0.00    +0.040 A 
ATOM     32  C   UNL     1       5.389  -2.653   2.284  0.00  0.00    +0.124 A 
ATOM     33  C   UNL     1       5.588  -3.479   1.190  0.00  0.00    +0.040 A 
ATOM     34  C   UNL     1       4.505  -3.939   0.467  0.00  0.00    +0.031 A 
ATOM     35  F   UNL     1       6.447  -2.202   2.992  0.00  0.00    -0.205 F 
ENDBRANCH  26  29
ENDBRANCH  24  26
ENDBRANCH   4  24
TORSDOF 8
