REMARK  Name = ZINC36531326
REMARK  13 active torsions:
REMARK  status: ('A' for Active; 'I' for Inactive)
REMARK    1  A    between atoms: C_1  and  C_2
REMARK    2  A    between atoms: C_2  and  C_4
REMARK    3  A    between atoms: C_2  and  C_10
REMARK    4  A    between atoms: C_10  and  C_12
REMARK    5  A    between atoms: C_10  and  N_19
REMARK    6  A    between atoms: N_14  and  C_15
REMARK    7  A    between atoms: C_15  and  C_16
REMARK    8  A    between atoms: C_15  and  C_17
REMARK    9  A    between atoms: C_15  and  C_18
REMARK   10  A    between atoms: N_19  and  C_20
REMARK   11  A    between atoms: C_21  and  C_23
REMARK   12  A    between atoms: C_27  and  O_30
REMARK   13  A    between atoms: C_28  and  O_29
REMARK                            x       y       z     vdW  Elec       q    Type
REMARK                         _______ _______ _______ _____ _____    ______ ____
ROOT
ATOM      1  C   UNL     1       0.199  -0.921   0.968  0.00  0.00    +0.169 C 
ENDROOT
BRANCH   1   2
ATOM      2  C   UNL     1       1.204   0.104   1.423  0.00  0.00    +0.235 C 
ATOM      3  O   UNL     1       0.965   0.804   2.384  0.00  0.00    -0.274 OA
ATOM      4  N   UNL     1       2.370   0.245   0.761  0.00  0.00    -0.309 N 
ATOM      5  H   UNL     1       2.530  -0.259  -0.053  0.00  0.00    +0.149 HD
BRANCH   4   6
ATOM      6  C   UNL     1       3.396   1.157   1.271  0.00  0.00    +0.026 C 
ATOM      7  C   UNL     1       3.762   0.765   2.704  0.00  0.00    +0.031 C 
ATOM      8  C   UNL     1       4.641   1.071   0.385  0.00  0.00    +0.031 C 
ATOM      9  C   UNL     1       2.858   2.590   1.256  0.00  0.00    +0.031 C 
ENDBRANCH   4   6
ENDBRANCH   1   2
BRANCH   1  10
ATOM     10  N   UNL     1      -0.710  -1.238   2.072  0.00  0.00    -0.288 N 
ATOM     11  C   UNL     1      -1.604  -0.206   2.604  0.00  0.00    +0.133 C 
ATOM     12  C   UNL     1      -0.724  -2.478   2.600  0.00  0.00    +0.251 C 
ATOM     13  O   UNL     1       0.080  -3.308   2.222  0.00  0.00    -0.270 OA
BRANCH  12  14
ATOM     14  C   UNL     1      -1.714  -2.828   3.636  0.00  0.00    +0.082 A 
ATOM     15  C   UNL     1      -3.051  -2.448   3.486  0.00  0.00    +0.017 A 
ATOM     16  C   UNL     1      -3.973  -2.777   4.455  0.00  0.00    +0.005 A 
ATOM     17  C   UNL     1      -3.583  -3.485   5.581  0.00  0.00    +0.049 A 
ATOM     18  C   UNL     1      -2.263  -3.868   5.743  0.00  0.00    +0.159 A 
ATOM     19  C   UNL     1      -1.321  -3.548   4.770  0.00  0.00    +0.171 A 
BRANCH  19  20
ATOM     20  O   UNL     1      -0.027  -3.927   4.923  0.00  0.00    -0.503 OA
ATOM     21  H   UNL     1       0.520  -3.280   5.388  0.00  0.00    +0.292 HD
ENDBRANCH  19  20
BRANCH  18  22
ATOM     22  O   UNL     1      -1.888  -4.562   6.851  0.00  0.00    -0.503 OA
ATOM     23  H   UNL     1      -1.948  -5.522   6.753  0.00  0.00    +0.292 HD
ENDBRANCH  18  22
ENDBRANCH  12  14
ENDBRANCH   1  10
BRANCH   1  25
ATOM     24  C   UNL     1       0.331  -0.121  -1.395  0.00  0.00    +0.015 C 
ATOM     25  C   UNL     1      -0.604  -0.362  -0.209  0.00  0.00    +0.045 C 
BRANCH  25  26
ATOM     26  C   UNL     1      -1.672  -1.349  -0.603  0.00  0.00    -0.042 A 
ATOM     27  C   UNL     1      -1.327  -2.648  -0.927  0.00  0.00    +0.004 A 
ATOM     28  C   UNL     1      -2.306  -3.554  -1.289  0.00  0.00    +0.000 A 
ATOM     29  C   UNL     1      -3.631  -3.161  -1.327  0.00  0.00    +0.000 A 
ATOM     30  C   UNL     1      -3.976  -1.863  -1.002  0.00  0.00    +0.000 A 
ATOM     31  C   UNL     1      -2.997  -0.958  -0.636  0.00  0.00    +0.004 A 
ENDBRANCH  25  26
ENDBRANCH   1  25
TORSDOF 8
