REMARK  Name = ZINC38785100
REMARK  7 active torsions:
REMARK  status: ('A' for Active; 'I' for Inactive)
REMARK    1  A    between atoms: C_1  and  N_2
REMARK    2  A    between atoms: C_3  and  S_36
REMARK    3  A    between atoms: C_8  and  C_14
REMARK    4  A    between atoms: N_16  and  C_17
REMARK    5  A    between atoms: C_17  and  C_18
REMARK    6  A    between atoms: C_18  and  C_20
REMARK    7  A    between atoms: C_18  and  C_27
REMARK                            x       y       z     vdW  Elec       q    Type
REMARK                         _______ _______ _______ _____ _____    ______ ____
ROOT
ATOM      1  C   UNL     1       1.141  -6.368  -0.414  0.00  0.00    +0.244 C 
ATOM      2  O   UNL     1       0.119  -6.943  -0.733  0.00  0.00    -0.270 OA
ATOM      3  N   UNL     1       2.261  -7.073  -0.160  0.00  0.00    -0.310 N 
ATOM      4  H   UNL     1       3.077  -6.614   0.094  0.00  0.00    +0.149 HD
ENDROOT
BRANCH   1  11
ATOM      5  C   UNL     1      -0.018   1.461   0.010  0.00  0.00    +0.135 C 
ATOM      6  N   UNL     1       0.002  -0.004   0.002  0.00  0.00    -0.273 N 
ATOM      7  C   UNL     1      -1.262  -0.739   0.004  0.00  0.00    +0.218 C 
ATOM      8  N   UNL     1      -1.112  -2.012  -0.712  0.00  0.00    -0.317 N 
ATOM      9  C   UNL     1       0.018  -2.785  -0.464  0.00  0.00    +0.042 A 
ATOM     10  C   UNL     1      -0.004  -4.164  -0.568  0.00  0.00    +0.036 A 
ATOM     11  C   UNL     1       1.156  -4.891  -0.304  0.00  0.00    +0.038 A 
ATOM     12  C   UNL     1       2.332  -4.232   0.063  0.00  0.00    +0.014 A 
ATOM     13  C   UNL     1       2.357  -2.858   0.166  0.00  0.00    +0.015 A 
ATOM     14  C   UNL     1       1.204  -2.124  -0.097  0.00  0.00    +0.058 A 
ATOM     15  C   UNL     1       1.186  -0.650  -0.013  0.00  0.00    +0.250 C 
ATOM     16  O   UNL     1       2.228  -0.026   0.047  0.00  0.00    -0.270 OA
ATOM     17  H   UNL     1      -1.786  -2.308  -1.343  0.00  0.00    +0.149 HD
BRANCH   7  18
ATOM     18  S   UNL     1      -1.760  -1.073   1.716  0.00  0.00    -0.137 S 
ATOM     19  H   UNL     1      -2.920  -1.744   1.593  0.00  0.00    +0.105 HD
ENDBRANCH   7  18
ENDBRANCH   1  11
BRANCH   3  20
ATOM     20  C   UNL     1       2.247  -8.534  -0.268  0.00  0.00    +0.117 C 
BRANCH  20  21
ATOM     21  C   UNL     1       3.634  -9.084   0.069  0.00  0.00    +0.069 C 
BRANCH  21  22
ATOM     22  C   UNL     1       3.588 -10.591   0.078  0.00  0.00    -0.013 A 
ATOM     23  C   UNL     1       3.898 -11.465   1.211  0.00  0.00    +0.003 A 
ATOM     24  C   UNL     1       4.298 -11.240   2.530  0.00  0.00    +0.010 A 
ATOM     25  C   UNL     1       4.513 -12.301   3.364  0.00  0.00    +0.001 A 
ATOM     26  C   UNL     1       4.337 -13.601   2.911  0.00  0.00    +0.002 A 
ATOM     27  C   UNL     1       3.943 -13.846   1.614  0.00  0.00    +0.026 A 
ATOM     28  C   UNL     1       3.718 -12.781   0.747  0.00  0.00    +0.047 A 
ATOM     29  N   UNL     1       3.328 -12.698  -0.571  0.00  0.00    -0.360 N 
ATOM     30  C   UNL     1       3.251 -11.385  -0.950  0.00  0.00    +0.088 A 
ATOM     31  H   UNL     1       3.134 -13.456  -1.143  0.00  0.00    +0.165 HD
ENDBRANCH  21  22
BRANCH  21  32
ATOM     32  C   UNL     1       4.625  -8.618  -0.966  0.00  0.00    -0.020 A 
ATOM     33  C   UNL     1       4.444  -8.949  -2.296  0.00  0.00    +0.006 A 
ATOM     34  C   UNL     1       5.352  -8.521  -3.245  0.00  0.00    +0.000 A 
ATOM     35  C   UNL     1       6.443  -7.761  -2.865  0.00  0.00    +0.001 A 
ATOM     36  C   UNL     1       6.626  -7.429  -1.536  0.00  0.00    +0.020 A 
ATOM     37  C   UNL     1       5.713  -7.853  -0.586  0.00  0.00    +0.045 A 
ATOM     38 CL   UNL     1       5.938  -7.430   1.083  0.00  0.00    -0.083 Cl
ENDBRANCH  21  32
ENDBRANCH  20  21
ENDBRANCH   3  20
TORSDOF 6
