REMARK  Name = ZINC36369618
REMARK  11 active torsions:
REMARK  status: ('A' for Active; 'I' for Inactive)
REMARK    1  A    between atoms: C_1  and  C_2
REMARK    2  A    between atoms: C_6  and  N_8
REMARK    3  A    between atoms: C_9  and  C_38
REMARK    4  A    between atoms: N_18  and  C_23
REMARK    5  A    between atoms: N_21  and  C_22
REMARK    6  A    between atoms: C_23  and  C_24
REMARK    7  A    between atoms: C_24  and  C_26
REMARK    8  A    between atoms: C_24  and  C_27
REMARK    9  A    between atoms: C_27  and  N_28
REMARK   10  A    between atoms: C_30  and  C_37
REMARK   11  A    between atoms: C_33  and  C_36
REMARK                            x       y       z     vdW  Elec       q    Type
REMARK                         _______ _______ _______ _____ _____    ______ ____
ROOT
ATOM      1  N   UNL     1       0.048  -2.798   2.394  0.00  0.00    -0.283 N 
ATOM      2  C   UNL     1       0.142  -2.249   3.660  0.00  0.00    +0.040 A 
ATOM      3  C   UNL     1       0.130  -3.242   4.544  0.00  0.00    +0.116 A 
ATOM      4  N   UNL     1       0.028  -4.438   3.856  0.00  0.00    -0.277 N 
ATOM      5  C   UNL     1      -0.028  -4.161   2.532  0.00  0.00    +0.223 A 
ATOM      6  N   UNL     1      -0.132  -5.293   1.852  0.00  0.00    -0.193 NA
ATOM      7  C   UNL     1      -0.152  -6.325   2.690  0.00  0.00    +0.170 A 
ATOM      8  C   UNL     1      -0.043  -5.817   3.984  0.00  0.00    +0.157 A 
ATOM      9  C   UNL     1      -0.040  -6.707   5.070  0.00  0.00    +0.283 A 
ATOM     10  O   UNL     1       0.040  -6.285   6.211  0.00  0.00    -0.265 OA
ATOM     11  N   UNL     1      -0.126  -8.034   4.839  0.00  0.00    -0.259 N 
ATOM     12  C   UNL     1      -0.215  -8.515   3.587  0.00  0.00    +0.333 A 
ATOM     13  O   UNL     1      -0.292  -9.717   3.419  0.00  0.00    -0.246 OA
ATOM     14  N   UNL     1      -0.244  -7.698   2.517  0.00  0.00    -0.279 N 
ATOM     15  C   UNL     1      -0.349  -8.262   1.169  0.00  0.00    +0.155 C 
ATOM     16  C   UNL     1       0.241  -0.780   3.982  0.00  0.00    +0.065 C 
ENDROOT
BRANCH   1  22
ATOM     17  C   UNL     1       2.205  -1.640  -1.871  0.00  0.00    +0.044 C 
ATOM     18  C   UNL     1       1.061  -1.509  -0.899  0.00  0.00    -0.048 A 
ATOM     19  C   UNL     1      -0.010  -0.687  -1.199  0.00  0.00    +0.003 A 
ATOM     20  C   UNL     1      -1.061  -0.564  -0.309  0.00  0.00    +0.002 A 
ATOM     21  C   UNL     1      -1.045  -1.262   0.882  0.00  0.00    +0.026 A 
ATOM     22  C   UNL     1       0.029  -2.088   1.186  0.00  0.00    +0.050 A 
ATOM     23  C   UNL     1       1.081  -2.214   0.288  0.00  0.00    +0.029 A 
ENDBRANCH   1  22
BRANCH  11  24
ATOM     24  C   UNL     1      -0.122  -8.964   5.971  0.00  0.00    +0.131 C 
BRANCH  24  25
ATOM     25  C   UNL     1      -1.559  -9.207   6.436  0.00  0.00    -0.011 C 
ATOM     26  C   UNL     1      -2.340  -9.918   5.330  0.00  0.00    +0.007 C 
BRANCH  25  27
ATOM     27  C   UNL     1      -1.548 -10.079   7.694  0.00  0.00    -0.074 C 
BRANCH  27  28
ATOM     28  N   UNL     1      -2.917 -10.213   8.209  0.00  0.00    +0.380 N 
ATOM     29  C   UNL     1      -3.406  -8.898   8.642  0.00  0.00    -0.076 C 
ATOM     30  C   UNL     1      -4.860  -9.018   9.104  0.00  0.00    -0.031 C 
ATOM     31  C   UNL     1      -4.938 -10.004  10.273  0.00  0.00    +0.003 C 
ATOM     32  C   UNL     1      -4.357 -11.351   9.833  0.00  0.00    -0.031 C 
ATOM     33  C   UNL     1      -2.921 -11.144   9.343  0.00  0.00    -0.076 C 
ATOM     34  C   UNL     1      -4.360 -12.320  11.016  0.00  0.00    +0.005 C 
ATOM     35  C   UNL     1      -5.367  -7.647   9.556  0.00  0.00    +0.005 C 
ATOM     36  H   UNL     1      -3.516 -10.569   7.480  0.00  0.00    -0.082 HD
ENDBRANCH  27  28
ENDBRANCH  25  27
ENDBRANCH  24  25
ENDBRANCH  11  24
TORSDOF 5
