REMARK  Name = ZINC22007065
REMARK  4 active torsions:
REMARK  status: ('A' for Active; 'I' for Inactive)
REMARK    1  A    between atoms: C_1  and  O_2
REMARK    2  A    between atoms: O_2  and  C_3
REMARK    3  A    between atoms: C_8  and  O_9
REMARK    4  A    between atoms: N_14  and  C_15
REMARK                            x       y       z     vdW  Elec       q    Type
REMARK                         _______ _______ _______ _____ _____    ______ ____
ROOT
ATOM      1  C   UNL     1       1.024   5.874   0.763  0.00  0.00    +0.162 A 
ATOM      2  C   UNL     1      -0.133   5.186   0.525  0.00  0.00    +0.062 A 
ATOM      3  C   UNL     1      -0.137   3.789   0.606  0.00  0.00    +0.044 A 
ATOM      4  C   UNL     1       1.055   3.096   0.934  0.00  0.00    +0.080 A 
ATOM      5  C   UNL     1       2.228   3.821   1.174  0.00  0.00    +0.077 A 
ATOM      6  C   UNL     1       2.206   5.195   1.088  0.00  0.00    +0.161 A 
ATOM      7  N   UNL     1       1.023   1.756   1.005  0.00  0.00    -0.235 NA
ATOM      8  C   UNL     1      -0.092   1.104   0.774  0.00  0.00    +0.223 A 
ATOM      9  N   UNL     1      -1.227   1.708   0.460  0.00  0.00    -0.220 NA
ATOM     10  C   UNL     1      -1.307   3.029   0.369  0.00  0.00    +0.134 A 
ATOM     11  N   UNL     1      -2.499   3.645   0.045  0.00  0.00    -0.297 N 
ATOM     12  H   UNL     1      -2.526   4.730  -0.135  0.00  0.00    +0.154 HD
ENDROOT
BRANCH  11  13
ATOM     13  C   UNL     1      -3.673   2.890  -0.053  0.00  0.00    +0.068 A 
ATOM     14  C   UNL     1      -3.743   1.633   0.532  0.00  0.00    +0.027 A 
ATOM     15  C   UNL     1      -4.904   0.890   0.434  0.00  0.00    +0.017 A 
ATOM     16  C   UNL     1      -5.997   1.397  -0.247  0.00  0.00    +0.021 A 
ATOM     17  C   UNL     1      -5.931   2.649  -0.832  0.00  0.00    +0.055 A 
ATOM     18  C   UNL     1      -4.774   3.400  -0.733  0.00  0.00    +0.145 A 
ATOM     19  F   UNL     1      -4.712   4.625  -1.299  0.00  0.00    -0.204 F 
ATOM     20 BR   UNL     1      -7.583   0.376  -0.378  0.00  0.00    -0.050 Br
ENDBRANCH  11  13
BRANCH   1  22
ATOM     21  C   UNL     1      -0.209   7.865   0.348  0.00  0.00    +0.277 C 
ATOM     22  O   UNL     1       1.027   7.231   0.684  0.00  0.00    -0.491 OA
ENDBRANCH   1  22
BRANCH   6  23
ATOM     23  O   UNL     1       3.344   5.901   1.320  0.00  0.00    -0.503 OA
ATOM     24  H   UNL     1       4.275   5.375   1.575  0.00  0.00    +0.292 HD
ENDBRANCH   6  23
TORSDOF 3
