REMARK  Name = ZINC20262945
REMARK  5 active torsions:
REMARK  status: ('A' for Active; 'I' for Inactive)
REMARK    1  A    between atoms: C_1  and  N_2
REMARK    2  A    between atoms: N_5  and  S_8
REMARK    3  A    between atoms: S_8  and  C_11
REMARK    4  A    between atoms: C_13  and  N_22
REMARK    5  A    between atoms: C_16  and  N_17
REMARK                            x       y       z     vdW  Elec       q    Type
REMARK                         _______ _______ _______ _____ _____    ______ ____
ROOT
ATOM      1  C   UNL     1       3.574  -2.852   0.002  0.00  0.00    +0.128 A 
ATOM      2  C   UNL     1       4.453  -3.065   1.045  0.00  0.00    +0.053 A 
ATOM      3  C   UNL     1       5.749  -2.571   0.972  0.00  0.00    +0.027 A 
ATOM      4  C   UNL     1       6.161  -1.864  -0.150  0.00  0.00    +0.024 A 
ATOM      5  C   UNL     1       5.281  -1.651  -1.193  0.00  0.00    +0.027 A 
ATOM      6  C   UNL     1       3.987  -2.150  -1.123  0.00  0.00    +0.056 A 
ENDROOT
BRANCH   6   7
ATOM      7  N   UNL     1       3.097  -1.940  -2.183  0.00  0.00    -0.328 N 
ATOM      8  C   UNL     1       2.131  -0.836  -2.284  0.00  0.00    +0.105 C 
ATOM      9  C   UNL     1       1.354  -1.028  -3.604  0.00  0.00    +0.020 C 
ATOM     10  C   UNL     1       1.534  -2.540  -3.897  0.00  0.00    +0.020 C 
ATOM     11  C   UNL     1       2.978  -2.784  -3.385  0.00  0.00    +0.105 C 
ENDBRANCH   6   7
BRANCH   1  12
ATOM     12  S   UNL     1       1.929  -3.479   0.094  0.00  0.00    +0.063 S 
ATOM     13  O   UNL     1       1.706  -4.211  -1.104  0.00  0.00    -0.153 OA
ATOM     14  O   UNL     1       1.102  -2.393   0.488  0.00  0.00    -0.153 OA
BRANCH  12  19
ATOM     15  C   UNL     1       3.650  -6.570   4.582  0.00  0.00    +0.105 C 
ATOM     16  N   UNL     1       2.769  -6.065   3.520  0.00  0.00    -0.303 NA
ATOM     17  C   UNL     1       2.507  -4.630   3.691  0.00  0.00    +0.101 C 
ATOM     18  C   UNL     1       1.448  -4.183   2.678  0.00  0.00    +0.125 C 
ATOM     19  N   UNL     1       1.893  -4.577   1.333  0.00  0.00    -0.174 NA
ATOM     20  C   UNL     1       2.304  -5.973   1.117  0.00  0.00    +0.125 C 
ATOM     21  C   UNL     1       3.329  -6.349   2.192  0.00  0.00    +0.101 C 
ENDBRANCH  12  19
ENDBRANCH   1  12
BRANCH   3  22
ATOM     22  N   UNL     1       6.640  -2.787   2.030  0.00  0.00    -0.358 N 
ATOM     23  H   UNL     1       6.352  -3.280   2.814  0.00  0.00    +0.142 HD
ATOM     24  H   UNL     1       7.545  -2.442   1.980  0.00  0.00    +0.142 HD
ENDBRANCH   3  22
TORSDOF 4
