REMARK  Name = ZINC63830614
REMARK  9 active torsions:
REMARK  status: ('A' for Active; 'I' for Inactive)
REMARK    1  A    between atoms: C_1  and  N_2
REMARK    2  A    between atoms: C_6  and  S_7
REMARK    3  A    between atoms: S_7  and  C_8
REMARK    4  A    between atoms: C_8  and  C_9
REMARK    5  A    between atoms: N_11  and  C_12
REMARK    6  A    between atoms: C_15  and  C_18
REMARK    7  A    between atoms: N_20  and  C_21
REMARK    8  A    between atoms: C_21  and  C_22
REMARK    9  A    between atoms: C_22  and  C_23
REMARK                            x       y       z     vdW  Elec       q    Type
REMARK                         _______ _______ _______ _____ _____    ______ ____
ROOT
ATOM      1  C   UNL     1       7.558  -2.005  -0.176  0.00  0.00    +0.033 A 
ATOM      2  C   UNL     1       7.982  -0.680  -0.162  0.00  0.00    +0.024 A 
ATOM      3  C   UNL     1       9.322  -0.384  -0.263  0.00  0.00    +0.015 A 
ATOM      4  C   UNL     1      10.258  -1.416  -0.379  0.00  0.00    +0.037 A 
ATOM      5  C   UNL     1       9.828  -2.746  -0.393  0.00  0.00    +0.015 A 
ATOM      6  C   UNL     1       8.486  -3.035  -0.286  0.00  0.00    +0.024 A 
ENDROOT
BRANCH   1   9
ATOM      7  C   UNL     1       5.287  -1.491  -0.646  0.00  0.00    +0.227 C 
ATOM      8  O   UNL     1       5.641  -0.460  -1.178  0.00  0.00    -0.275 OA
ATOM      9  N   UNL     1       6.199  -2.302  -0.073  0.00  0.00    -0.285 N 
ATOM     10  H   UNL     1       5.910  -3.092   0.410  0.00  0.00    +0.155 HD
BRANCH   7  11
ATOM     11  C   UNL     1       3.827  -1.865  -0.624  0.00  0.00    +0.173 C 
BRANCH  11  12
ATOM     12  S   UNL     1       2.862  -0.582  -1.468  0.00  0.00    -0.080 S 
BRANCH  12  18
ATOM     13  C   UNL     1       0.129   0.799  -2.594  0.00  0.00    +0.133 C 
ATOM     14  N   UNL     1       0.108  -0.480  -1.881  0.00  0.00    -0.295 N 
ATOM     15  C   UNL     1      -1.077  -1.302  -1.581  0.00  0.00    +0.230 C 
ATOM     16  N   UNL     1      -0.530  -2.462  -0.857  0.00  0.00    -0.249 N 
ATOM     17  N   UNL     1       0.853  -2.258  -0.783  0.00  0.00    -0.163 NA
ATOM     18  C   UNL     1       1.200  -1.158  -1.360  0.00  0.00    +0.175 C 
ATOM     19  H   UNL     1      -1.028  -3.215  -0.503  0.00  0.00    +0.170 HD
ENDBRANCH  12  18
ENDBRANCH  11  12
ENDBRANCH   7  11
ENDBRANCH   1   9
BRANCH   4  20
ATOM     20  C   UNL     1      11.696  -1.102  -0.488  0.00  0.00    +0.244 C 
ATOM     21  O   UNL     1      12.068   0.055  -0.477  0.00  0.00    -0.270 OA
ATOM     22  N   UNL     1      12.596  -2.099  -0.601  0.00  0.00    -0.311 N 
ATOM     23  H   UNL     1      12.299  -3.022  -0.610  0.00  0.00    +0.149 HD
BRANCH  22  24
ATOM     24  C   UNL     1      14.024  -1.787  -0.709  0.00  0.00    +0.109 C 
BRANCH  24  25
ATOM     25  C   UNL     1      14.822  -3.087  -0.824  0.00  0.00    +0.052 C 
BRANCH  25  26
ATOM     26  C   UNL     1      16.290  -2.767  -0.935  0.00  0.00    -0.040 C 
ATOM     27  C   UNL     1      17.193  -2.731   0.071  0.00  0.00    -0.001 A 
ATOM     28  C   UNL     1      17.083  -2.969   1.515  0.00  0.00    +0.010 A 
ATOM     29  C   UNL     1      18.189  -2.854   2.285  0.00  0.00    +0.001 A 
ATOM     30  C   UNL     1      19.435  -2.515   1.740  0.00  0.00    +0.002 A 
ATOM     31  C   UNL     1      19.615  -2.282   0.423  0.00  0.00    +0.026 A 
ATOM     32  C   UNL     1      18.520  -2.374  -0.480  0.00  0.00    +0.043 A 
ATOM     33  N   UNL     1      18.441  -2.197  -1.776  0.00  0.00    -0.380 N 
ATOM     34  C   UNL     1      17.054  -2.427  -2.196  0.00  0.00    +0.144 C 
ATOM     35  H   UNL     1      19.177  -1.958  -2.361  0.00  0.00    +0.160 HD
ENDBRANCH  25  26
ENDBRANCH  24  25
ENDBRANCH  22  24
ENDBRANCH   4  20
TORSDOF 8
