REMARK  Name = ZINC58385924
REMARK  5 active torsions:
REMARK  status: ('A' for Active; 'I' for Inactive)
REMARK    1  A    between atoms: C_1  and  C_2
REMARK    2  A    between atoms: C_2  and  C_3
REMARK    3  A    between atoms: C_2  and  N_15
REMARK    4  A    between atoms: C_16  and  C_18
REMARK    5  A    between atoms: C_19  and  C_20
REMARK                            x       y       z     vdW  Elec       q    Type
REMARK                         _______ _______ _______ _____ _____    ______ ____
ROOT
ATOM      1  N   UNL     1       0.711  -0.489   1.189  0.00  0.00    -0.305 N 
ATOM      2  C   UNL     1       2.054  -0.600   1.174  0.00  0.00    +0.237 C 
ATOM      3  O   UNL     1       2.678  -0.296   0.174  0.00  0.00    -0.271 OA
ATOM      4  H   UNL     1       0.213  -0.731   1.986  0.00  0.00    +0.150 HD
ENDROOT
BRANCH   1   6
ATOM      5  C   UNL     1      -0.019   1.526   0.010  0.00  0.00    +0.033 C 
ATOM      6  C   UNL     1       0.002  -0.004   0.002  0.00  0.00    +0.100 C 
BRANCH   6   7
ATOM      7  C   UNL     1      -1.412  -0.526   0.013  0.00  0.00    -0.025 A 
ATOM      8  C   UNL     1      -2.121  -0.570   1.201  0.00  0.00    +0.007 A 
ATOM      9  C   UNL     1      -3.417  -1.046   1.221  0.00  0.00    +0.028 A 
ATOM     10  C   UNL     1      -4.011  -1.482   0.046  0.00  0.00    +0.067 A 
ATOM     11  C   UNL     1      -3.295  -1.438  -1.153  0.00  0.00    +0.067 A 
ATOM     12  C   UNL     1      -1.996  -0.953  -1.164  0.00  0.00    +0.033 A 
ATOM     13  N   UNL     1      -4.139  -1.932  -2.144  0.00  0.00    -0.306 N 
ATOM     14  H   UNL     1      -3.918  -2.023  -3.084  0.00  0.00    +0.170 HD
ATOM     15  C   UNL     1      -5.314  -2.262  -1.575  0.00  0.00    +0.325 A 
ATOM     16  O   UNL     1      -6.272  -2.725  -2.165  0.00  0.00    -0.247 OA
ATOM     17  N   UNL     1      -5.267  -2.002  -0.255  0.00  0.00    -0.306 N 
ATOM     18  H   UNL     1      -5.986  -2.151   0.379  0.00  0.00    +0.170 HD
ENDBRANCH   6   7
ENDBRANCH   1   6
BRANCH   2  19
ATOM     19  C   UNL     1       2.764  -1.086   2.363  0.00  0.00    +0.069 C 
ATOM     20  C   UNL     1       4.105  -1.196   2.348  0.00  0.00    +0.033 C 
BRANCH  20  21
ATOM     21  C   UNL     1       4.818  -1.685   3.542  0.00  0.00    +0.065 A 
ATOM     22  C   UNL     1       6.220  -1.788   3.511  0.00  0.00    +0.028 A 
ATOM     23  C   UNL     1       6.890  -2.239   4.610  0.00  0.00    +0.012 A 
ATOM     24  C   UNL     1       6.143  -2.588   5.751  0.00  0.00    +0.001 A 
ATOM     25  C   UNL     1       6.771  -3.058   6.916  0.00  0.00    +0.011 A 
ATOM     26  C   UNL     1       6.018  -3.387   8.002  0.00  0.00    +0.021 A 
ATOM     27  C   UNL     1       4.628  -3.263   7.974  0.00  0.00    +0.043 A 
ATOM     28  C   UNL     1       3.986  -2.812   6.862  0.00  0.00    +0.048 A 
ATOM     29  C   UNL     1       4.730  -2.461   5.719  0.00  0.00    +0.073 A 
ATOM     30  N   UNL     1       4.126  -2.010   4.620  0.00  0.00    -0.247 NA
ATOM     31 CL   UNL     1       3.704  -3.693   9.379  0.00  0.00    -0.083 Cl
ENDBRANCH  20  21
ENDBRANCH   2  19
TORSDOF 4
