REMARK  Name = ZINC66590754
REMARK  7 active torsions:
REMARK  status: ('A' for Active; 'I' for Inactive)
REMARK    1  A    between atoms: C_1  and  C_2
REMARK    2  A    between atoms: C_2  and  C_3
REMARK    3  A    between atoms: C_2  and  C_4
REMARK    4  A    between atoms: C_2  and  O_5
REMARK    5  A    between atoms: O_5  and  C_6
REMARK    6  A    between atoms: N_8  and  N_9
REMARK    7  A    between atoms: C_10  and  C_12
REMARK                            x       y       z     vdW  Elec       q    Type
REMARK                         _______ _______ _______ _____ _____    ______ ____
ROOT
ATOM      1  C   UNL     1       2.047  -2.569  -5.505  0.00  0.00    +0.079 C 
ATOM      2  C   UNL     1       1.592  -3.877  -4.853  0.00  0.00    +0.032 C 
ATOM      3  C   UNL     1       0.887  -4.746  -5.898  0.00  0.00    +0.108 C 
ATOM      4  N   UNL     1       1.785  -4.926  -7.047  0.00  0.00    -0.310 N 
ATOM      5  C   UNL     1       2.352  -3.735  -7.694  0.00  0.00    +0.108 C 
ATOM      6  C   UNL     1       3.041  -2.877  -6.628  0.00  0.00    +0.032 C 
ATOM      7  C   UNL     1       2.090  -6.190  -7.510  0.00  0.00    +0.162 A 
ATOM      8  N   UNL     1       1.674  -7.354  -7.063  0.00  0.00    -0.225 NA
ATOM      9  C   UNL     1       2.058  -8.523  -7.620  0.00  0.00    +0.080 A 
ATOM     10  C   UNL     1       1.689  -9.834  -7.239  0.00  0.00    +0.029 A 
ATOM     11  C   UNL     1       2.173 -10.923  -7.916  0.00  0.00    +0.002 A 
ATOM     12  C   UNL     1       3.038 -10.782  -8.992  0.00  0.00    +0.001 A 
ATOM     13  C   UNL     1       3.420  -9.514  -9.391  0.00  0.00    +0.017 A 
ATOM     14  C   UNL     1       2.940  -8.418  -8.719  0.00  0.00    +0.041 A 
ATOM     15  S   UNL     1       3.144  -6.660  -8.874  0.00  0.00    -0.052 S 
ENDROOT
BRANCH   1  17
ATOM     16  N   UNL     1       2.023  -1.296  -3.385  0.00  0.00    -0.232 N 
ATOM     17  C   UNL     1       2.712  -1.696  -4.472  0.00  0.00    +0.232 C 
ATOM     18  O   UNL     1       3.866  -1.354  -4.619  0.00  0.00    -0.274 OA
ATOM     19  H   UNL     1       1.100  -1.570  -3.267  0.00  0.00    +0.173 HD
BRANCH  16  22
ATOM     20  C   UNL     1       1.952  -0.085  -1.337  0.00  0.00    +0.417 C 
ATOM     21  O   UNL     1       2.488   0.619  -0.503  0.00  0.00    -0.225 OA
ATOM     22  N   UNL     1       2.641  -0.485  -2.424  0.00  0.00    -0.200 N 
ATOM     23  H   UNL     1       3.564  -0.211  -2.541  0.00  0.00    +0.176 HD
BRANCH  20  24
ATOM     24  O   UNL     1       0.671  -0.465  -1.174  0.00  0.00    -0.444 OA
BRANCH  24  26
ATOM     25  C   UNL     1      -0.019   1.526   0.010  0.00  0.00    +0.055 C 
ATOM     26  C   UNL     1       0.002  -0.004   0.002  0.00  0.00    +0.107 C 
ATOM     27  C   UNL     1       0.742  -0.511   1.242  0.00  0.00    +0.055 C 
ATOM     28  C   UNL     1      -1.433  -0.534   0.013  0.00  0.00    +0.055 C 
ENDBRANCH  24  26
ENDBRANCH  20  24
ENDBRANCH  16  22
ENDBRANCH   1  17
TORSDOF 4
