REMARK  Name = ZINC01037337
REMARK  9 active torsions:
REMARK  status: ('A' for Active; 'I' for Inactive)
REMARK    1  A    between atoms: C_1  and  C_2
REMARK    2  A    between atoms: C_5  and  S_8
REMARK    3  A    between atoms: S_8  and  N_11
REMARK    4  A    between atoms: N_11  and  C_12
REMARK    5  A    between atoms: C_14  and  C_18
REMARK    6  A    between atoms: C_21  and  C_24
REMARK    7  A    between atoms: C_24  and  C_25
REMARK    8  A    between atoms: C_24  and  C_26
REMARK    9  A    between atoms: C_24  and  C_27
REMARK                            x       y       z     vdW  Elec       q    Type
REMARK                         _______ _______ _______ _____ _____    ______ ____
ROOT
ATOM      1  C   UNL     1      -4.625   0.426   0.438  0.00  0.00    +0.148 A 
ATOM      2  C   UNL     1      -3.687   1.379   0.685  0.00  0.00    +0.086 A 
ATOM      3  C   UNL     1      -2.505   1.002   0.019  0.00  0.00    +0.108 A 
ATOM      4  N   UNL     1      -2.728  -0.140  -0.597  0.00  0.00    -0.171 NA
ATOM      5  N   UNL     1      -4.053  -0.522  -0.349  0.00  0.00    -0.262 N 
ATOM      6  H   UNL     1      -4.499  -1.349  -0.692  0.00  0.00    +0.190 HD
ATOM      7 BR   UNL     1      -3.927   2.934   1.733  0.00  0.00    -0.044 Br
ENDROOT
BRANCH   3   8
ATOM      8  C   UNL     1      -1.228   1.757   0.017  0.00  0.00    +0.003 A 
ATOM      9  C   UNL     1      -0.013   1.076   0.008  0.00  0.00    +0.010 A 
ATOM     10  C   UNL     1       1.173   1.783   0.000  0.00  0.00    +0.005 A 
ATOM     11  C   UNL     1       1.155   3.166   0.009  0.00  0.00    -0.042 A 
ATOM     12  C   UNL     1      -0.048   3.848   0.024  0.00  0.00    +0.005 A 
ATOM     13  C   UNL     1      -1.239   3.151   0.030  0.00  0.00    +0.010 A 
BRANCH  11  14
ATOM     14  C   UNL     1       2.452   3.934   0.000  0.00  0.00    -0.013 C 
ATOM     15  C   UNL     1       3.246   3.579  -1.259  0.00  0.00    +0.015 C 
ATOM     16  C   UNL     1       2.157   5.435   0.012  0.00  0.00    +0.015 C 
ATOM     17  C   UNL     1       3.271   3.565   1.240  0.00  0.00    +0.015 C 
ENDBRANCH  11  14
ENDBRANCH   3   8
BRANCH   1  18
ATOM     18  N   UNL     1      -5.935   0.421   0.911  0.00  0.00    -0.199 N 
ATOM     19  H   UNL     1      -6.420   1.255   1.006  0.00  0.00    +0.175 HD
BRANCH  18  20
ATOM     20  S   UNL     1      -6.665  -1.011   1.310  0.00  0.00    +0.073 S 
ATOM     21  O   UNL     1      -7.967  -0.686   1.777  0.00  0.00    -0.150 OA
ATOM     22  O   UNL     1      -6.446  -1.897   0.221  0.00  0.00    -0.150 OA
BRANCH  20  27
ATOM     23  C   UNL     1      -3.662  -3.293   6.020  0.00  0.00    +0.044 C 
ATOM     24  C   UNL     1      -4.412  -2.723   4.843  0.00  0.00    -0.050 A 
ATOM     25  C   UNL     1      -5.487  -1.880   5.052  0.00  0.00    +0.005 A 
ATOM     26  C   UNL     1      -6.175  -1.357   3.973  0.00  0.00    +0.029 A 
ATOM     27  C   UNL     1      -5.788  -1.677   2.685  0.00  0.00    +0.109 A 
ATOM     28  C   UNL     1      -4.716  -2.525   2.477  0.00  0.00    +0.029 A 
ATOM     29  C   UNL     1      -4.025  -3.044   3.556  0.00  0.00    +0.005 A 
ENDBRANCH  20  27
ENDBRANCH  18  20
ENDBRANCH   1  18
TORSDOF 5
