REMARK  Name = ZINC16946582
REMARK  2 active torsions:
REMARK  status: ('A' for Active; 'I' for Inactive)
REMARK    1  A    between atoms: C_7  and  C_11
REMARK    2  A    between atoms: N_17  and  C_18
REMARK                            x       y       z     vdW  Elec       q    Type
REMARK                         _______ _______ _______ _____ _____    ______ ____
ROOT
ATOM      1  C   UNL     1       0.699  -3.252  -0.021  0.00  0.00    +0.030 C 
ATOM      2  C   UNL     1       1.200  -4.512  -0.135  0.00  0.00    +0.078 C 
ATOM      3  C   UNL     1       0.507  -5.753  -0.256  0.00  0.00    +0.256 C 
ATOM      4  O   UNL     1      -0.711  -5.788  -0.269  0.00  0.00    -0.269 OA
ATOM      5  N   UNL     1       1.218  -6.863  -0.354  0.00  0.00    -0.260 N 
ATOM      6  C   UNL     1       2.596  -6.806  -0.338  0.00  0.00    +0.166 C 
ATOM      7  N   UNL     1       3.464  -7.790  -0.424  0.00  0.00    -0.226 NA
ATOM      8  S   UNL     1       2.903  -5.053  -0.180  0.00  0.00    -0.049 S 
ATOM      9  H   UNL     1       0.769  -7.719  -0.437  0.00  0.00    +0.157 HD
ENDROOT
BRANCH   1  16
ATOM     10  C   UNL     1       0.065   1.185   1.328  0.00  0.00    +0.001 A 
ATOM     11  C   UNL     1       1.246   1.913   1.314  0.00  0.00    +0.002 A 
ATOM     12  C   UNL     1       2.430   1.322   0.931  0.00  0.00    +0.026 A 
ATOM     13  C   UNL     1       2.448  -0.017   0.556  0.00  0.00    +0.047 A 
ATOM     14  C   UNL     1       1.252  -0.753   0.571  0.00  0.00    +0.007 A 
ATOM     15  C   UNL     1       0.062  -0.142   0.960  0.00  0.00    +0.010 A 
ATOM     16  C   UNL     1       1.607  -2.114   0.128  0.00  0.00    +0.001 A 
ATOM     17  C   UNL     1       2.952  -2.103  -0.116  0.00  0.00    +0.091 A 
ATOM     18  N   UNL     1       3.452  -0.866   0.135  0.00  0.00    -0.360 N 
ATOM     19  H   UNL     1       4.383  -0.613   0.034  0.00  0.00    +0.165 HD
ENDBRANCH   1  16
BRANCH   7  20
ATOM     20  C   UNL     1       4.806  -7.525  -0.388  0.00  0.00    +0.069 A 
ATOM     21  C   UNL     1       5.332  -6.472  -1.139  0.00  0.00    +0.048 A 
ATOM     22  C   UNL     1       6.687  -6.210  -1.099  0.00  0.00    +0.044 A 
ATOM     23  C   UNL     1       7.523  -6.988  -0.317  0.00  0.00    +0.040 A 
ATOM     24  C   UNL     1       7.008  -8.034   0.429  0.00  0.00    +0.044 A 
ATOM     25  C   UNL     1       5.654  -8.303   0.403  0.00  0.00    +0.048 A 
ATOM     26 CL   UNL     1       8.065  -9.005   1.406  0.00  0.00    -0.083 Cl
ATOM     27 CL   UNL     1       7.344  -4.901  -2.032  0.00  0.00    -0.083 Cl
ENDBRANCH   7  20
TORSDOF 2
