REMARK  Name = ZINC50395087
REMARK  5 active torsions:
REMARK  status: ('A' for Active; 'I' for Inactive)
REMARK    1  A    between atoms: C_1  and  O_2
REMARK    2  A    between atoms: O_2  and  C_3
REMARK    3  A    between atoms: C_4  and  C_11
REMARK    4  A    between atoms: C_11  and  N_12
REMARK    5  A    between atoms: N_12  and  C_13
REMARK                            x       y       z     vdW  Elec       q    Type
REMARK                         _______ _______ _______ _____ _____    ______ ____
ROOT
ATOM      1  C   UNL     1       2.696  -0.490  -0.084  0.00  0.00    -0.042 C 
ENDROOT
BRANCH   1   3
ATOM      2  C   UNL     1       0.519  -0.375   1.154  0.00  0.00    +0.135 A 
ATOM      3  C   UNL     1       1.811  -0.872   1.075  0.00  0.00    -0.021 A 
ATOM      4  C   UNL     1       2.287  -1.718   2.058  0.00  0.00    +0.020 A 
ATOM      5  C   UNL     1       1.474  -2.070   3.121  0.00  0.00    +0.019 A 
ATOM      6  C   UNL     1       0.185  -1.577   3.203  0.00  0.00    +0.034 A 
ATOM      7  C   UNL     1      -0.293  -0.725   2.224  0.00  0.00    +0.061 A 
ATOM      8 BR   UNL     1      -2.053  -0.043   2.340  0.00  0.00    -0.046 Br
ATOM      9 BR   UNL     1       2.128  -3.229   4.465  0.00  0.00    -0.050 Br
BRANCH   2  11
ATOM     10  C   UNL     1      -0.691  -0.139  -0.880  0.00  0.00    +0.277 C 
ATOM     11  O   UNL     1       0.049   0.458   0.187  0.00  0.00    -0.494 OA
ENDBRANCH   2  11
ENDBRANCH   1   3
BRANCH   1  12
ATOM     12  N   UNL     1       3.207   0.872   0.119  0.00  0.00    +0.389 N 
ATOM     13  H   UNL     1       2.439   1.526   0.092  0.00  0.00    -0.084 HD
ATOM     14  H   UNL     1       3.667   0.930   1.015  0.00  0.00    -0.084 HD
BRANCH  12  15
ATOM     15  C   UNL     1       4.165   1.200  -0.945  0.00  0.00    +0.016 C 
ATOM     16  C   UNL     1       3.437   1.238  -2.291  0.00  0.00    -0.005 C 
ATOM     17  C   UNL     1       4.382   1.844  -3.336  0.00  0.00    +0.018 C 
ATOM     18  C   UNL     1       4.609   3.318  -2.995  0.00  0.00    +0.104 C 
ATOM     19  N   UNL     1       4.997   3.464  -1.597  0.00  0.00    -0.317 N 
ATOM     20  C   UNL     1       4.786   2.538  -0.663  0.00  0.00    +0.199 C 
ATOM     21  O   UNL     1       5.115   2.789   0.477  0.00  0.00    -0.278 OA
ATOM     22  H   UNL     1       5.435   4.287  -1.331  0.00  0.00    +0.149 HD
ENDBRANCH  12  15
ENDBRANCH   1  12
TORSDOF 4
