REMARK  Name = ZINC01439883
REMARK  7 active torsions:
REMARK  status: ('A' for Active; 'I' for Inactive)
REMARK    1  A    between atoms: C_1  and  C_2
REMARK    2  A    between atoms: C_2  and  O_3
REMARK    3  A    between atoms: O_3  and  C_4
REMARK    4  A    between atoms: C_7  and  C_12
REMARK    5  A    between atoms: C_9  and  O_10
REMARK    6  A    between atoms: O_10  and  C_11
REMARK    7  A    between atoms: C_17  and  C_27
REMARK                            x       y       z     vdW  Elec       q    Type
REMARK                         _______ _______ _______ _____ _____    ______ ____
ROOT
ATOM      1  C   UNL     1      -2.655   1.105  -0.428  0.00  0.00    +0.032 C 
ATOM      2  C   UNL     1      -2.525   0.224   0.814  0.00  0.00    +0.059 C 
ATOM      3  C   UNL     1      -3.780  -0.618   0.983  0.00  0.00    +0.017 C 
ATOM      4  C   UNL     1      -4.456  -1.052  -0.093  0.00  0.00    +0.036 C 
ATOM      5  C   UNL     1      -5.691  -1.922  -0.073  0.00  0.00    +0.137 C 
ATOM      6  N   UNL     1      -6.296  -2.071   1.234  0.00  0.00    -0.331 N 
ATOM      7  C   UNL     1      -5.622  -2.713   2.271  0.00  0.00    +0.049 A 
ATOM      8  C   UNL     1      -6.053  -3.933   2.767  0.00  0.00    +0.025 A 
ATOM      9  C   UNL     1      -5.292  -4.586   3.721  0.00  0.00    +0.002 A 
ATOM     10  C   UNL     1      -4.113  -4.027   4.180  0.00  0.00    +0.002 A 
ATOM     11  C   UNL     1      -3.691  -2.797   3.702  0.00  0.00    +0.025 A 
ATOM     12  C   UNL     1      -4.459  -2.136   2.760  0.00  0.00    +0.052 A 
ATOM     13  N   UNL     1      -4.117  -0.880   2.271  0.00  0.00    -0.316 N 
ATOM     14  C   UNL     1      -4.028  -0.698  -1.395  0.00  0.00    +0.163 C 
ATOM     15  O   UNL     1      -4.649  -1.121  -2.350  0.00  0.00    -0.292 OA
ATOM     16  C   UNL     1      -2.839   0.181  -1.638  0.00  0.00    +0.088 C 
ATOM     17  H   UNL     1      -7.186  -1.718   1.390  0.00  0.00    +0.147 HD
ATOM     18  H   UNL     1      -4.119  -0.138   2.896  0.00  0.00    +0.152 HD
ENDROOT
BRANCH   5  19
ATOM     19  C   UNL     1      -5.321  -3.289  -0.587  0.00  0.00    -0.001 A 
ATOM     20  C   UNL     1      -3.993  -3.671  -0.639  0.00  0.00    +0.056 A 
ATOM     21  C   UNL     1      -3.651  -4.928  -1.111  0.00  0.00    +0.167 A 
ATOM     22  C   UNL     1      -4.647  -5.805  -1.534  0.00  0.00    +0.168 A 
ATOM     23  C   UNL     1      -5.976  -5.417  -1.479  0.00  0.00    +0.070 A 
ATOM     24  C   UNL     1      -6.311  -4.162  -1.001  0.00  0.00    +0.050 A 
ATOM     25 CL   UNL     1      -7.977  -3.681  -0.926  0.00  0.00    -0.083 Cl
ATOM     26  O   UNL     1      -4.060  -6.965  -1.949  0.00  0.00    -0.453 OA
ATOM     27  C   UNL     1      -2.673  -6.639  -2.161  0.00  0.00    +0.466 C 
ATOM     28  O   UNL     1      -2.439  -5.538  -1.263  0.00  0.00    -0.453 OA
ENDBRANCH   5  19
BRANCH   1  32
ATOM     29  C   UNL     1       0.889   3.445  -0.924  0.00  0.00    +0.162 A 
ATOM     30  C   UNL     1       0.968   2.062  -0.893  0.00  0.00    +0.050 A 
ATOM     31  C   UNL     1      -0.180   1.308  -0.729  0.00  0.00    +0.008 A 
ATOM     32  C   UNL     1      -1.407   1.931  -0.601  0.00  0.00    -0.040 A 
ATOM     33  C   UNL     1      -1.491   3.311  -0.625  0.00  0.00    +0.053 A 
ATOM     34  C   UNL     1      -0.345   4.072  -0.789  0.00  0.00    +0.162 A 
BRANCH  34  35
ATOM     35  O   UNL     1      -0.427   5.429  -0.817  0.00  0.00    -0.491 OA
ATOM     36  C   UNL     1      -1.727   6.004  -0.673  0.00  0.00    +0.277 C 
ENDBRANCH  34  35
BRANCH  29  37
ATOM     37  O   UNL     1       2.017   4.188  -1.085  0.00  0.00    -0.489 OA
BRANCH  37  39
ATOM     38  C   UNL     1       4.398   4.472  -1.389  0.00  0.00    +0.048 C 
ATOM     39  C   UNL     1       3.249   3.476  -1.218  0.00  0.00    +0.226 C 
ENDBRANCH  37  39
ENDBRANCH  29  37
ENDBRANCH   1  32
TORSDOF 5
