REMARK  Name = ZINC39491751
REMARK  15 active torsions:
REMARK  status: ('A' for Active; 'I' for Inactive)
REMARK    1  A    between atoms: C_1  and  C_2
REMARK    2  A    between atoms: C_2  and  C_3
REMARK    3  A    between atoms: C_3  and  N_4
REMARK    4  A    between atoms: N_4  and  C_5
REMARK    5  A    between atoms: C_5  and  C_6
REMARK    6  A    between atoms: N_8  and  C_19
REMARK    7  A    between atoms: C_12  and  C_15
REMARK    8  A    between atoms: C_15  and  O_17
REMARK    9  A    between atoms: O_17  and  C_18
REMARK   10  A    between atoms: C_19  and  C_20
REMARK   11  A    between atoms: C_20  and  C_22
REMARK   12  A    between atoms: C_20  and  S_29
REMARK   13  A    between atoms: C_27  and  O_28
REMARK   14  A    between atoms: S_29  and  O_32
REMARK   15  A    between atoms: O_32  and  C_33
REMARK                            x       y       z     vdW  Elec       q    Type
REMARK                         _______ _______ _______ _____ _____    ______ ____
ROOT
ATOM      1  C   UNL     1       1.036  -4.643  -1.761  0.00  0.00    -0.039 A 
ATOM      2  C   UNL     1       2.237  -5.239  -1.806  0.00  0.00    +0.088 A 
ATOM      3  N   UNL     1       2.083  -6.590  -1.961  0.00  0.00    -0.344 N 
ATOM      4  C   UNL     1       0.747  -6.907  -2.020  0.00  0.00    +0.049 A 
ATOM      5  C   UNL     1       0.029  -5.701  -1.891  0.00  0.00    +0.002 A 
ATOM      6  C   UNL     1      -1.362  -5.714  -1.911  0.00  0.00    +0.025 A 
ATOM      7  C   UNL     1      -2.033  -6.926  -2.054  0.00  0.00    +0.060 A 
ATOM      8  C   UNL     1      -1.307  -8.119  -2.178  0.00  0.00    +0.017 A 
ATOM      9  C   UNL     1       0.056  -8.108  -2.168  0.00  0.00    +0.027 A 
ENDROOT
BRANCH   7  10
ATOM     10  C   UNL     1      -3.508  -6.954  -2.076  0.00  0.00    +0.339 C 
ATOM     11  O   UNL     1      -4.137  -5.921  -1.968  0.00  0.00    -0.245 OA
BRANCH  10  12
ATOM     12  O   UNL     1      -4.157  -8.127  -2.215  0.00  0.00    -0.464 OA
ATOM     13  C   UNL     1      -5.585  -8.080  -2.228  0.00  0.00    +0.280 C 
ENDBRANCH  10  12
ENDBRANCH   7  10
BRANCH   1  14
ATOM     14  C   UNL     1       0.771  -3.168  -1.600  0.00  0.00    -0.045 C 
BRANCH  14  15
ATOM     15  N   UNL     1       0.432  -2.881  -0.200  0.00  0.00    +0.382 N 
ATOM     16  H   UNL     1       1.200  -3.152   0.395  0.00  0.00    -0.085 HD
ATOM     17  H   UNL     1      -0.393  -3.401   0.059  0.00  0.00    -0.085 HD
BRANCH  15  18
ATOM     18  C   UNL     1       0.174  -1.444  -0.043  0.00  0.00    -0.082 C 
BRANCH  18  20
ATOM     19  C   UNL     1      -0.448   0.352   1.579  0.00  0.00    +0.002 C 
ATOM     20  C   UNL     1      -0.180  -1.145   1.415  0.00  0.00    -0.022 C 
ENDBRANCH  18  20
ENDBRANCH  15  18
ENDBRANCH  14  15
ENDBRANCH   1  14
BRANCH   3  21
ATOM     21  C   UNL     1       3.180  -7.557  -2.050  0.00  0.00    +0.156 C 
BRANCH  21  22
ATOM     22  C   UNL     1       3.740  -7.562  -3.474  0.00  0.00    +0.224 C 
BRANCH  22  23
ATOM     23  C   UNL     1       4.973  -8.427  -3.526  0.00  0.00    +0.023 A 
ATOM     24  C   UNL     1       4.877  -9.745  -3.928  0.00  0.00    +0.009 A 
ATOM     25  C   UNL     1       6.008 -10.539  -3.975  0.00  0.00    +0.001 A 
ATOM     26  C   UNL     1       7.238 -10.016  -3.620  0.00  0.00    +0.004 A 
ATOM     27  C   UNL     1       7.340  -8.698  -3.218  0.00  0.00    +0.046 A 
ATOM     28  C   UNL     1       6.207  -7.898  -3.175  0.00  0.00    +0.122 A 
BRANCH  28  29
ATOM     29  O   UNL     1       6.305  -6.600  -2.785  0.00  0.00    -0.506 OA
ATOM     30  H   UNL     1       6.199  -6.466  -1.834  0.00  0.00    +0.292 HD
ENDBRANCH  28  29
ENDBRANCH  22  23
BRANCH  22  31
ATOM     31  S   UNL     1       2.491  -8.222  -4.612  0.00  0.00    +0.130 S 
ATOM     32  O   UNL     1       3.021  -8.301  -5.928  0.00  0.00    -0.136 OA
ATOM     33  O   UNL     1       1.837  -9.339  -4.027  0.00  0.00    -0.136 OA
BRANCH  31  34
ATOM     34  O   UNL     1       1.422  -7.141  -4.689  0.00  0.00    -0.346 OA
BRANCH  34  35
ATOM     35  C   UNL     1       1.751  -6.093  -5.489  0.00  0.00    +0.156 A 
ATOM     36  C   UNL     1       2.523  -5.054  -4.990  0.00  0.00    +0.048 A 
ATOM     37  C   UNL     1       2.857  -3.990  -5.805  0.00  0.00    +0.004 A 
ATOM     38  C   UNL     1       2.422  -3.960  -7.117  0.00  0.00    +0.000 A 
ATOM     39  C   UNL     1       1.653  -4.995  -7.617  0.00  0.00    +0.004 A 
ATOM     40  C   UNL     1       1.321  -6.064  -6.807  0.00  0.00    +0.048 A 
ENDBRANCH  34  35
ENDBRANCH  31  34
ENDBRANCH  22  31
ENDBRANCH  21  22
ENDBRANCH   3  21
TORSDOF 13
