REMARK  Name = ZINC39350661
REMARK  8 active torsions:
REMARK  status: ('A' for Active; 'I' for Inactive)
REMARK    1  A    between atoms: C_5  and  C_7
REMARK    2  A    between atoms: C_7  and  O_8
REMARK    3  A    between atoms: O_8  and  C_9
REMARK    4  A    between atoms: C_9  and  C_11
REMARK    5  A    between atoms: C_14  and  C_17
REMARK    6  A    between atoms: C_20  and  C_22
REMARK    7  A    between atoms: N_23  and  N_24
REMARK    8  A    between atoms: N_24  and  C_25
REMARK                            x       y       z     vdW  Elec       q    Type
REMARK                         _______ _______ _______ _____ _____    ______ ____
ROOT
ATOM      1  C   UNL     1      -1.625  -4.601  -0.007  0.00  0.00    +0.059 A 
ATOM      2  C   UNL     1      -2.746  -3.763   0.004  0.00  0.00    +0.015 A 
ATOM      3  C   UNL     1      -4.000  -4.301   0.014  0.00  0.00    +0.012 A 
ATOM      4  C   UNL     1      -4.165  -5.691   0.013  0.00  0.00    +0.017 A 
ATOM      5  C   UNL     1      -3.043  -6.529   0.003  0.00  0.00    +0.012 A 
ATOM      6  C   UNL     1      -1.789  -5.990  -0.013  0.00  0.00    +0.015 A 
ENDROOT
BRANCH   4   7
ATOM      7  C   UNL     1      -5.518  -6.273   0.025  0.00  0.00    +0.136 A 
ATOM      8  C   UNL     1      -5.812  -7.606   0.031  0.00  0.00    +0.050 A 
ATOM      9  C   UNL     1      -7.208  -7.719   0.041  0.00  0.00    +0.051 A 
ATOM     10  C   UNL     1      -7.711  -6.436   0.041  0.00  0.00    +0.148 A 
ATOM     11  O   UNL     1      -6.673  -5.577   0.036  0.00  0.00    -0.454 OA
BRANCH  10  12
ATOM     12  C   UNL     1      -9.130  -6.069   0.049  0.00  0.00    +0.176 C 
ATOM     13  N   UNL     1      -9.477  -4.815   0.048  0.00  0.00    -0.189 NA
BRANCH  13  14
ATOM     14  N   UNL     1     -10.834  -4.464   0.056  0.00  0.00    -0.229 N 
ATOM     15  H   UNL     1     -11.514  -5.156   0.062  0.00  0.00    +0.172 HD
BRANCH  14  16
ATOM     16  C   UNL     1     -11.225  -3.053   0.054  0.00  0.00    +0.317 C 
ATOM     17  N   UNL     1     -12.559  -2.877  -0.580  0.00  0.00    -0.203 NA
ATOM     18  N   UNL     1     -13.146  -1.843   0.281  0.00  0.00    -0.271 NA
ATOM     19  N   UNL     1     -12.503  -1.931   1.482  0.00  0.00    -0.088 NA
ATOM     20  N   UNL     1     -11.445  -2.571   1.428  0.00  0.00    -0.130 NA
ATOM     21  H   UNL     1     -12.467  -2.548  -1.530  0.00  0.00    +0.148 HD
ATOM     22  H   UNL     1     -12.999  -0.930  -0.125  0.00  0.00    +0.163 HD
ATOM     23  H   UNL     1     -14.133  -2.013   0.403  0.00  0.00    +0.163 HD
ENDBRANCH  14  16
ENDBRANCH  13  14
ENDBRANCH  10  12
ENDBRANCH   4   7
BRANCH   1  24
ATOM     24  C   UNL     1      -0.271  -4.019  -0.017  0.00  0.00    +0.339 C 
ATOM     25  O   UNL     1       0.703  -4.746  -0.031  0.00  0.00    -0.245 OA
BRANCH  24  26
ATOM     26  O   UNL     1      -0.112  -2.680  -0.011  0.00  0.00    -0.456 OA
BRANCH  26  27
ATOM     27  C   UNL     1       1.229  -2.186  -0.022  0.00  0.00    +0.269 C 
BRANCH  27  32
ATOM     28  C   UNL     1      -0.017   1.378   0.010  0.00  0.00    +0.000 A 
ATOM     29  C   UNL     1       1.171   2.086   0.002  0.00  0.00    +0.001 A 
ATOM     30  C   UNL     1       2.377   1.412  -0.013  0.00  0.00    +0.020 A 
ATOM     31  C   UNL     1       2.397   0.029  -0.021  0.00  0.00    +0.047 A 
ATOM     32  C   UNL     1       1.208  -0.679  -0.013  0.00  0.00    +0.008 A 
ATOM     33  C   UNL     1       0.002  -0.004   0.002  0.00  0.00    +0.008 A 
ATOM     34 CL   UNL     1       3.912  -0.818  -0.041  0.00  0.00    -0.083 Cl
ENDBRANCH  27  32
ENDBRANCH  26  27
ENDBRANCH  24  26
ENDBRANCH   1  24
TORSDOF 8
