REMARK  Name = ZINC22984947
REMARK  5 active torsions:
REMARK  status: ('A' for Active; 'I' for Inactive)
REMARK    1  A    between atoms: C_1  and  C_2
REMARK    2  A    between atoms: N_13  and  C_16
REMARK    3  A    between atoms: C_16  and  C_17
REMARK    4  A    between atoms: N_19  and  C_20
REMARK    5  A    between atoms: C_23  and  N_26
REMARK                            x       y       z     vdW  Elec       q    Type
REMARK                         _______ _______ _______ _____ _____    ______ ____
ROOT
ATOM      1  C   UNL     1      -2.443   1.137   0.019  0.00  0.00    +0.222 C 
ENDROOT
BRANCH   1  13
ATOM      2  C   UNL     1       6.728   0.246  -0.190  0.00  0.00    +0.008 C 
ATOM      3  C   UNL     1       5.272   0.632  -0.455  0.00  0.00    -0.009 C 
ATOM      4  C   UNL     1       4.345  -0.251   0.384  0.00  0.00    +0.008 C 
ATOM      5  C   UNL     1       2.894  -0.047  -0.054  0.00  0.00    +0.037 C 
ATOM      6  C   UNL     1       2.579   1.446  -0.032  0.00  0.00    -0.023 A 
ATOM      7  C   UNL     1       3.572   2.361  -0.034  0.00  0.00    -0.004 A 
ATOM      8  S   UNL     1       2.751   3.931  -0.005  0.00  0.00    -0.073 S 
ATOM      9  C   UNL     1       1.073   3.353   0.010  0.00  0.00    +0.116 A 
ATOM     10  C   UNL     1       1.208   1.956  -0.008  0.00  0.00    +0.076 A 
ATOM     11  C   UNL     1      -0.018   1.214   0.000  0.00  0.00    +0.263 A 
ATOM     12  O   UNL     1      -0.005  -0.005  -0.014  0.00  0.00    -0.267 OA
ATOM     13  N   UNL     1      -1.184   1.885   0.018  0.00  0.00    -0.290 N 
ATOM     14  C   UNL     1      -1.218   3.243   0.037  0.00  0.00    +0.203 A 
ATOM     15  N   UNL     1      -0.118   3.946   0.031  0.00  0.00    -0.230 NA
ATOM     16  C   UNL     1       5.047   2.098  -0.058  0.00  0.00    +0.046 C 
ENDBRANCH   1  13
BRANCH   1  17
ATOM     17  C   UNL     1      -2.863   0.864   1.441  0.00  0.00    +0.237 C 
ATOM     18  O   UNL     1      -2.178   1.256   2.362  0.00  0.00    -0.274 OA
ATOM     19  N   UNL     1      -4.000   0.183   1.689  0.00  0.00    -0.284 N 
ATOM     20  H   UNL     1      -4.660  -0.107   0.858  0.00  0.00    +0.155 HD
BRANCH  19  21
ATOM     21  C   UNL     1      -4.341  -0.155   3.006  0.00  0.00    +0.034 A 
ATOM     22  C   UNL     1      -4.992  -1.353   3.268  0.00  0.00    +0.025 A 
ATOM     23  C   UNL     1      -5.323  -1.689   4.566  0.00  0.00    +0.025 A 
ATOM     24  C   UNL     1      -5.014  -0.824   5.607  0.00  0.00    +0.030 A 
ATOM     25  C   UNL     1      -4.368   0.377   5.344  0.00  0.00    +0.025 A 
ATOM     26  C   UNL     1      -4.033   0.711   4.047  0.00  0.00    +0.025 A 
BRANCH  24  27
ATOM     27  N   UNL     1      -5.354  -1.161   6.922  0.00  0.00    -0.330 N 
ATOM     28  C   UNL     1      -4.172  -1.139   7.793  0.00  0.00    +0.105 C 
ATOM     29  C   UNL     1      -4.602  -1.369   9.244  0.00  0.00    +0.019 C 
ATOM     30  C   UNL     1      -5.313  -2.721   9.352  0.00  0.00    +0.003 C 
ATOM     31  C   UNL     1      -6.511  -2.736   8.399  0.00  0.00    +0.019 C 
ATOM     32  C   UNL     1      -6.026  -2.466   6.973  0.00  0.00    +0.105 C 
ENDBRANCH  24  27
ENDBRANCH  19  21
ENDBRANCH   1  17
TORSDOF 4
