REMARK  Name = ZINC12249977
REMARK  9 active torsions:
REMARK  status: ('A' for Active; 'I' for Inactive)
REMARK    1  A    between atoms: C_1  and  C_2
REMARK    2  A    between atoms: C_2  and  C_3
REMARK    3  A    between atoms: C_8  and  N_9
REMARK    4  A    between atoms: C_10  and  C_12
REMARK    5  A    between atoms: C_13  and  N_34
REMARK    6  A    between atoms: C_15  and  C_29
REMARK    7  A    between atoms: C_17  and  C_21
REMARK    8  A    between atoms: C_24  and  O_27
REMARK    9  A    between atoms: O_27  and  C_28
REMARK                            x       y       z     vdW  Elec       q    Type
REMARK                         _______ _______ _______ _____ _____    ______ ____
ROOT
ATOM      1  C   UNL     1       3.066   0.972  -0.019  0.00  0.00    +0.097 A 
ATOM      2  C   UNL     1       4.283   1.490   0.379  0.00  0.00    +0.054 A 
ATOM      3  C   UNL     1       5.231   0.639   0.976  0.00  0.00    +0.040 A 
ATOM      4  C   UNL     1       6.538   0.971   1.460  0.00  0.00    +0.031 A 
ATOM      5  C   UNL     1       7.323  -0.031   2.014  0.00  0.00    +0.040 A 
ATOM      6  C   UNL     1       6.838  -1.336   2.094  0.00  0.00    +0.073 A 
ATOM      7  N   UNL     1       5.624  -1.629   1.641  0.00  0.00    -0.239 NA
ATOM      8  C   UNL     1       4.845  -0.715   1.109  0.00  0.00    +0.112 A 
ATOM      9  S   UNL     1       3.207  -0.751   0.419  0.00  0.00    -0.062 S 
ENDROOT
BRANCH   6  10
ATOM     10  C   UNL     1       7.681  -2.400   2.687  0.00  0.00    +0.001 A 
ATOM     11  C   UNL     1       8.959  -2.099   3.158  0.00  0.00    +0.013 A 
ATOM     12  C   UNL     1       9.739  -3.091   3.713  0.00  0.00    +0.046 A 
ATOM     13  C   UNL     1       9.258  -4.391   3.794  0.00  0.00    +0.120 A 
ATOM     14  C   UNL     1       7.988  -4.695   3.321  0.00  0.00    +0.046 A 
ATOM     15  C   UNL     1       7.201  -3.707   2.769  0.00  0.00    +0.013 A 
BRANCH  13  16
ATOM     16  O   UNL     1      10.031  -5.367   4.338  0.00  0.00    -0.495 OA
ATOM     17  C   UNL     1      11.326  -4.984   4.804  0.00  0.00    +0.277 C 
ENDBRANCH  13  16
ENDBRANCH   6  10
BRANCH   4  18
ATOM     18  C   UNL     1       7.041   2.354   1.371  0.00  0.00    +0.136 A 
ATOM     19  C   UNL     1       8.232   2.739   0.834  0.00  0.00    +0.050 A 
ATOM     20  C   UNL     1       8.298   4.139   0.956  0.00  0.00    +0.042 A 
ATOM     21  C   UNL     1       7.161   4.537   1.564  0.00  0.00    +0.196 A 
ATOM     22  O   UNL     1       6.405   3.457   1.813  0.00  0.00    -0.463 OA
ENDBRANCH   4  18
BRANCH   1  24
ATOM     23  N   UNL     1       0.863   0.958  -0.954  0.00  0.00    -0.281 N 
ATOM     24  C   UNL     1       1.979   1.642  -0.629  0.00  0.00    +0.257 C 
ATOM     25  O   UNL     1       2.051   2.835  -0.861  0.00  0.00    -0.269 OA
ATOM     26  H   UNL     1       0.823  -0.000  -0.812  0.00  0.00    +0.155 HD
BRANCH  23  32
ATOM     27  C   UNL     1      -1.520   1.148  -1.294  0.00  0.00    -0.026 A 
ATOM     28  C   UNL     1      -2.601   1.814  -1.836  0.00  0.00    +0.005 A 
ATOM     29  C   UNL     1      -2.405   2.961  -2.583  0.00  0.00    +0.000 A 
ATOM     30  C   UNL     1      -1.126   3.444  -2.791  0.00  0.00    +0.002 A 
ATOM     31  C   UNL     1      -0.041   2.786  -2.248  0.00  0.00    +0.023 A 
ATOM     32  C   UNL     1      -0.234   1.631  -1.501  0.00  0.00    +0.037 A 
BRANCH  27  34
ATOM     33  C   UNL     1      -1.790   0.262   1.006  0.00  0.00    +0.009 C 
ATOM     34  C   UNL     1      -1.734  -0.101  -0.479  0.00  0.00    +0.033 C 
ENDBRANCH  27  34
ENDBRANCH  23  32
ENDBRANCH   1  24
BRANCH   2  35
ATOM     35  N   UNL     1       4.566   2.838   0.196  0.00  0.00    -0.356 N 
ATOM     36  H   UNL     1       3.845   3.486   0.167  0.00  0.00    +0.142 HD
ATOM     37  H   UNL     1       5.486   3.131   0.096  0.00  0.00    +0.142 HD
ENDBRANCH   2  35
TORSDOF 7
