REMARK  Name = ZINC34786746
REMARK  8 active torsions:
REMARK  status: ('A' for Active; 'I' for Inactive)
REMARK    1  A    between atoms: C_1  and  C_2
REMARK    2  A    between atoms: C_5  and  N_8
REMARK    3  A    between atoms: N_8  and  N_9
REMARK    4  A    between atoms: N_9  and  N_29
REMARK    5  A    between atoms: C_20  and  C_25
REMARK    6  A    between atoms: C_22  and  C_24
REMARK    7  A    between atoms: N_29  and  C_30
REMARK    8  A    between atoms: C_30  and  C_31
REMARK                            x       y       z     vdW  Elec       q    Type
REMARK                         _______ _______ _______ _____ _____    ______ ____
ROOT
ATOM      1  N   UNL     1       0.181  -4.873   1.183  0.00  0.00    -0.166 N 
ATOM      2  C   UNL     1      -0.951  -5.328   1.835  0.00  0.00    +0.167 A 
ATOM      3  C   UNL     1      -0.876  -6.442   2.717  0.00  0.00    +0.054 A 
ATOM      4  C   UNL     1       0.303  -7.249   3.072  0.00  0.00    -0.025 A 
ATOM      5  C   UNL     1       0.110  -8.259   3.936  0.00  0.00    -0.004 A 
ATOM      6  S   UNL     1      -1.623  -8.204   4.331  0.00  0.00    -0.073 S 
ATOM      7  C   UNL     1      -2.086  -6.819   3.327  0.00  0.00    +0.116 A 
ATOM      8  N   UNL     1      -3.211  -6.173   3.087  0.00  0.00    -0.203 NA
ATOM      9  C   UNL     1      -3.223  -5.142   2.257  0.00  0.00    +0.254 A 
ATOM     10  N   UNL     1      -2.116  -4.730   1.652  0.00  0.00    -0.192 NA
ATOM     11  N   UNL     1      -4.423  -4.472   2.017  0.00  0.00    -0.202 N 
ATOM     12  C   UNL     1      -5.630  -4.768   2.567  0.00  0.00    +0.045 A 
ATOM     13  C   UNL     1      -6.530  -3.886   2.077  0.00  0.00    +0.048 A 
ATOM     14  C   UNL     1      -5.858  -3.024   1.202  0.00  0.00    +0.061 A 
ATOM     15  N   UNL     1      -4.597  -3.369   1.170  0.00  0.00    -0.169 NA
ATOM     16  C   UNL     1      -6.481  -1.887   0.433  0.00  0.00    +0.067 C 
ATOM     17  C   UNL     1      -5.913  -5.879   3.544  0.00  0.00    +0.066 C 
ATOM     18  C   UNL     1       1.380  -9.015   4.220  0.00  0.00    +0.043 C 
ATOM     19  C   UNL     1       2.337  -8.609   3.078  0.00  0.00    +0.010 C 
ATOM     20  C   UNL     1       1.784  -7.224   2.685  0.00  0.00    +0.037 C 
ENDROOT
BRANCH   1  21
ATOM     21  N   UNL     1       0.095  -4.429  -0.142  0.00  0.00    -0.249 N 
ATOM     22  H   UNL     1       0.301  -5.035  -0.871  0.00  0.00    +0.172 HD
BRANCH  21  27
ATOM     23  C   UNL     1      -1.463   0.911  -1.248  0.00  0.00    +0.044 C 
ATOM     24  C   UNL     1      -1.049  -0.508  -0.955  0.00  0.00    -0.050 A 
ATOM     25  C   UNL     1      -0.652  -1.339  -1.986  0.00  0.00    +0.005 A 
ATOM     26  C   UNL     1      -0.272  -2.640  -1.721  0.00  0.00    +0.025 A 
ATOM     27  C   UNL     1      -0.289  -3.114  -0.415  0.00  0.00    +0.046 A 
ATOM     28  C   UNL     1      -0.688  -2.277   0.619  0.00  0.00    +0.025 A 
ATOM     29  C   UNL     1      -1.062  -0.975   0.347  0.00  0.00    +0.005 A 
ENDBRANCH  21  27
ENDBRANCH   1  21
BRANCH   1  30
ATOM     30  N   UNL     1       1.383  -4.856   1.832  0.00  0.00    -0.217 NA
ATOM     31  H   UNL     1       2.141  -5.049   1.194  0.00  0.00    +0.146 HD
BRANCH  30  32
ATOM     32  C   UNL     1       1.589  -3.578   2.525  0.00  0.00    +0.139 C 
BRANCH  32  33
ATOM     33  C   UNL     1       2.922  -3.597   3.228  0.00  0.00    -0.032 A 
ATOM     34  C   UNL     1       3.012  -4.058   4.528  0.00  0.00    +0.005 A 
ATOM     35  C   UNL     1       4.235  -4.075   5.173  0.00  0.00    +0.000 A 
ATOM     36  C   UNL     1       5.368  -3.633   4.517  0.00  0.00    +0.000 A 
ATOM     37  C   UNL     1       5.279  -3.173   3.216  0.00  0.00    +0.000 A 
ATOM     38  C   UNL     1       4.057  -3.159   2.570  0.00  0.00    +0.005 A 
ENDBRANCH  32  33
ENDBRANCH  30  32
ENDBRANCH   1  30
TORSDOF 5
