REMARK  Name = ZINC12150357
REMARK  9 active torsions:
REMARK  status: ('A' for Active; 'I' for Inactive)
REMARK    1  A    between atoms: C_1  and  O_2
REMARK    2  A    between atoms: O_2  and  C_3
REMARK    3  A    between atoms: C_6  and  S_9
REMARK    4  A    between atoms: S_9  and  C_10
REMARK    5  A    between atoms: C_13  and  C_26
REMARK    6  A    between atoms: C_16  and  C_17
REMARK    7  A    between atoms: C_16  and  N_63
REMARK    8  A    between atoms: C_18  and  C_19
REMARK    9  A    between atoms: N_28  and  C_29
REMARK                            x       y       z     vdW  Elec       q    Type
REMARK                         _______ _______ _______ _____ _____    ______ ____
ROOT
ATOM      1  C   UNL     1       2.845  -0.572   6.039  0.00  0.00    +0.034 C 
ATOM      2  C   UNL     1       3.517  -1.255   7.248  0.00  0.00    +0.006 C 
ATOM      3  C   UNL     1       5.009  -0.871   7.147  0.00  0.00    +0.021 C 
ATOM      4  C   UNL     1       3.987   0.167   5.310  0.00  0.00    -0.063 C 
ATOM      5  N   UNL     1       5.186  -0.558   5.725  0.00  0.00    +0.391 N 
ATOM      6  H   UNL     1       5.276  -1.426   5.183  0.00  0.00    -0.080 HD
ENDROOT
BRANCH   3   7
ATOM      7  C   UNL     1       5.878  -2.028   7.568  0.00  0.00    +0.200 C 
ATOM      8  O   UNL     1       6.613  -2.559   6.762  0.00  0.00    -0.278 OA
ATOM      9  N   UNL     1       5.840  -2.472   8.840  0.00  0.00    -0.312 N 
ATOM     10  H   UNL     1       5.253  -2.047   9.485  0.00  0.00    +0.149 HD
BRANCH   9  11
ATOM     11  C   UNL     1       6.686  -3.596   9.249  0.00  0.00    +0.095 C 
ATOM     12  C   UNL     1       5.965  -4.922   8.955  0.00  0.00    +0.046 C 
ATOM     13  C   UNL     1       6.694  -6.088   9.665  0.00  0.00    +0.168 C 
ATOM     14  S   UNL     1       7.459  -5.261  11.118  0.00  0.00    -0.029 S 
ATOM     15  O   UNL     1       8.873  -5.362  11.016  0.00  0.00    -0.174 OA
ATOM     16  O   UNL     1       6.809  -5.708  12.300  0.00  0.00    -0.174 OA
ATOM     17  C   UNL     1       6.956  -3.521  10.779  0.00  0.00    +0.188 C 
ENDBRANCH   9  11
ENDBRANCH   3   7
BRANCH   1  18
ATOM     18  S   UNL     1       1.588   0.609   6.601  0.00  0.00    -0.124 S 
BRANCH  18  22
ATOM     19  C   UNL     1      -0.196   2.221   2.761  0.00  0.00    +0.120 A 
ATOM     20  C   UNL     1       0.813   1.270   2.711  0.00  0.00    +0.047 A 
ATOM     21  C   UNL     1       1.361   0.782   3.881  0.00  0.00    +0.018 A 
ATOM     22  C   UNL     1       0.894   1.236   5.108  0.00  0.00    +0.008 A 
ATOM     23  C   UNL     1      -0.120   2.184   5.157  0.00  0.00    +0.018 A 
ATOM     24  C   UNL     1      -0.663   2.674   3.986  0.00  0.00    +0.047 A 
BRANCH  19  26
ATOM     25  C   UNL     1      -0.204   2.193   0.383  0.00  0.00    +0.277 C 
ATOM     26  O   UNL     1      -0.732   2.704   1.608  0.00  0.00    -0.495 OA
ENDBRANCH  19  26
ENDBRANCH  18  22
ENDBRANCH   1  18
BRANCH   5  27
ATOM     27  C   UNL     1       6.410   0.278   5.521  0.00  0.00    -0.029 C 
BRANCH  27  28
ATOM     28  C   UNL     1       6.666   0.464   4.048  0.00  0.00    +0.003 C 
ATOM     29  C   UNL     1       6.567   1.671   3.504  0.00  0.00    +0.021 C 
ATOM     30 CL   UNL     1       7.088  -0.900   3.061  0.00  0.00    -0.090 Cl
BRANCH  29  31
ATOM     31  C   UNL     1       6.973   1.884   2.099  0.00  0.00    -0.024 A 
ATOM     32  C   UNL     1       8.027   1.149   1.555  0.00  0.00    +0.008 A 
ATOM     33  C   UNL     1       8.397   1.349   0.241  0.00  0.00    +0.001 A 
ATOM     34  C   UNL     1       7.734   2.284  -0.533  0.00  0.00    +0.000 A 
ATOM     35  C   UNL     1       6.692   3.020   0.002  0.00  0.00    +0.001 A 
ATOM     36  C   UNL     1       6.308   2.825   1.313  0.00  0.00    +0.008 A 
ENDBRANCH  29  31
ENDBRANCH  27  28
ENDBRANCH   5  27
TORSDOF 8
