REMARK  Name = ZINC67282581
REMARK  12 active torsions:
REMARK  status: ('A' for Active; 'I' for Inactive)
REMARK    1  A    between atoms: C_1  and  C_2
REMARK    2  A    between atoms: C_2  and  C_4
REMARK    3  A    between atoms: C_2  and  N_16
REMARK    4  A    between atoms: C_8  and  S_10
REMARK    5  A    between atoms: S_10  and  N_13
REMARK    6  A    between atoms: N_13  and  C_14
REMARK    7  A    between atoms: N_13  and  C_15
REMARK    8  A    between atoms: N_19  and  C_20
REMARK    9  A    between atoms: C_20  and  C_21
REMARK   10  A    between atoms: N_25  and  C_27
REMARK   11  A    between atoms: C_27  and  C_28
REMARK   12  A    between atoms: C_27  and  C_29
REMARK                            x       y       z     vdW  Elec       q    Type
REMARK                         _______ _______ _______ _____ _____    ______ ____
ROOT
ATOM      1  N   UNL     1       0.711  -0.489   1.189  0.00  0.00    -0.293 N 
ATOM      2  C   UNL     1       0.051  -0.633   2.355  0.00  0.00    +0.300 C 
ATOM      3  O   UNL     1      -1.132  -0.361   2.423  0.00  0.00    -0.253 OA
ATOM      4  N   UNL     1       0.703  -1.080   3.447  0.00  0.00    -0.299 N 
ATOM      5  H   UNL     1       1.654  -0.707   1.135  0.00  0.00    +0.151 HD
ATOM      6  H   UNL     1       1.647  -1.298   3.394  0.00  0.00    +0.150 HD
ENDROOT
BRANCH   1   8
ATOM      7  C   UNL     1      -0.019   1.526   0.010  0.00  0.00    +0.033 C 
ATOM      8  C   UNL     1       0.002  -0.004   0.002  0.00  0.00    +0.102 C 
BRANCH   8   9
ATOM      9  C   UNL     1       0.707  -0.490  -1.238  0.00  0.00    -0.026 A 
ATOM     10  C   UNL     1       2.089  -0.511  -1.284  0.00  0.00    +0.005 A 
ATOM     11  C   UNL     1       2.736  -0.957  -2.421  0.00  0.00    +0.002 A 
ATOM     12  C   UNL     1       2.002  -1.382  -3.512  0.00  0.00    +0.028 A 
ATOM     13  C   UNL     1       0.620  -1.362  -3.466  0.00  0.00    +0.106 A 
ATOM     14  C   UNL     1      -0.027  -0.920  -2.327  0.00  0.00    +0.034 A 
BRANCH  13  15
ATOM     15  S   UNL     1      -0.316  -1.904  -4.857  0.00  0.00    +0.060 S 
ATOM     16  O   UNL     1      -1.586  -1.274  -4.762  0.00  0.00    -0.153 OA
ATOM     17  O   UNL     1       0.524  -1.758  -5.994  0.00  0.00    -0.153 OA
BRANCH  15  18
ATOM     18  N   UNL     1      -0.578  -3.528  -4.668  0.00  0.00    -0.183 NA
ATOM     19  C   UNL     1      -1.768  -4.000  -3.957  0.00  0.00    +0.131 C 
ATOM     20  C   UNL     1       0.381  -4.493  -5.212  0.00  0.00    +0.131 C 
ENDBRANCH  15  18
ENDBRANCH  13  15
ENDBRANCH   8   9
ENDBRANCH   1   8
BRANCH   4  21
ATOM     21  C   UNL     1      -0.014  -1.237   4.715  0.00  0.00    +0.107 C 
BRANCH  21  22
ATOM     22  C   UNL     1       0.950  -1.754   5.785  0.00  0.00    -0.012 C 
ATOM     23  C   UNL     1       1.997  -0.669   6.151  0.00  0.00    -0.015 C 
ATOM     24  C   UNL     1       2.375  -1.074   7.598  0.00  0.00    -0.078 C 
ATOM     25  N   UNL     1       1.109  -1.544   8.201  0.00  0.00    +0.381 N 
ATOM     26  C   UNL     1       0.209  -1.991   7.118  0.00  0.00    -0.074 C 
ATOM     27  H   UNL     1       0.678  -0.791   8.715  0.00  0.00    -0.081 HD
BRANCH  25  28
ATOM     28  C   UNL     1       1.381  -2.668   9.108  0.00  0.00    -0.075 C 
ATOM     29  C   UNL     1       2.304  -2.201  10.235  0.00  0.00    -0.014 C 
ATOM     30  C   UNL     1       0.066  -3.174   9.702  0.00  0.00    -0.014 C 
ENDBRANCH  25  28
ENDBRANCH  21  22
ENDBRANCH   4  21
TORSDOF 7
