REMARK  Name = ZINC63761248
REMARK  12 active torsions:
REMARK  status: ('A' for Active; 'I' for Inactive)
REMARK    1  A    between atoms: C_1  and  C_2
REMARK    2  A    between atoms: C_4  and  O_10
REMARK    3  A    between atoms: C_6  and  C_9
REMARK    4  A    between atoms: O_10  and  C_11
REMARK    5  A    between atoms: C_11  and  C_12
REMARK    6  A    between atoms: C_14  and  C_20
REMARK    7  A    between atoms: C_17  and  O_18
REMARK    8  A    between atoms: O_18  and  C_19
REMARK    9  A    between atoms: N_21  and  N_22
REMARK   10  A    between atoms: C_23  and  C_25
REMARK   11  A    between atoms: C_25  and  C_26
REMARK   12  A    between atoms: C_26  and  C_27
REMARK                            x       y       z     vdW  Elec       q    Type
REMARK                         _______ _______ _______ _____ _____    ______ ____
ROOT
ATOM      1  C   UNL     1       0.049  -4.746  -3.712  0.00  0.00    +0.032 A 
ATOM      2  C   UNL     1       0.037  -3.901  -4.801  0.00  0.00    +0.020 A 
ATOM      3  C   UNL     1       0.038  -4.431  -6.094  0.00  0.00    -0.005 A 
ATOM      4  C   UNL     1       0.051  -5.816  -6.277  0.00  0.00    +0.013 A 
ATOM      5  C   UNL     1       0.062  -6.654  -5.183  0.00  0.00    +0.046 A 
ATOM      6  C   UNL     1       0.067  -6.122  -3.899  0.00  0.00    +0.127 A 
ENDROOT
BRANCH   6   7
ATOM      7  O   UNL     1       0.085  -6.952  -2.823  0.00  0.00    -0.495 OA
ATOM      8  C   UNL     1       0.103  -8.356  -3.087  0.00  0.00    +0.277 C 
ENDBRANCH   6   7
BRANCH   3   9
ATOM      9  C   UNL     1       0.025  -3.531  -7.261  0.00  0.00    +0.138 C 
ATOM     10  N   UNL     1       0.025  -4.025  -8.461  0.00  0.00    -0.188 NA
BRANCH  10  11
ATOM     11  N   UNL     1       0.013  -3.170  -9.571  0.00  0.00    -0.207 N 
ATOM     12  C   UNL     1       0.014  -3.683 -10.817  0.00  0.00    +0.232 C 
ATOM     13  O   UNL     1       0.025  -4.885 -10.978  0.00  0.00    -0.274 OA
ATOM     14  H   UNL     1       0.004  -2.208  -9.442  0.00  0.00    +0.177 HD
BRANCH  12  15
ATOM     15  C   UNL     1       0.000  -2.763 -12.011  0.00  0.00    +0.102 C 
BRANCH  15  16
ATOM     16  C   UNL     1       0.004  -3.594 -13.295  0.00  0.00    +0.042 C 
BRANCH  16  17
ATOM     17  C   UNL     1      -0.009  -2.674 -14.489  0.00  0.00    -0.041 C 
ATOM     18  C   UNL     1       1.060  -2.245 -15.198  0.00  0.00    -0.001 A 
ATOM     19  C   UNL     1       2.501  -2.498 -15.073  0.00  0.00    +0.010 A 
ATOM     20  C   UNL     1       3.347  -1.914 -15.952  0.00  0.00    +0.001 A 
ATOM     21  C   UNL     1       2.884  -1.075 -16.975  0.00  0.00    +0.002 A 
ATOM     22  C   UNL     1       1.575  -0.796 -17.153  0.00  0.00    +0.026 A 
ATOM     23  C   UNL     1       0.597  -1.357 -16.287  0.00  0.00    +0.043 A 
ATOM     24  N   UNL     1      -0.709  -1.240 -16.253  0.00  0.00    -0.380 N 
ATOM     25  C   UNL     1      -1.222  -2.047 -15.141  0.00  0.00    +0.144 C 
ATOM     26  H   UNL     1      -1.246  -0.712 -16.864  0.00  0.00    +0.160 HD
ENDBRANCH  16  17
ENDBRANCH  15  16
ENDBRANCH  12  15
ENDBRANCH  10  11
ENDBRANCH   3   9
BRANCH   1  27
ATOM     27  C   UNL     1       0.049  -4.176  -2.317  0.00  0.00    +0.268 C 
BRANCH  27  28
ATOM     28  O   UNL     1       0.028  -2.749  -2.386  0.00  0.00    -0.487 OA
BRANCH  28  32
ATOM     29  C   UNL     1      -0.018   1.503   0.010  0.00  0.00    +0.045 C 
ATOM     30  C   UNL     1       0.002  -0.004   0.002  0.00  0.00    -0.028 A 
ATOM     31  C   UNL     1       0.006  -0.688  -1.198  0.00  0.00    +0.050 A 
ATOM     32  C   UNL     1       0.025  -2.075  -1.206  0.00  0.00    +0.122 A 
ATOM     33  C   UNL     1       0.041  -2.773  -0.007  0.00  0.00    +0.050 A 
ATOM     34  C   UNL     1       0.037  -2.085   1.192  0.00  0.00    -0.028 A 
ATOM     35  C   UNL     1       0.023  -0.702   1.197  0.00  0.00    +0.047 A 
ATOM     36 CL   UNL     1       0.025   0.160   2.704  0.00  0.00    -0.083 Cl
ATOM     37  C   UNL     1       0.054  -2.843   2.494  0.00  0.00    +0.045 C 
ENDBRANCH  28  32
ENDBRANCH  27  28
ENDBRANCH   1  27
TORSDOF 9
