REMARK  Name = ZINC35577325
REMARK  10 active torsions:
REMARK  status: ('A' for Active; 'I' for Inactive)
REMARK    1  A    between atoms: C_1  and  O_2
REMARK    2  A    between atoms: O_2  and  C_3
REMARK    3  A    between atoms: C_6  and  C_11
REMARK    4  A    between atoms: C_8  and  O_9
REMARK    5  A    between atoms: O_9  and  C_10
REMARK    6  A    between atoms: C_13  and  N_35
REMARK    7  A    between atoms: N_14  and  C_28
REMARK    8  A    between atoms: N_20  and  C_21
REMARK    9  A    between atoms: C_21  and  C_22
REMARK   10  A    between atoms: C_22  and  C_23
REMARK                            x       y       z     vdW  Elec       q    Type
REMARK                         _______ _______ _______ _____ _____    ______ ____
ROOT
ATOM      1  C   UNL     1      -4.895  -2.756   0.243  0.00  0.00    +0.089 A 
ATOM      2  C   UNL     1      -6.003  -2.188   0.913  0.00  0.00    +0.086 A 
ATOM      3  C   UNL     1      -6.224  -1.056   1.688  0.00  0.00    +0.131 A 
ATOM      4  N   UNL     1      -7.521  -1.060   2.051  0.00  0.00    -0.216 N 
ATOM      5  N   UNL     1      -8.160  -2.187   1.521  0.00  0.00    -0.144 NA
ATOM      6  C   UNL     1      -7.294  -2.896   0.831  0.00  0.00    +0.189 A 
ATOM      7  N   UNL     1      -7.340  -4.041   0.123  0.00  0.00    -0.193 NA
ATOM      8  C   UNL     1      -6.258  -4.500  -0.470  0.00  0.00    +0.218 A 
ATOM      9  N   UNL     1      -5.078  -3.889  -0.425  0.00  0.00    -0.214 NA
ATOM     10  N   UNL     1      -6.355  -5.681  -1.185  0.00  0.00    -0.313 N 
ATOM     11  H   UNL     1      -5.574  -6.042  -1.633  0.00  0.00    +0.149 HD
ENDROOT
BRANCH   4  12
ATOM     12  C   UNL     1      -8.139  -0.082   2.841  0.00  0.00    +0.068 A 
ATOM     13  C   UNL     1      -7.430   0.536   3.863  0.00  0.00    +0.030 A 
ATOM     14  C   UNL     1      -8.040   1.500   4.640  0.00  0.00    +0.040 A 
ATOM     15  C   UNL     1      -9.359   1.850   4.402  0.00  0.00    +0.124 A 
ATOM     16  C   UNL     1     -10.068   1.234   3.384  0.00  0.00    +0.040 A 
ATOM     17  C   UNL     1      -9.459   0.275   2.600  0.00  0.00    +0.030 A 
ATOM     18  F   UNL     1      -9.955   2.793   5.165  0.00  0.00    -0.205 F 
ENDBRANCH   4  12
BRANCH   1  22
ATOM     19  C   UNL     1      -1.082  -0.878   0.357  0.00  0.00    +0.162 A 
ATOM     20  C   UNL     1      -1.817  -1.026   1.524  0.00  0.00    +0.050 A 
ATOM     21  C   UNL     1      -3.054  -1.634   1.490  0.00  0.00    +0.014 A 
ATOM     22  C   UNL     1      -3.569  -2.103   0.280  0.00  0.00    +0.005 A 
ATOM     23  C   UNL     1      -2.830  -1.953  -0.894  0.00  0.00    +0.059 A 
ATOM     24  C   UNL     1      -1.593  -1.338  -0.855  0.00  0.00    +0.162 A 
BRANCH  19  26
ATOM     25  C   UNL     1       0.600   0.171   1.670  0.00  0.00    +0.277 C 
ATOM     26  O   UNL     1       0.137  -0.278   0.395  0.00  0.00    -0.491 OA
ENDBRANCH  19  26
BRANCH  24  27
ATOM     27  O   UNL     1      -0.872  -1.187  -1.999  0.00  0.00    -0.491 OA
ATOM     28  C   UNL     1      -1.457  -1.683  -3.205  0.00  0.00    +0.277 C 
ENDBRANCH  24  27
ENDBRANCH   1  22
BRANCH   3  29
ATOM     29  N   UNL     1      -5.284  -0.101   2.025  0.00  0.00    -0.342 N 
ATOM     30  H   UNL     1      -4.417  -0.098   1.590  0.00  0.00    +0.144 HD
ATOM     31  H   UNL     1      -5.491   0.568   2.697  0.00  0.00    +0.144 HD
ENDBRANCH   3  29
BRANCH  10  32
ATOM     32  C   UNL     1      -7.637  -6.384  -1.267  0.00  0.00    +0.109 C 
BRANCH  32  33
ATOM     33  C   UNL     1      -7.472  -7.650  -2.110  0.00  0.00    +0.061 C 
BRANCH  33  34
ATOM     34  C   UNL     1      -8.791  -8.373  -2.194  0.00  0.00    -0.009 A 
ATOM     35  C   UNL     1      -9.780  -8.242  -3.112  0.00  0.00    +0.011 A 
ATOM     36  C   UNL     1     -10.916  -9.020  -2.989  0.00  0.00    +0.008 A 
ATOM     37  C   UNL     1     -11.008  -9.891  -1.955  0.00  0.00    +0.045 A 
ATOM     38  S   UNL     1      -9.454  -9.632  -1.115  0.00  0.00    -0.102 S 
ENDBRANCH  33  34
ENDBRANCH  32  33
ENDBRANCH  10  32
TORSDOF 8
