REMARK  Name = ZINC64802015
REMARK  7 active torsions:
REMARK  status: ('A' for Active; 'I' for Inactive)
REMARK    1  A    between atoms: C_1  and  C_2
REMARK    2  A    between atoms: C_5  and  S_8
REMARK    3  A    between atoms: S_8  and  N_11
REMARK    4  A    between atoms: N_11  and  C_12
REMARK    5  A    between atoms: C_15  and  N_18
REMARK    6  A    between atoms: C_21  and  C_32
REMARK    7  A    between atoms: N_25  and  C_26
REMARK                            x       y       z     vdW  Elec       q    Type
REMARK                         _______ _______ _______ _____ _____    ______ ____
ROOT
ATOM      1  C   UNL     1       4.944  -0.213   6.139  0.00  0.00    +0.048 A 
ATOM      2  C   UNL     1       6.107  -0.963   6.244  0.00  0.00    +0.026 A 
ATOM      3  C   UNL     1       6.136  -2.262   5.777  0.00  0.00    +0.025 A 
ATOM      4  C   UNL     1       5.001  -2.818   5.202  0.00  0.00    +0.032 A 
ATOM      5  C   UNL     1       3.837  -2.068   5.097  0.00  0.00    +0.025 A 
ATOM      6  C   UNL     1       3.807  -0.771   5.570  0.00  0.00    +0.026 A 
ENDROOT
BRANCH   4   7
ATOM      7  N   UNL     1       5.030  -4.136   4.728  0.00  0.00    -0.299 N 
ATOM      8  C   UNL     1       5.820  -5.083   5.360  0.00  0.00    +0.128 A 
ATOM      9  C   UNL     1       5.952  -6.367   4.825  0.00  0.00    +0.064 A 
ATOM     10  C   UNL     1       6.749  -7.278   5.489  0.00  0.00    +0.019 A 
ATOM     11  N   UNL     1       7.363  -6.910   6.605  0.00  0.00    -0.332 N 
ATOM     12  C   UNL     1       7.220  -5.686   7.089  0.00  0.00    +0.195 A 
ATOM     13  N   UNL     1       6.469  -4.781   6.480  0.00  0.00    -0.201 NA
ATOM     14  N   UNL     1       7.877  -5.341   8.258  0.00  0.00    -0.312 N 
ATOM     15  C   UNL     1       6.920  -8.675   4.951  0.00  0.00    +0.063 C 
ATOM     16  H   UNL     1       4.497  -4.385   3.956  0.00  0.00    +0.154 HD
ATOM     17  H   UNL     1       7.780  -4.448   8.623  0.00  0.00    +0.149 HD
ATOM     18  H   UNL     1       7.924  -7.548   7.074  0.00  0.00    +0.168 HD
BRANCH  14  19
ATOM     19  C   UNL     1       8.717  -6.326   8.943  0.00  0.00    +0.073 C 
ATOM     20  C   UNL     1       7.848  -7.189   9.860  0.00  0.00    +0.022 C 
ATOM     21  C   UNL     1       8.726  -8.218  10.575  0.00  0.00    +0.002 C 
ATOM     22  C   UNL     1       9.784  -7.493  11.410  0.00  0.00    +0.000 C 
ATOM     23  C   UNL     1      10.653  -6.629  10.494  0.00  0.00    +0.002 C 
ATOM     24  C   UNL     1       9.775  -5.601   9.778  0.00  0.00    +0.022 C 
ENDBRANCH  14  19
ENDBRANCH   4   7
BRANCH   1  25
ATOM     25  N   UNL     1       4.915   1.104   6.613  0.00  0.00    -0.216 N 
ATOM     26  H   UNL     1       4.520   1.805   6.072  0.00  0.00    +0.174 HD
BRANCH  25  27
ATOM     27  S   UNL     1       5.554   1.464   8.098  0.00  0.00    +0.072 S 
ATOM     28  O   UNL     1       5.307   2.845   8.322  0.00  0.00    -0.150 OA
ATOM     29  O   UNL     1       6.862   0.910   8.122  0.00  0.00    -0.150 OA
BRANCH  27  34
ATOM     30  C   UNL     1       2.331  -1.554  12.211  0.00  0.00    +0.044 C 
ATOM     31  C   UNL     1       3.136  -0.800  11.183  0.00  0.00    -0.050 A 
ATOM     32  C   UNL     1       4.199  -1.417  10.550  0.00  0.00    +0.005 A 
ATOM     33  C   UNL     1       4.937  -0.726   9.607  0.00  0.00    +0.029 A 
ATOM     34  C   UNL     1       4.612   0.582   9.298  0.00  0.00    +0.109 A 
ATOM     35  C   UNL     1       3.549   1.198   9.931  0.00  0.00    +0.029 A 
ATOM     36  C   UNL     1       2.808   0.506  10.870  0.00  0.00    +0.005 A 
ENDBRANCH  27  34
ENDBRANCH  25  27
ENDBRANCH   1  25
TORSDOF 5
