REMARK  Name = ZINC02724658
REMARK  4 active torsions:
REMARK  status: ('A' for Active; 'I' for Inactive)
REMARK    1  A    between atoms: C_6  and  O_11
REMARK    2  A    between atoms: O_11  and  C_12
REMARK    3  A    between atoms: C_12  and  C_13
REMARK    4  A    between atoms: C_26  and  C_28
REMARK                            x       y       z     vdW  Elec       q    Type
REMARK                         _______ _______ _______ _____ _____    ______ ____
ROOT
ATOM      1  C   UNL     1      -4.188   0.969  -1.689  0.00  0.00    +0.254 C 
ATOM      2  O   UNL     1      -4.031  -0.231  -1.777  0.00  0.00    -0.272 OA
ATOM      3  N   UNL     1      -3.463   1.679  -0.803  0.00  0.00    -0.279 N 
ATOM      4  C   UNL     1      -3.681   3.114  -0.728  0.00  0.00    +0.204 C 
ATOM      5  C   UNL     1      -4.357   3.466   0.558  0.00  0.00    +0.235 C 
ATOM      6  O   UNL     1      -5.145   4.387   0.525  0.00  0.00    -0.274 OA
ATOM      7  N   UNL     1      -4.186   2.882   1.709  0.00  0.00    -0.284 N 
ATOM      8  C   UNL     1      -3.700   1.678   2.162  0.00  0.00    +0.039 A 
ATOM      9  C   UNL     1      -4.008   1.375   3.499  0.00  0.00    +0.026 A 
ATOM     10  C   UNL     1      -3.593   0.203   4.083  0.00  0.00    +0.040 A 
ATOM     11  C   UNL     1      -2.849  -0.704   3.346  0.00  0.00    +0.124 A 
ATOM     12  C   UNL     1      -2.530  -0.411   2.038  0.00  0.00    +0.046 A 
ATOM     13  C   UNL     1      -2.945   0.782   1.440  0.00  0.00    +0.001 A 
ATOM     14  C   UNL     1      -2.513   0.978   0.020  0.00  0.00    +0.139 C 
ATOM     15  F   UNL     1      -2.442  -1.865   3.904  0.00  0.00    -0.205 F 
ATOM     16  H   UNL     1      -4.480   3.446   2.441  0.00  0.00    +0.155 HD
ENDROOT
BRANCH  14  17
ATOM     17  C   UNL     1      -1.219   1.750   0.017  0.00  0.00    -0.022 A 
ATOM     18  C   UNL     1      -1.165   3.010   0.584  0.00  0.00    +0.008 A 
ATOM     19  C   UNL     1       0.022   3.717   0.587  0.00  0.00    +0.038 A 
ATOM     20  C   UNL     1       1.157   3.165   0.018  0.00  0.00    +0.123 A 
ATOM     21  C   UNL     1       1.101   1.905  -0.555  0.00  0.00    +0.038 A 
ATOM     22  C   UNL     1      -0.088   1.201  -0.557  0.00  0.00    +0.008 A 
ATOM     23  F   UNL     1       2.319   3.855   0.020  0.00  0.00    -0.205 F 
ENDBRANCH  14  17
BRANCH   1  24
ATOM     24  C   UNL     1      -5.194   1.664  -2.570  0.00  0.00    +0.324 C 
BRANCH  24  25
ATOM     25  O   UNL     1      -5.830   0.704  -3.416  0.00  0.00    -0.483 OA
BRANCH  25  31
ATOM     26  C   UNL     1     -10.297   1.773  -7.750  0.00  0.00    +0.001 A 
ATOM     27  C   UNL     1     -10.001   0.412  -7.729  0.00  0.00    +0.001 A 
ATOM     28  C   UNL     1      -9.064  -0.088  -6.877  0.00  0.00    +0.008 A 
ATOM     29  C   UNL     1      -8.384   0.779  -6.004  0.00  0.00    -0.014 A 
ATOM     30  C   UNL     1      -7.408   0.299  -5.116  0.00  0.00    +0.054 A 
ATOM     31  C   UNL     1      -6.771   1.170  -4.279  0.00  0.00    +0.122 A 
ATOM     32  C   UNL     1      -7.070   2.536  -4.302  0.00  0.00    +0.046 A 
ATOM     33  C   UNL     1      -8.007   3.032  -5.154  0.00  0.00    +0.012 A 
ATOM     34  C   UNL     1      -8.686   2.163  -6.026  0.00  0.00    -0.018 A 
ATOM     35  C   UNL     1      -9.659   2.642  -6.919  0.00  0.00    +0.008 A 
ENDBRANCH  25  31
ENDBRANCH  24  25
ENDBRANCH   1  24
TORSDOF 4
