REMARK  Name = ZINC08843249
REMARK  8 active torsions:
REMARK  status: ('A' for Active; 'I' for Inactive)
REMARK    1  A    between atoms: C_1  and  C_2
REMARK    2  A    between atoms: C_5  and  S_8
REMARK    3  A    between atoms: S_8  and  O_11
REMARK    4  A    between atoms: O_11  and  C_12
REMARK    5  A    between atoms: C_17  and  C_18
REMARK    6  A    between atoms: N_19  and  N_20
REMARK    7  A    between atoms: N_20  and  C_21
REMARK    8  A    between atoms: C_21  and  N_23
REMARK                            x       y       z     vdW  Elec       q    Type
REMARK                         _______ _______ _______ _____ _____    ______ ____
ROOT
ATOM      1  C   UNL     1       1.239   3.231   0.002  0.00  0.00    +0.165 A 
ATOM      2  C   UNL     1       2.434   3.931   0.000  0.00  0.00    +0.050 A 
ATOM      3  C   UNL     1       3.637   3.249  -0.015  0.00  0.00    +0.019 A 
ATOM      4  C   UNL     1       3.656   1.864  -0.023  0.00  0.00    +0.019 A 
ATOM      5  C   UNL     1       2.475   1.152  -0.015  0.00  0.00    +0.028 A 
ATOM      6  C   UNL     1       1.254   1.830  -0.000  0.00  0.00    +0.040 A 
ATOM      7 BR   UNL     1       5.309   0.946  -0.043  0.00  0.00    -0.050 Br
ENDROOT
BRANCH   6   8
ATOM      8  C   UNL     1      -0.013   1.076   0.008  0.00  0.00    +0.142 C 
ATOM      9  N   UNL     1      -1.145   1.709   0.017  0.00  0.00    -0.188 NA
BRANCH   9  10
ATOM     10  N   UNL     1      -2.349   0.993   0.019  0.00  0.00    -0.219 N 
ATOM     11  H   UNL     1      -2.336   0.023   0.013  0.00  0.00    +0.176 HD
BRANCH  10  12
ATOM     12  C   UNL     1      -3.525   1.651   0.028  0.00  0.00    +0.147 C 
ATOM     13  S   UNL     1      -4.996   0.774   0.030  0.00  0.00    -0.017 S 
BRANCH  12  14
ATOM     14  N   UNL     1      -3.543   2.998   0.035  0.00  0.00    -0.339 N 
ATOM     15  H   UNL     1      -2.710   3.494   0.034  0.00  0.00    +0.144 HD
ATOM     16  H   UNL     1      -4.390   3.472   0.042  0.00  0.00    +0.144 HD
ENDBRANCH  12  14
ENDBRANCH  10  12
ENDBRANCH   9  10
ENDBRANCH   6   8
BRANCH   1  17
ATOM     17  O   UNL     1       0.057   3.901   0.011  0.00  0.00    -0.342 OA
BRANCH  17  18
ATOM     18  S   UNL     1      -0.472   4.204   1.405  0.00  0.00    +0.151 S 
ATOM     19  O   UNL     1      -1.789   4.709   1.239  0.00  0.00    -0.131 OA
ATOM     20  O   UNL     1      -0.188   3.064   2.204  0.00  0.00    -0.131 OA
BRANCH  18  25
ATOM     21  C   UNL     1       2.842   8.732   3.625  0.00  0.00    +0.044 C 
ATOM     22  C   UNL     1       2.014   7.601   3.071  0.00  0.00    -0.050 A 
ATOM     23  C   UNL     1       0.866   7.873   2.352  0.00  0.00    +0.005 A 
ATOM     24  C   UNL     1       0.106   6.836   1.844  0.00  0.00    +0.031 A 
ATOM     25  C   UNL     1       0.496   5.526   2.054  0.00  0.00    +0.128 A 
ATOM     26  C   UNL     1       1.643   5.254   2.776  0.00  0.00    +0.031 A 
ATOM     27  C   UNL     1       2.404   6.291   3.281  0.00  0.00    +0.005 A 
ENDBRANCH  18  25
ENDBRANCH  17  18
ENDBRANCH   1  17
TORSDOF 7
