REMARK  Name = ZINC39210506
REMARK  7 active torsions:
REMARK  status: ('A' for Active; 'I' for Inactive)
REMARK    1  A    between atoms: C_1  and  C_2
REMARK    2  A    between atoms: C_2  and  C_3
REMARK    3  A    between atoms: C_3  and  C_4
REMARK    4  A    between atoms: C_6  and  C_18
REMARK    5  A    between atoms: C_8  and  C_16
REMARK    6  A    between atoms: C_9  and  N_15
REMARK    7  A    between atoms: C_23  and  C_24
REMARK                            x       y       z     vdW  Elec       q    Type
REMARK                         _______ _______ _______ _____ _____    ______ ____
ROOT
ATOM      1  C   UNL     1       1.105  -1.809   1.829  0.00  0.00    +0.069 C 
ATOM      2  C   UNL     1       1.821  -2.723   1.221  0.00  0.00    +0.026 C 
ATOM      3  C   UNL     1       2.945  -2.665   0.223  0.00  0.00    +0.082 C 
ATOM      4  C   UNL     1       2.641  -3.749  -0.795  0.00  0.00    +0.094 C 
ATOM      5  C   UNL     1       1.650  -4.644  -0.603  0.00  0.00    +0.195 C 
ATOM      6  O   UNL     1       0.805  -4.696   0.443  0.00  0.00    -0.448 OA
ATOM      7  C   UNL     1       1.215  -4.058   1.655  0.00  0.00    +0.343 C 
ATOM      8  N   UNL     1       0.073  -3.625   2.467  0.00  0.00    -0.138 NA
ATOM      9  N   UNL     1       0.101  -2.389   2.536  0.00  0.00    -0.155 NA
ENDROOT
BRANCH   3  10
ATOM     10  C   UNL     1       2.979  -1.294  -0.455  0.00  0.00    +0.095 C 
ATOM     11  C   UNL     1       1.896  -1.192  -1.511  0.00  0.00    +0.118 C 
ATOM     12  N   UNL     1       2.507  -1.004  -2.635  0.00  0.00    -0.161 NA
ATOM     13  N   UNL     1       3.890  -0.961  -2.489  0.00  0.00    -0.153 NA
ATOM     14  C   UNL     1       4.262  -1.120  -1.245  0.00  0.00    +0.080 C 
BRANCH  14  15
ATOM     15  C   UNL     1       5.635  -1.129  -0.719  0.00  0.00    -0.001 A 
ATOM     16  C   UNL     1       5.859  -1.197   0.660  0.00  0.00    +0.012 A 
ATOM     17  C   UNL     1       7.149  -1.206   1.146  0.00  0.00    +0.039 A 
ATOM     18  C   UNL     1       8.223  -1.147   0.271  0.00  0.00    +0.123 A 
ATOM     19  C   UNL     1       8.008  -1.080  -1.098  0.00  0.00    +0.039 A 
ATOM     20  C   UNL     1       6.724  -1.077  -1.597  0.00  0.00    +0.012 A 
ATOM     21  F   UNL     1       9.485  -1.156   0.753  0.00  0.00    -0.205 F 
ENDBRANCH  14  15
ENDBRANCH   3  10
BRANCH   5  22
ATOM     22  N   UNL     1       1.486  -5.598  -1.575  0.00  0.00    -0.329 N 
ATOM     23  H   UNL     1       2.068  -5.605  -2.351  0.00  0.00    +0.145 HD
ATOM     24  H   UNL     1       0.787  -6.266  -1.487  0.00  0.00    +0.145 HD
ENDBRANCH   5  22
BRANCH   4  25
ATOM     25  C   UNL     1       3.427  -3.824  -1.989  0.00  0.00    +0.100 C 
ATOM     26  N   UNL     1       4.051  -3.883  -2.937  0.00  0.00    -0.191 NA
ENDBRANCH   4  25
BRANCH   1  27
ATOM     27  C   UNL     1       1.362  -0.325   1.759  0.00  0.00    +0.057 C 
BRANCH  27  29
ATOM     28  C   UNL     1       0.836   1.775   0.512  0.00  0.00    +0.004 C 
ATOM     29  C   UNL     1       0.488   0.292   0.665  0.00  0.00    +0.003 C 
ENDBRANCH  27  29
ENDBRANCH   1  27
TORSDOF 6
