REMARK  Name = ZINC41647491
REMARK  8 active torsions:
REMARK  status: ('A' for Active; 'I' for Inactive)
REMARK    1  A    between atoms: C_1  and  C_2
REMARK    2  A    between atoms: C_11  and  C_12
REMARK    3  A    between atoms: N_21  and  C_24
REMARK    4  A    between atoms: C_24  and  C_25
REMARK    5  A    between atoms: C_28  and  O_33
REMARK    6  A    between atoms: C_29  and  O_31
REMARK    7  A    between atoms: O_31  and  C_32
REMARK    8  A    between atoms: O_33  and  C_34
REMARK                            x       y       z     vdW  Elec       q    Type
REMARK                         _______ _______ _______ _____ _____    ______ ____
ROOT
ATOM      1  C   UNL     1      -0.081   1.509   0.016  0.00  0.00    +0.045 C 
ATOM      2  C   UNL     1      -0.072   0.002   0.006  0.00  0.00    -0.033 A 
ATOM      3  C   UNL     1      -0.095  -0.674  -1.180  0.00  0.00    +0.050 A 
ATOM      4  C   UNL     1      -0.085  -2.068  -1.196  0.00  0.00    +0.131 A 
ATOM      5  C   UNL     1      -0.050  -2.782  -0.010  0.00  0.00    +0.051 A 
ATOM      6  C   UNL     1      -0.030  -2.108   1.206  0.00  0.00    +0.148 A 
ATOM      7  C   UNL     1      -0.034  -0.705   1.208  0.00  0.00    +0.071 A 
ATOM      8  C   UNL     1       0.002  -0.290   2.622  0.00  0.00    +0.232 C 
ATOM      9  O   UNL     1       0.006   0.844   3.067  0.00  0.00    -0.283 OA
ATOM     10  C   UNL     1       0.032  -1.554   3.376  0.00  0.00    +0.176 C 
ATOM     11  C   UNL     1       0.070  -1.682   4.725  0.00  0.00    +0.058 C 
ATOM     12  O   UNL     1       0.001  -2.566   2.477  0.00  0.00    -0.451 OA
ATOM     13  C   UNL     1      -0.030  -4.289  -0.015  0.00  0.00    +0.130 C 
ATOM     14  N   UNL     1      -0.466  -4.784  -1.328  0.00  0.00    -0.262 NA
ATOM     15  C   UNL     1       0.267  -4.090  -2.400  0.00  0.00    +0.319 C 
ATOM     16  O   UNL     1      -0.111  -2.712  -2.393  0.00  0.00    -0.476 OA
ENDROOT
BRANCH  11  17
ATOM     17  C   UNL     1      -0.017  -3.014   5.340  0.00  0.00    -0.020 A 
ATOM     18  C   UNL     1      -0.114  -3.142   6.731  0.00  0.00    +0.008 A 
ATOM     19  C   UNL     1      -0.195  -4.395   7.300  0.00  0.00    +0.002 A 
ATOM     20  C   UNL     1      -0.180  -5.525   6.500  0.00  0.00    +0.015 A 
ATOM     21  C   UNL     1      -0.084  -5.408   5.124  0.00  0.00    +0.018 A 
ATOM     22  C   UNL     1      -0.009  -4.161   4.538  0.00  0.00    +0.023 A 
ATOM     23 BR   UNL     1      -0.065  -6.960   4.044  0.00  0.00    -0.050 Br
ENDBRANCH  11  17
BRANCH  14  24
ATOM     24  C   UNL     1      -0.292  -6.239  -1.427  0.00  0.00    +0.123 C 
BRANCH  24  25
ATOM     25  C   UNL     1      -0.969  -6.742  -2.676  0.00  0.00    -0.030 A 
ATOM     26  C   UNL     1      -2.295  -7.131  -2.633  0.00  0.00    +0.009 A 
ATOM     27  C   UNL     1      -2.920  -7.593  -3.776  0.00  0.00    +0.050 A 
ATOM     28  C   UNL     1      -2.217  -7.668  -4.968  0.00  0.00    +0.162 A 
ATOM     29  C   UNL     1      -0.883  -7.276  -5.011  0.00  0.00    +0.162 A 
ATOM     30  C   UNL     1      -0.263  -6.809  -3.863  0.00  0.00    +0.054 A 
BRANCH  29  31
ATOM     31  O   UNL     1      -0.189  -7.347  -6.179  0.00  0.00    -0.491 OA
ATOM     32  C   UNL     1       1.177  -6.929  -6.149  0.00  0.00    +0.277 C 
ENDBRANCH  29  31
BRANCH  28  33
ATOM     33  O   UNL     1      -2.831  -8.123  -6.093  0.00  0.00    -0.491 OA
ATOM     34  C   UNL     1      -4.202  -8.508  -5.974  0.00  0.00    +0.277 C 
ENDBRANCH  28  33
ENDBRANCH  24  25
ENDBRANCH  14  24
TORSDOF 5
