REMARK  Name = ZINC06348690
REMARK  9 active torsions:
REMARK  status: ('A' for Active; 'I' for Inactive)
REMARK    1  A    between atoms: C_1  and  C_2
REMARK    2  A    between atoms: C_5  and  S_8
REMARK    3  A    between atoms: S_8  and  N_11
REMARK    4  A    between atoms: N_11  and  C_12
REMARK    5  A    between atoms: C_14  and  C_24
REMARK    6  A    between atoms: C_17  and  N_18
REMARK    7  A    between atoms: N_26  and  C_27
REMARK    8  A    between atoms: C_32  and  C_37
REMARK    9  A    between atoms: C_34  and  C_36
REMARK                            x       y       z     vdW  Elec       q    Type
REMARK                         _______ _______ _______ _____ _____    ______ ____
ROOT
ATOM      1  C   UNL     1      -1.715   1.252   6.019  0.00  0.00    +0.070 A 
ATOM      2  C   UNL     1      -1.052   0.923   4.852  0.00  0.00    +0.039 A 
ATOM      3  C   UNL     1      -1.100   1.789   3.756  0.00  0.00    +0.039 A 
ATOM      4  C   UNL     1      -1.827   2.979   3.840  0.00  0.00    +0.015 A 
ATOM      5  C   UNL     1      -2.490   3.302   5.003  0.00  0.00    +0.026 A 
ATOM      6  C   UNL     1      -2.440   2.445   6.096  0.00  0.00    +0.052 A 
ENDROOT
BRANCH   6   7
ATOM      7  N   UNL     1      -3.114   2.774   7.271  0.00  0.00    -0.328 N 
ATOM      8  C   UNL     1      -4.565   2.820   7.050  0.00  0.00    +0.105 C 
ATOM      9  C   UNL     1      -5.278   3.040   8.386  0.00  0.00    +0.019 C 
ATOM     10  C   UNL     1      -4.796   4.354   9.006  0.00  0.00    +0.003 C 
ATOM     11  C   UNL     1      -3.276   4.300   9.181  0.00  0.00    +0.019 C 
ATOM     12  C   UNL     1      -2.620   4.043   7.822  0.00  0.00    +0.105 C 
ENDBRANCH   6   7
BRANCH   3  13
ATOM     13  C   UNL     1      -0.390   1.444   2.510  0.00  0.00    +0.244 C 
ATOM     14  O   UNL     1       0.243   0.408   2.437  0.00  0.00    -0.270 OA
ATOM     15  N   UNL     1      -0.441   2.277   1.452  0.00  0.00    -0.308 N 
ATOM     16  H   UNL     1      -0.946   3.103   1.509  0.00  0.00    +0.149 HD
BRANCH  15  17
ATOM     17  C   UNL     1       0.264   1.934   0.214  0.00  0.00    +0.076 C 
ATOM     18  C   UNL     1       1.721   2.389   0.315  0.00  0.00    +0.022 C 
ATOM     19  C   UNL     1       1.769   3.904   0.526  0.00  0.00    +0.002 C 
ATOM     20  C   UNL     1       1.096   4.605  -0.655  0.00  0.00    +0.003 C 
ATOM     21  C   UNL     1      -0.361   4.150  -0.756  0.00  0.00    -0.009 C 
ATOM     22  C   UNL     1      -0.409   2.635  -0.967  0.00  0.00    +0.009 C 
ATOM     23  C   UNL     1      -1.866   2.180  -1.068  0.00  0.00    +0.009 C 
ATOM     24  C   UNL     1      -1.034   4.851  -1.938  0.00  0.00    +0.008 C 
ENDBRANCH  15  17
ENDBRANCH   3  13
BRANCH   1  25
ATOM     25  N   UNL     1      -1.665   0.390   7.121  0.00  0.00    -0.214 N 
ATOM     26  H   UNL     1      -2.440   0.293   7.697  0.00  0.00    +0.174 HD
BRANCH  25  27
ATOM     27  S   UNL     1      -0.283  -0.465   7.441  0.00  0.00    +0.072 S 
ATOM     28  O   UNL     1      -0.497  -1.134   8.677  0.00  0.00    -0.150 OA
ATOM     29  O   UNL     1       0.051  -1.159   6.247  0.00  0.00    -0.150 OA
BRANCH  27  34
ATOM     30  C   UNL     1       4.119   3.550   8.393  0.00  0.00    +0.044 C 
ATOM     31  C   UNL     1       3.019   2.547   8.155  0.00  0.00    -0.050 A 
ATOM     32  C   UNL     1       2.252   2.099   9.214  0.00  0.00    +0.005 A 
ATOM     33  C   UNL     1       1.243   1.180   8.996  0.00  0.00    +0.029 A 
ATOM     34  C   UNL     1       1.002   0.708   7.719  0.00  0.00    +0.109 A 
ATOM     35  C   UNL     1       1.773   1.151   6.661  0.00  0.00    +0.029 A 
ATOM     36  C   UNL     1       2.779   2.075   6.878  0.00  0.00    +0.005 A 
ENDBRANCH  27  34
ENDBRANCH  25  27
ENDBRANCH   1  25
TORSDOF 6
