REMARK  Name = ZINC40587129
REMARK  9 active torsions:
REMARK  status: ('A' for Active; 'I' for Inactive)
REMARK    1  A    between atoms: C_1  and  C_2
REMARK    2  A    between atoms: C_2  and  C_3
REMARK    3  A    between atoms: C_8  and  N_9
REMARK    4  A    between atoms: C_11  and  N_33
REMARK    5  A    between atoms: C_12  and  N_16
REMARK    6  A    between atoms: N_16  and  N_17
REMARK    7  A    between atoms: C_18  and  C_20
REMARK    8  A    between atoms: C_20  and  C_21
REMARK    9  A    between atoms: C_20  and  C_27
REMARK                            x       y       z     vdW  Elec       q    Type
REMARK                         _______ _______ _______ _____ _____    ______ ____
ROOT
ATOM      1  N   UNL     1       0.650  -2.393  -3.144  0.00  0.00    -0.297 N 
ATOM      2  C   UNL     1      -0.313  -2.315  -4.140  0.00  0.00    +0.159 A 
ATOM      3  C   UNL     1       0.008  -1.804  -5.394  0.00  0.00    +0.207 A 
ATOM      4  C   UNL     1      -0.994  -1.747  -6.358  0.00  0.00    +0.171 A 
ATOM      5  N   UNL     1      -2.214  -2.180  -6.048  0.00  0.00    -0.217 NA
ATOM      6  C   UNL     1      -2.478  -2.658  -4.849  0.00  0.00    +0.225 A 
ATOM      7  N   UNL     1      -1.556  -2.734  -3.911  0.00  0.00    -0.218 NA
ATOM      8  H   UNL     1       1.574  -2.180  -3.345  0.00  0.00    +0.154 HD
ENDROOT
BRANCH   1  14
ATOM      9  C   UNL     1       1.228  -3.358  -1.008  0.00  0.00    -0.026 A 
ATOM     10  C   UNL     1       0.869  -3.734   0.272  0.00  0.00    +0.005 A 
ATOM     11  C   UNL     1      -0.427  -3.540   0.712  0.00  0.00    +0.000 A 
ATOM     12  C   UNL     1      -1.368  -2.969  -0.126  0.00  0.00    +0.002 A 
ATOM     13  C   UNL     1      -1.015  -2.591  -1.406  0.00  0.00    +0.023 A 
ATOM     14  C   UNL     1       0.288  -2.780  -1.850  0.00  0.00    +0.036 A 
BRANCH   9  16
ATOM     15  C   UNL     1       3.451  -2.291  -1.271  0.00  0.00    +0.009 C 
ATOM     16  C   UNL     1       2.641  -3.571  -1.487  0.00  0.00    +0.033 C 
ENDBRANCH   9  16
ENDBRANCH   1  14
BRANCH   3  17
ATOM     17  N   UNL     1       1.379  -1.332  -5.693  0.00  0.00    +0.063 N 
ATOM     18  O   UNL     1       2.198  -2.100  -6.141  0.00  0.00    -0.126 OA
ATOM     19  O   UNL     1       1.679  -0.179  -5.490  0.00  0.00    -0.126 OA
ENDBRANCH   3  17
BRANCH   4  20
ATOM     20  N   UNL     1      -0.725  -1.245  -7.622  0.00  0.00    -0.246 N 
ATOM     21  H   UNL     1       0.167  -0.931  -7.840  0.00  0.00    +0.172 HD
BRANCH  20  22
ATOM     22  N   UNL     1      -1.741  -1.192  -8.585  0.00  0.00    -0.235 N 
ATOM     23  C   UNL     1      -1.480  -0.705  -9.814  0.00  0.00    +0.241 C 
ATOM     24  O   UNL     1      -0.365  -0.312 -10.086  0.00  0.00    -0.273 OA
ATOM     25  H   UNL     1      -2.632  -1.507  -8.368  0.00  0.00    +0.173 HD
BRANCH  23  26
ATOM     26  C   UNL     1      -2.573  -0.648 -10.850  0.00  0.00    +0.136 C 
BRANCH  26  27
ATOM     27  C   UNL     1      -2.024  -0.067 -12.128  0.00  0.00    -0.031 A 
ATOM     28  C   UNL     1      -2.596   1.068 -12.672  0.00  0.00    +0.005 A 
ATOM     29  C   UNL     1      -2.093   1.601 -13.844  0.00  0.00    +0.000 A 
ATOM     30  C   UNL     1      -1.017   1.000 -14.471  0.00  0.00    +0.000 A 
ATOM     31  C   UNL     1      -0.445  -0.134 -13.926  0.00  0.00    +0.000 A 
ATOM     32  C   UNL     1      -0.945  -0.665 -12.752  0.00  0.00    +0.005 A 
ENDBRANCH  26  27
BRANCH  26  33
ATOM     33  C   UNL     1      -3.089  -2.039 -11.113  0.00  0.00    -0.031 A 
ATOM     34  C   UNL     1      -2.201  -3.075 -11.337  0.00  0.00    +0.005 A 
ATOM     35  C   UNL     1      -2.675  -4.351 -11.578  0.00  0.00    +0.000 A 
ATOM     36  C   UNL     1      -4.036  -4.592 -11.594  0.00  0.00    +0.000 A 
ATOM     37  C   UNL     1      -4.923  -3.557 -11.369  0.00  0.00    +0.000 A 
ATOM     38  C   UNL     1      -4.450  -2.281 -11.124  0.00  0.00    +0.005 A 
ENDBRANCH  26  33
ENDBRANCH  23  26
ENDBRANCH  20  22
ENDBRANCH   4  20
TORSDOF 8
