REMARK  Name = ZINC12318565
REMARK  14 active torsions:
REMARK  status: ('A' for Active; 'I' for Inactive)
REMARK    1  A    between atoms: C_1  and  C_2
REMARK    2  A    between atoms: C_2  and  C_3
REMARK    3  A    between atoms: C_2  and  C_4
REMARK    4  A    between atoms: C_4  and  C_5
REMARK    5  A    between atoms: C_5  and  C_7
REMARK    6  A    between atoms: C_5  and  N_11
REMARK    7  A    between atoms: C_7  and  O_9
REMARK    8  A    between atoms: O_9  and  C_10
REMARK    9  A    between atoms: C_12  and  C_14
REMARK   10  A    between atoms: C_19  and  C_20
REMARK   11  A    between atoms: C_19  and  N_60
REMARK   12  A    between atoms: C_22  and  O_28
REMARK   13  A    between atoms: C_23  and  O_27
REMARK   14  A    between atoms: O_28  and  C_29
REMARK                            x       y       z     vdW  Elec       q    Type
REMARK                         _______ _______ _______ _____ _____    ______ ____
ROOT
ATOM      1  C   UNL     1       2.302  -3.857  -3.808  0.00  0.00    +0.071 C 
ATOM      2  C   UNL     1       1.315  -4.604  -2.908  0.00  0.00    -0.006 C 
ATOM      3  C   UNL     1       1.474  -4.113  -1.467  0.00  0.00    -0.078 C 
ATOM      4  C   UNL     1       2.185  -1.926  -2.230  0.00  0.00    -0.078 C 
ATOM      5  C   UNL     1       2.047  -2.352  -3.694  0.00  0.00    -0.006 C 
ATOM      6  N   UNL     1       1.191  -2.663  -1.421  0.00  0.00    +0.382 N 
ATOM      7  H   UNL     1       0.255  -2.493  -1.807  0.00  0.00    -0.081 HD
ENDROOT
BRANCH   1   9
ATOM      8  N   UNL     1       2.875  -3.764  -6.213  0.00  0.00    -0.302 N 
ATOM      9  C   UNL     1       2.109  -4.293  -5.238  0.00  0.00    +0.217 C 
ATOM     10  O   UNL     1       1.265  -5.120  -5.511  0.00  0.00    -0.275 OA
ATOM     11  H   UNL     1       3.550  -3.103  -5.995  0.00  0.00    +0.150 HD
BRANCH   8  12
ATOM     12  C   UNL     1       2.687  -4.188  -7.603  0.00  0.00    +0.182 C 
BRANCH  12  13
ATOM     13  C   UNL     1       1.582  -3.378  -8.230  0.00  0.00    +0.327 C 
ATOM     14  O   UNL     1       1.009  -2.534  -7.583  0.00  0.00    -0.249 OA
BRANCH  13  15
ATOM     15  O   UNL     1       1.233  -3.595  -9.508  0.00  0.00    -0.467 OA
ATOM     16  C   UNL     1       0.160  -2.778 -10.046  0.00  0.00    +0.280 C 
ENDBRANCH  13  15
ENDBRANCH  12  13
BRANCH  12  17
ATOM     17  C   UNL     1       3.985  -3.969  -8.382  0.00  0.00    +0.036 C 
BRANCH  17  19
ATOM     18  C   UNL     1       4.695  -6.345  -8.075  0.00  0.00    +0.007 C 
ATOM     19  C   UNL     1       5.076  -4.884  -7.824  0.00  0.00    -0.015 C 
ATOM     20  C   UNL     1       6.405  -4.578  -8.518  0.00  0.00    +0.007 C 
ENDBRANCH  17  19
ENDBRANCH  12  17
ENDBRANCH   8  12
ENDBRANCH   1   9
BRANCH   6  21
ATOM     21  C   UNL     1       1.227  -2.186  -0.022  0.00  0.00    -0.043 C 
BRANCH  21  22
ATOM     22  C   UNL     1       1.209  -0.679  -0.014  0.00  0.00    -0.059 A 
ATOM     23  C   UNL     1       0.002  -0.004   0.002  0.00  0.00    +0.051 A 
ATOM     24  C   UNL     1      -0.017   1.381   0.010  0.00  0.00    +0.163 A 
ATOM     25  C   UNL     1       1.181   2.091   0.002  0.00  0.00    +0.173 A 
ATOM     26  C   UNL     1       2.387   1.408  -0.012  0.00  0.00    +0.063 A 
ATOM     27  C   UNL     1       2.398   0.024  -0.021  0.00  0.00    +0.021 A 
ATOM     28 BR   UNL     1       4.016   2.367  -0.022  0.00  0.00    -0.046 Br
BRANCH  25  29
ATOM     29  O   UNL     1       1.167   3.451   0.009  0.00  0.00    -0.503 OA
ATOM     30  H   UNL     1       1.171   3.839   0.894  0.00  0.00    +0.292 HD
ENDBRANCH  25  29
BRANCH  24  31
ATOM     31  O   UNL     1      -1.203   2.046   0.019  0.00  0.00    -0.491 OA
ATOM     32  C   UNL     1      -2.392   1.254   0.020  0.00  0.00    +0.277 C 
ENDBRANCH  24  31
ENDBRANCH  21  22
ENDBRANCH   6  21
TORSDOF 10
