REMARK  Name = ZINC23653727
REMARK  8 active torsions:
REMARK  status: ('A' for Active; 'I' for Inactive)
REMARK    1  A    between atoms: C_1  and  C_2
REMARK    2  A    between atoms: C_7  and  C_9
REMARK    3  A    between atoms: C_7  and  C_10
REMARK    4  A    between atoms: N_13  and  C_17
REMARK    5  A    between atoms: C_17  and  C_18
REMARK    6  A    between atoms: N_23  and  C_26
REMARK    7  A    between atoms: C_26  and  C_27
REMARK    8  A    between atoms: C_28  and  C_29
REMARK                            x       y       z     vdW  Elec       q    Type
REMARK                         _______ _______ _______ _____ _____    ______ ____
ROOT
ATOM      1  C   UNL     1       0.458  -3.241  -4.606  0.00  0.00    +0.213 C 
ENDROOT
BRANCH   1  13
ATOM      2  C   UNL     1      -0.061   1.649   0.498  0.00  0.00    +0.007 C 
ATOM      3  C   UNL     1      -0.046   0.132   0.299  0.00  0.00    -0.011 C 
ATOM      4  C   UNL     1       0.612  -0.200  -1.042  0.00  0.00    +0.038 C 
ATOM      5  C   UNL     1       0.646  -1.713  -1.232  0.00  0.00    +0.113 C 
ATOM      6  C   UNL     1       1.417  -2.381  -0.099  0.00  0.00    +0.041 C 
ATOM      7  C   UNL     1       0.756  -2.041   1.240  0.00  0.00    -0.032 C 
ATOM      8  C   UNL     1       0.748  -0.523   1.431  0.00  0.00    +0.009 C 
ATOM      9  C   UNL     1       1.542  -2.695   2.378  0.00  0.00    +0.011 C 
ATOM     10  C   UNL     1      -0.682  -2.564   1.246  0.00  0.00    +0.011 C 
ATOM     11  C   UNL     1       1.261  -2.063  -2.567  0.00  0.00    +0.247 C 
ATOM     12  O   UNL     1       2.385  -1.813  -2.946  0.00  0.00    -0.273 OA
ATOM     13  N   UNL     1       0.296  -2.715  -3.249  0.00  0.00    -0.215 N 
ATOM     14  C   UNL     1      -0.829  -2.819  -2.531  0.00  0.00    +0.310 C 
ATOM     15  O   UNL     1      -1.838  -3.366  -2.931  0.00  0.00    -0.252 OA
ATOM     16  N   UNL     1      -0.717  -2.252  -1.315  0.00  0.00    -0.285 N 
ATOM     17  H   UNL     1      -1.402  -2.208  -0.629  0.00  0.00    +0.151 HD
ENDBRANCH   1  13
BRANCH   1  18
ATOM     18  C   UNL     1       0.970  -4.657  -4.537  0.00  0.00    +0.234 C 
ATOM     19  O   UNL     1       1.179  -5.175  -3.461  0.00  0.00    -0.274 OA
ATOM     20  N   UNL     1       1.197  -5.348  -5.673  0.00  0.00    -0.298 N 
ATOM     21  C   UNL     1       0.956  -4.736  -6.989  0.00  0.00    +0.123 C 
ATOM     22  C   UNL     1       2.210  -4.925  -7.849  0.00  0.00    +0.103 C 
ATOM     23  N   UNL     1       2.568  -6.349  -7.882  0.00  0.00    -0.296 NA
ATOM     24  C   UNL     1       2.915  -6.842  -6.542  0.00  0.00    +0.103 C 
ATOM     25  C   UNL     1       1.696  -6.730  -5.628  0.00  0.00    +0.123 C 
BRANCH  23  26
ATOM     26  C   UNL     1       3.661  -6.595  -8.833  0.00  0.00    +0.111 C 
BRANCH  26  27
ATOM     27  C   UNL     1       3.836  -8.080  -9.023  0.00  0.00    -0.011 C 
ATOM     28  C   UNL     1       3.790  -8.601 -10.241  0.00  0.00    +0.005 C 
BRANCH  28  29
ATOM     29  C   UNL     1       3.962 -10.058 -10.428  0.00  0.00    -0.025 A 
ATOM     30  C   UNL     1       4.166 -10.886  -9.324  0.00  0.00    +0.008 A 
ATOM     31  C   UNL     1       4.326 -12.245  -9.506  0.00  0.00    +0.001 A 
ATOM     32  C   UNL     1       4.284 -12.786 -10.778  0.00  0.00    +0.000 A 
ATOM     33  C   UNL     1       4.082 -11.969 -11.877  0.00  0.00    +0.001 A 
ATOM     34  C   UNL     1       3.914 -10.610 -11.709  0.00  0.00    +0.008 A 
ENDBRANCH  28  29
ENDBRANCH  26  27
ENDBRANCH  23  26
ENDBRANCH   1  18
TORSDOF 5
