REMARK  Name = ZINC06760411
REMARK  8 active torsions:
REMARK  status: ('A' for Active; 'I' for Inactive)
REMARK    1  A    between atoms: C_1  and  C_2
REMARK    2  A    between atoms: C_2  and  C_32
REMARK    3  A    between atoms: C_4  and  N_9
REMARK    4  A    between atoms: C_6  and  C_7
REMARK    5  A    between atoms: C_6  and  C_8
REMARK    6  A    between atoms: C_10  and  C_12
REMARK    7  A    between atoms: N_23  and  C_25
REMARK    8  A    between atoms: C_25  and  C_26
REMARK                            x       y       z     vdW  Elec       q    Type
REMARK                         _______ _______ _______ _____ _____    ______ ____
ROOT
ATOM      1  C   UNL     1       5.772  -1.060   2.112  0.00  0.00    +0.122 C 
ATOM      2  C   UNL     1       5.912  -0.196   3.408  0.00  0.00    +0.155 C 
ATOM      3  C   UNL     1       6.162   1.247   2.955  0.00  0.00    +0.004 C 
ATOM      4  C   UNL     1       7.414   1.305   2.484  0.00  0.00    +0.008 C 
ATOM      5  C   UNL     1       7.903  -0.093   2.611  0.00  0.00    +0.116 C 
ATOM      6  C   UNL     1       7.180  -0.943   1.502  0.00  0.00    +0.127 C 
ATOM      7  C   UNL     1       7.992  -2.207   1.536  0.00  0.00    +0.223 C 
ATOM      8  O   UNL     1       7.597  -3.304   1.201  0.00  0.00    -0.275 OA
ATOM      9  N   UNL     1       9.236  -1.928   2.000  0.00  0.00    -0.291 N 
ATOM     10  C   UNL     1       9.329  -0.515   2.441  0.00  0.00    +0.148 C 
ATOM     11  O   UNL     1       7.271  -0.582   3.824  0.00  0.00    -0.359 OA
ENDROOT
BRANCH   1  13
ATOM     12  N   UNL     1       3.433  -0.489   1.544  0.00  0.00    -0.312 N 
ATOM     13  C   UNL     1       4.733  -0.481   1.188  0.00  0.00    +0.220 C 
ATOM     14  O   UNL     1       5.066  -0.007   0.122  0.00  0.00    -0.275 OA
ATOM     15  H   UNL     1       3.167  -0.868   2.397  0.00  0.00    +0.149 HD
BRANCH  12  19
ATOM     16  C   UNL     1       1.777   2.332  -1.422  0.00  0.00    -0.010 C 
ATOM     17  C   UNL     1       1.226   2.188   0.002  0.00  0.00    -0.072 C 
ATOM     18  C   UNL     1       2.295   1.576   0.903  0.00  0.00    +0.009 C 
ATOM     19  C   UNL     1       2.421   0.075   0.643  0.00  0.00    +0.070 C 
ATOM     20  C   UNL     1       1.068  -0.577   0.935  0.00  0.00    +0.009 C 
ATOM     21  C   UNL     1       0.002  -0.004   0.002  0.00  0.00    -0.072 C 
ATOM     22  C   UNL     1      -1.371  -0.507   0.500  0.00  0.00    -0.010 C 
ATOM     23  C   UNL     1       0.204  -0.553  -1.413  0.00  0.00    -0.010 C 
ATOM     24  C   UNL     1       0.938   3.613   0.525  0.00  0.00    -0.010 C 
ATOM     25  N   UNL     1      -0.083   1.482   0.011  0.00  0.00    +0.386 N 
ATOM     26  H   UNL     1      -0.609   1.776  -0.821  0.00  0.00    -0.084 HD
ATOM     27  H   UNL     1      -0.593   1.767   0.856  0.00  0.00    -0.084 HD
ENDBRANCH  12  19
ENDBRANCH   1  13
BRANCH   9  28
ATOM     28  C   UNL     1      10.337  -2.892   2.059  0.00  0.00    +0.182 C 
BRANCH  28  29
ATOM     29  C   UNL     1      10.312  -3.603   3.387  0.00  0.00    +0.122 A 
ATOM     30  C   UNL     1       9.645  -4.740   3.658  0.00  0.00    +0.046 A 
ATOM     31  C   UNL     1       9.899  -5.051   5.013  0.00  0.00    +0.041 A 
ATOM     32  C   UNL     1      10.700  -4.082   5.492  0.00  0.00    +0.195 A 
ATOM     33  O   UNL     1      10.947  -3.208   4.503  0.00  0.00    -0.466 OA
ENDBRANCH  28  29
ENDBRANCH   9  28
TORSDOF 4
