REMARK  Name = ZINC47012382
REMARK  7 active torsions:
REMARK  status: ('A' for Active; 'I' for Inactive)
REMARK    1  A    between atoms: C_1  and  C_2
REMARK    2  A    between atoms: N_5  and  C_11
REMARK    3  A    between atoms: C_7  and  C_10
REMARK    4  A    between atoms: C_11  and  C_13
REMARK    5  A    between atoms: C_11  and  C_14
REMARK    6  A    between atoms: C_14  and  N_15
REMARK    7  A    between atoms: C_21  and  C_24
REMARK                            x       y       z     vdW  Elec       q    Type
REMARK                         _______ _______ _______ _____ _____    ______ ____
ROOT
ATOM      1  C   UNL     1      -2.697  -4.084  -0.010  0.00  0.00    +0.124 C 
ENDROOT
BRANCH   1   2
ATOM      2  N   UNL     1      -1.862  -4.496  -1.141  0.00  0.00    -0.298 N 
ATOM      3  C   UNL     1      -1.654  -5.805  -1.384  0.00  0.00    +0.302 C 
ATOM      4  O   UNL     1      -2.082  -6.642  -0.613  0.00  0.00    -0.253 OA
ATOM      5  N   UNL     1      -0.971  -6.187  -2.482  0.00  0.00    -0.286 N 
ATOM      6  C   UNL     1      -0.348  -5.188  -3.361  0.00  0.00    +0.109 C 
ATOM      7  C   UNL     1      -0.830  -5.425  -4.796  0.00  0.00    +0.022 C 
ATOM      8  C   UNL     1      -0.545  -6.876  -5.192  0.00  0.00    -0.011 C 
ATOM      9  C   UNL     1      -1.312  -7.820  -4.263  0.00  0.00    +0.022 C 
ATOM     10  C   UNL     1      -0.831  -7.610  -2.819  0.00  0.00    +0.109 C 
ATOM     11  C   UNL     1      -0.993  -7.107  -6.636  0.00  0.00    +0.007 C 
ATOM     12  H   UNL     1      -1.459  -3.826  -1.716  0.00  0.00    +0.150 HD
ENDBRANCH   1   2
BRANCH   1  13
ATOM     13  C   UNL     1      -2.770  -2.557   0.040  0.00  0.00    +0.071 C 
ATOM     14  C   UNL     1      -3.538  -2.124   1.291  0.00  0.00    +0.026 C 
BRANCH  13  18
ATOM     15  C   UNL     1      -0.023   1.527   0.010  0.00  0.00    +0.039 C 
ATOM     16  C   UNL     1      -0.002  -0.003   0.002  0.00  0.00    +0.130 C 
ATOM     17  C   UNL     1      -1.438  -0.534   0.014  0.00  0.00    +0.116 C 
ATOM     18  N   UNL     1      -1.411  -2.003   0.084  0.00  0.00    -0.293 NA
ATOM     19  C   UNL     1      -0.696  -2.454   1.287  0.00  0.00    +0.116 C 
ATOM     20  C   UNL     1       0.732  -1.903   1.263  0.00  0.00    +0.130 C 
ATOM     21  O   UNL     1       0.687  -0.477   1.163  0.00  0.00    -0.371 OA
ATOM     22  C   UNL     1       1.480  -2.477   0.058  0.00  0.00    +0.039 C 
ENDBRANCH  13  18
ENDBRANCH   1  13
TORSDOF 3
