REMARK  Name = ZINC20116952
REMARK  11 active torsions:
REMARK  status: ('A' for Active; 'I' for Inactive)
REMARK    1  A    between atoms: C_1  and  C_2
REMARK    2  A    between atoms: C_3  and  S_26
REMARK    3  A    between atoms: N_9  and  C_12
REMARK    4  A    between atoms: C_12  and  C_13
REMARK    5  A    between atoms: N_15  and  C_16
REMARK    6  A    between atoms: C_16  and  C_17
REMARK    7  A    between atoms: C_17  and  C_18
REMARK    8  A    between atoms: C_18  and  N_19
REMARK    9  A    between atoms: S_26  and  N_29
REMARK   10  A    between atoms: C_31  and  C_38
REMARK   11  A    between atoms: C_34  and  C_37
REMARK                            x       y       z     vdW  Elec       q    Type
REMARK                         _______ _______ _______ _____ _____    ______ ____
ROOT
ATOM      1  C   UNL     1       0.561  -5.391  -3.057  0.00  0.00    +0.053 C 
ATOM      2  C   UNL     1       0.274  -4.301  -2.057  0.00  0.00    +0.016 A 
ATOM      3  C   UNL     1       0.218  -2.975  -2.264  0.00  0.00    +0.130 A 
ATOM      4  C   UNL     1      -0.078  -2.096  -1.148  0.00  0.00    +0.099 A 
ATOM      5  C   UNL     1      -0.283  -2.746   0.083  0.00  0.00    +0.117 A 
ATOM      6  S   UNL     1      -0.074  -4.462  -0.316  0.00  0.00    -0.072 S 
ATOM      7  N   UNL     1      -0.563  -2.073   1.195  0.00  0.00    -0.230 NA
ATOM      8  C   UNL     1      -0.658  -0.770   1.187  0.00  0.00    +0.203 A 
ATOM      9  N   UNL     1      -0.475  -0.059   0.045  0.00  0.00    -0.290 N 
ATOM     10  C   UNL     1      -0.195  -0.668  -1.122  0.00  0.00    +0.264 A 
ATOM     11  O   UNL     1      -0.038  -0.015  -2.139  0.00  0.00    -0.267 OA
ENDROOT
BRANCH   3  12
ATOM     12  S   UNL     1       0.501  -2.311  -3.871  0.00  0.00    +0.062 S 
ATOM     13  O   UNL     1       1.072  -1.023  -3.684  0.00  0.00    -0.153 OA
ATOM     14  O   UNL     1       1.148  -3.329  -4.623  0.00  0.00    -0.153 OA
BRANCH  12  15
ATOM     15  N   UNL     1      -0.981  -2.074  -4.571  0.00  0.00    -0.176 NA
ATOM     16  C   UNL     1      -1.609  -3.135  -5.370  0.00  0.00    +0.112 C 
ATOM     17  C   UNL     1      -3.020  -3.392  -4.817  0.00  0.00    +0.002 C 
ATOM     18  C   UNL     1      -3.800  -2.075  -4.796  0.00  0.00    +0.009 C 
ATOM     19  C   UNL     1      -3.096  -1.078  -3.874  0.00  0.00    +0.002 C 
ATOM     20  C   UNL     1      -1.689  -0.797  -4.411  0.00  0.00    +0.112 C 
ATOM     21  C   UNL     1      -3.894   0.227  -3.828  0.00  0.00    +0.009 C 
ATOM     22  C   UNL     1      -2.922  -3.950  -3.396  0.00  0.00    +0.009 C 
ENDBRANCH  12  15
ENDBRANCH   3  12
BRANCH   9  23
ATOM     23  C   UNL     1      -0.591   1.401   0.083  0.00  0.00    +0.221 C 
BRANCH  23  24
ATOM     24  C   UNL     1       0.757   2.005   0.382  0.00  0.00    +0.233 C 
ATOM     25  O   UNL     1       1.720   1.286   0.548  0.00  0.00    -0.274 OA
ATOM     26  N   UNL     1       0.893   3.343   0.466  0.00  0.00    -0.314 N 
ATOM     27  H   UNL     1       0.019   3.995   0.315  0.00  0.00    +0.149 HD
BRANCH  26  28
ATOM     28  C   UNL     1       2.203   3.930   0.756  0.00  0.00    +0.102 C 
BRANCH  28  29
ATOM     29  C   UNL     1       2.082   5.454   0.796  0.00  0.00    +0.000 C 
BRANCH  29  30
ATOM     30  C   UNL     1       3.451   6.067   1.100  0.00  0.00    -0.077 C 
BRANCH  30  31
ATOM     31  N   UNL     1       3.334   7.531   1.137  0.00  0.00    +0.380 N 
ATOM     32  C   UNL     1       2.885   8.061  -0.170  0.00  0.00    -0.079 C 
ATOM     33  C   UNL     1       3.011   9.557  -0.267  0.00  0.00    -0.019 C 
ATOM     34  C   UNL     1       4.371   9.893  -0.913  0.00  0.00    -0.002 C 
ATOM     35  C   UNL     1       5.474   9.782   0.036  0.00  0.00    -0.002 C 
ATOM     36  C   UNL     1       5.618   8.352   0.597  0.00  0.00    -0.019 C 
ATOM     37  C   UNL     1       4.574   8.148   1.660  0.00  0.00    -0.079 C 
ATOM     38  H   UNL     1       2.545   7.806   1.852  0.00  0.00    -0.082 HD
ENDBRANCH  30  31
ENDBRANCH  29  30
ENDBRANCH  28  29
ENDBRANCH  26  28
ENDBRANCH  23  24
ENDBRANCH   9  23
TORSDOF 8
