REMARK  Name = ZINC09597407
REMARK  4 active torsions:
REMARK  status: ('A' for Active; 'I' for Inactive)
REMARK    1  A    between atoms: C_3  and  C_8
REMARK    2  A    between atoms: C_21  and  S_23
REMARK    3  A    between atoms: S_23  and  C_24
REMARK    4  A    between atoms: C_24  and  C_25
REMARK                            x       y       z     vdW  Elec       q    Type
REMARK                         _______ _______ _______ _____ _____    ______ ____
ROOT
ATOM      1  C   UNL     1       3.808   1.884  -0.665  0.00  0.00    +0.175 C 
ATOM      2  C   UNL     1       2.386   1.370  -0.615  0.00  0.00    +0.041 C 
ATOM      3  C   UNL     1       1.397   2.053  -0.000  0.00  0.00    +0.020 C 
ATOM      4  C   UNL     1      -0.019   1.526   0.010  0.00  0.00    +0.052 C 
ATOM      5  C   UNL     1       0.002  -0.004   0.002  0.00  0.00    +0.014 C 
ATOM      6  C   UNL     1       0.755  -0.469  -1.249  0.00  0.00    +0.080 C 
ATOM      7  C   UNL     1       2.129   0.140  -1.247  0.00  0.00    +0.163 C 
ATOM      8  O   UNL     1       3.038  -0.443  -1.806  0.00  0.00    -0.292 OA
ATOM      9  N   UNL     1       1.630   3.246   0.641  0.00  0.00    -0.287 N 
ATOM     10  C   UNL     1       2.943   3.606   0.892  0.00  0.00    +0.219 A 
ATOM     11  N   UNL     1       3.979   2.972   0.290  0.00  0.00    -0.220 N 
ATOM     12  N   UNL     1       5.145   3.569   0.768  0.00  0.00    -0.141 NA
ATOM     13  C   UNL     1       4.771   4.511   1.607  0.00  0.00    +0.211 A 
ATOM     14  N   UNL     1       3.432   4.527   1.677  0.00  0.00    -0.187 NA
ATOM     15  H   UNL     1       0.895   3.819   0.910  0.00  0.00    +0.155 HD
ENDROOT
BRANCH   1  18
ATOM     16  C   UNL     1       3.636   3.880  -3.865  0.00  0.00    +0.001 A 
ATOM     17  C   UNL     1       3.357   3.414  -2.593  0.00  0.00    +0.006 A 
ATOM     18  C   UNL     1       4.109   2.388  -2.053  0.00  0.00    -0.017 A 
ATOM     19  C   UNL     1       5.133   1.821  -2.787  0.00  0.00    +0.021 A 
ATOM     20  C   UNL     1       5.409   2.283  -4.061  0.00  0.00    +0.018 A 
ATOM     21  C   UNL     1       4.660   3.313  -4.600  0.00  0.00    +0.015 A 
ATOM     22 BR   UNL     1       6.810   1.506  -5.066  0.00  0.00    -0.050 Br
ENDBRANCH   1  18
BRANCH  13  23
ATOM     23  S   UNL     1       5.856   5.578   2.496  0.00  0.00    -0.080 S 
BRANCH  23  24
ATOM     24  C   UNL     1       4.739   6.631   3.464  0.00  0.00    +0.112 C 
BRANCH  24  25
ATOM     25  C   UNL     1       5.549   7.604   4.281  0.00  0.00    -0.037 A 
ATOM     26  C   UNL     1       5.954   7.264   5.559  0.00  0.00    +0.007 A 
ATOM     27  C   UNL     1       6.701   8.153   6.307  0.00  0.00    +0.038 A 
ATOM     28  C   UNL     1       7.035   9.390   5.782  0.00  0.00    +0.123 A 
ATOM     29  C   UNL     1       6.625   9.731   4.504  0.00  0.00    +0.038 A 
ATOM     30  C   UNL     1       5.883   8.838   3.755  0.00  0.00    +0.007 A 
ATOM     31  F   UNL     1       7.761  10.262   6.515  0.00  0.00    -0.205 F 
ENDBRANCH  24  25
ENDBRANCH  23  24
ENDBRANCH  13  23
TORSDOF 4
