REMARK  Name = ZINC40752240
REMARK  5 active torsions:
REMARK  status: ('A' for Active; 'I' for Inactive)
REMARK    1  A    between atoms: C_9  and  O_11
REMARK    2  A    between atoms: O_11  and  C_12
REMARK    3  A    between atoms: C_13  and  N_25
REMARK    4  A    between atoms: C_14  and  O_18
REMARK    5  A    between atoms: O_18  and  C_19
REMARK                            x       y       z     vdW  Elec       q    Type
REMARK                         _______ _______ _______ _____ _____    ______ ____
ROOT
ATOM      1  C   UNL     1       0.006  -2.693   0.090  0.00  0.00    +0.248 A 
ATOM      2  C   UNL     1      -0.042  -4.083   0.199  0.00  0.00    +0.150 A 
ATOM      3  C   UNL     1      -1.292  -4.692   0.311  0.00  0.00    +0.243 A 
ATOM      4  N   UNL     1      -2.382  -3.931   0.311  0.00  0.00    -0.200 NA
ATOM      5  C   UNL     1      -2.292  -2.620   0.206  0.00  0.00    +0.229 A 
ATOM      6  N   UNL     1      -1.131  -2.006   0.103  0.00  0.00    -0.199 NA
ENDROOT
BRANCH   2   7
ATOM      7  N   UNL     1       1.134  -4.848   0.194  0.00  0.00    -0.350 N 
ATOM      8  H   UNL     1       1.996  -4.411   0.115  0.00  0.00    +0.143 HD
ATOM      9  H   UNL     1       1.085  -5.814   0.271  0.00  0.00    +0.143 HD
ENDBRANCH   2   7
BRANCH   1  10
ATOM     10  O   UNL     1       1.197  -2.052  -0.021  0.00  0.00    -0.434 OA
BRANCH  10  19
ATOM     11  C   UNL     1       1.180   1.346  -1.348  0.00  0.00    +0.004 A 
ATOM     12  C   UNL     1       1.170   2.100  -0.214  0.00  0.00    +0.010 A 
ATOM     13  C   UNL     1       1.167   1.473   1.043  0.00  0.00    +0.004 A 
ATOM     14  C   UNL     1       1.156   2.223   2.234  0.00  0.00    +0.011 A 
ATOM     15  C   UNL     1       1.153   1.548   3.421  0.00  0.00    +0.020 A 
ATOM     16  C   UNL     1       1.162   0.154   3.428  0.00  0.00    +0.111 A 
ATOM     17  N   UNL     1       1.173  -0.540   2.316  0.00  0.00    -0.251 NA
ATOM     18  C   UNL     1       1.176   0.059   1.123  0.00  0.00    +0.113 A 
ATOM     19  C   UNL     1       1.188  -0.695  -0.070  0.00  0.00    +0.156 A 
ATOM     20  C   UNL     1       1.189  -0.044  -1.283  0.00  0.00    +0.048 A 
ENDBRANCH  10  19
ENDBRANCH   1  10
BRANCH   3  21
ATOM     21  O   UNL     1      -1.394  -6.040   0.419  0.00  0.00    -0.472 OA
BRANCH  21  22
ATOM     22  C   UNL     1      -2.711  -6.585   0.530  0.00  0.00    +0.175 C 
ATOM     23  C   UNL     1      -3.104  -6.670   2.006  0.00  0.00    +0.044 C 
ATOM     24  C   UNL     1      -4.514  -7.253   2.125  0.00  0.00    +0.004 C 
ATOM     25  C   UNL     1      -4.541  -8.653   1.509  0.00  0.00    +0.000 C 
ATOM     26  C   UNL     1      -4.147  -8.567   0.033  0.00  0.00    +0.004 C 
ATOM     27  C   UNL     1      -2.738  -7.985  -0.086  0.00  0.00    +0.044 C 
ENDBRANCH  21  22
ENDBRANCH   3  21
TORSDOF 5
