REMARK  Name = ZINC29361238
REMARK  6 active torsions:
REMARK  status: ('A' for Active; 'I' for Inactive)
REMARK    1  A    between atoms: C_1  and  C_2
REMARK    2  A    between atoms: C_5  and  C_9
REMARK    3  A    between atoms: C_6  and  C_8
REMARK    4  A    between atoms: C_11  and  C_14
REMARK    5  A    between atoms: C_14  and  N_15
REMARK    6  A    between atoms: C_17  and  C_22
REMARK                            x       y       z     vdW  Elec       q    Type
REMARK                         _______ _______ _______ _____ _____    ______ ____
ROOT
ATOM      1  C   UNL     1       4.698  -2.050  -3.329  0.00  0.00    +0.228 A 
ATOM      2  N   UNL     1       4.303  -2.282  -2.099  0.00  0.00    -0.212 NA
ATOM      3  C   UNL     1       4.839  -1.351  -1.295  0.00  0.00    +0.100 A 
ATOM      4  C   UNL     1       5.578  -0.524  -2.056  0.00  0.00    +0.222 A 
ATOM      5  O   UNL     1       5.492  -0.966  -3.327  0.00  0.00    -0.443 OA
ENDROOT
BRANCH   1  10
ATOM      6  C   UNL     1       3.265  -5.155  -7.957  0.00  0.00    +0.044 C 
ATOM      7  C   UNL     1       3.640  -4.342  -6.745  0.00  0.00    -0.050 A 
ATOM      8  C   UNL     1       3.258  -4.768  -5.485  0.00  0.00    +0.004 A 
ATOM      9  C   UNL     1       3.599  -4.028  -4.372  0.00  0.00    +0.014 A 
ATOM     10  C   UNL     1       4.330  -2.848  -4.518  0.00  0.00    +0.040 A 
ATOM     11  C   UNL     1       4.707  -2.422  -5.792  0.00  0.00    -0.038 A 
ATOM     12  C   UNL     1       4.365  -3.174  -6.897  0.00  0.00    +0.007 A 
ATOM     13  C   UNL     1       5.491  -1.146  -5.960  0.00  0.00    +0.044 C 
ENDBRANCH   1  10
BRANCH   3  14
ATOM     14  C   UNL     1       4.642  -1.247   0.196  0.00  0.00    +0.183 C 
BRANCH  14  15
ATOM     15  N   UNL     1       3.409  -0.505   0.475  0.00  0.00    -0.309 N 
ATOM     16  C   UNL     1       3.454   0.845   0.612  0.00  0.00    +0.102 A 
ATOM     17  C   UNL     1       2.329   1.551   0.870  0.00  0.00    +0.071 A 
ATOM     18  C   UNL     1       1.101   0.888   0.998  0.00  0.00    +0.019 A 
ATOM     19  C   UNL     1       1.057  -0.469   0.860  0.00  0.00    +0.071 A 
ATOM     20  C   UNL     1       2.245  -1.171   0.592  0.00  0.00    +0.252 A 
ATOM     21  O   UNL     1       2.220  -2.385   0.466  0.00  0.00    -0.268 OA
BRANCH  17  22
ATOM     22  C   UNL     1       2.397   3.049   1.020  0.00  0.00    +0.419 C 
ATOM     23  F   UNL     1       2.095   3.654  -0.205  0.00  0.00    -0.166 F 
ATOM     24  F   UNL     1       1.473   3.463   1.984  0.00  0.00    -0.166 F 
ATOM     25  F   UNL     1       3.686   3.420   1.418  0.00  0.00    -0.166 F 
ENDBRANCH  17  22
ENDBRANCH  14  15
ENDBRANCH   3  14
TORSDOF 4
