REMARK  Name = ZINC08819689
REMARK  15 active torsions:
REMARK  status: ('A' for Active; 'I' for Inactive)
REMARK    1  A    between atoms: C_1  and  N_67
REMARK    2  A    between atoms: C_2  and  N_67
REMARK    3  A    between atoms: C_3  and  C_4
REMARK    4  A    between atoms: C_3  and  N_67
REMARK    5  A    between atoms: C_4  and  O_5
REMARK    6  A    between atoms: O_5  and  C_6
REMARK    7  A    between atoms: C_6  and  C_8
REMARK    8  A    between atoms: C_11  and  N_14
REMARK    9  A    between atoms: C_15  and  C_17
REMARK   10  A    between atoms: C_17  and  C_18
REMARK   11  A    between atoms: C_18  and  C_19
REMARK   12  A    between atoms: C_19  and  C_20
REMARK   13  A    between atoms: C_20  and  C_21
REMARK   14  A    between atoms: C_21  and  N_22
REMARK   15  A    between atoms: C_26  and  C_27
REMARK                            x       y       z     vdW  Elec       q    Type
REMARK                         _______ _______ _______ _____ _____    ______ ____
ROOT
ATOM      1  N   UNL     1       2.009   3.579   1.047  0.00  0.00    -0.285 N 
ATOM      2  C   UNL     1       2.708   4.731   1.080  0.00  0.00    +0.217 C 
ATOM      3  O   UNL     1       3.920   4.704   1.124  0.00  0.00    -0.275 OA
ATOM      4  H   UNL     1       1.045   3.599   0.940  0.00  0.00    +0.155 HD
ENDROOT
BRANCH   1   8
ATOM      5  C   UNL     1       3.989  -0.069   1.401  0.00  0.00    +0.059 A 
ATOM      6  C   UNL     1       2.950   0.078   0.477  0.00  0.00    +0.017 A 
ATOM      7  C   UNL     1       2.298   1.284   0.363  0.00  0.00    +0.024 A 
ATOM      8  C   UNL     1       2.672   2.358   1.165  0.00  0.00    +0.033 A 
ATOM      9  C   UNL     1       3.705   2.216   2.086  0.00  0.00    +0.024 A 
ATOM     10  C   UNL     1       4.362   1.012   2.206  0.00  0.00    +0.017 A 
BRANCH   5  11
ATOM     11  C   UNL     1       4.689  -1.360   1.528  0.00  0.00    +0.339 C 
ATOM     12  O   UNL     1       4.364  -2.299   0.828  0.00  0.00    -0.245 OA
BRANCH  11  13
ATOM     13  O   UNL     1       5.690  -1.500   2.419  0.00  0.00    -0.463 OA
BRANCH  13  14
ATOM     14  C   UNL     1       6.335  -2.799   2.488  0.00  0.00    +0.214 C 
BRANCH  14  15
ATOM     15  C   UNL     1       7.438  -2.765   3.548  0.00  0.00    -0.038 C 
BRANCH  15  18
ATOM     16  C   UNL     1       6.243  -3.876   5.338  0.00  0.00    -0.096 C 
ATOM     17  C   UNL     1       7.816  -2.107   5.847  0.00  0.00    -0.096 C 
ATOM     18  N   UNL     1       6.813  -2.592   4.877  0.00  0.00    +0.378 N 
ATOM     19  H   UNL     1       6.058  -1.900   4.802  0.00  0.00    -0.082 HD
ENDBRANCH  15  18
ENDBRANCH  14  15
ENDBRANCH  13  14
ENDBRANCH  11  13
ENDBRANCH   5  11
ENDBRANCH   1   8
BRANCH   2  20
ATOM     20  C   UNL     1       1.984   6.052   1.062  0.00  0.00    +0.096 C 
BRANCH  20  21
ATOM     21  C   UNL     1       3.002   7.193   1.107  0.00  0.00    +0.009 C 
BRANCH  21  22
ATOM     22  C   UNL     1       2.267   8.534   1.089  0.00  0.00    +0.002 C 
BRANCH  22  23
ATOM     23  C   UNL     1       3.286   9.675   1.134  0.00  0.00    +0.019 C 
BRANCH  23  24
ATOM     24  C   UNL     1       2.551  11.017   1.116  0.00  0.00    +0.115 C 
BRANCH  24  25
ATOM     25  N   UNL     1       3.526  12.109   1.159  0.00  0.00    -0.255 N 
ATOM     26  C   UNL     1       3.910  12.586   2.331  0.00  0.00    +0.258 C 
ATOM     27  O   UNL     1       3.474  12.142   3.377  0.00  0.00    -0.269 OA
ATOM     28  C   UNL     1       4.899  13.685   2.306  0.00  0.00    +0.077 C 
ATOM     29  C   UNL     1       5.471  14.358   3.335  0.00  0.00    +0.028 C 
ATOM     30  S   UNL     1       5.132  13.885   0.545  0.00  0.00    -0.061 S 
ATOM     31  C   UNL     1       4.007  12.608   0.003  0.00  0.00    +0.121 C 
ATOM     32  S   UNL     1       3.631  12.133  -1.598  0.00  0.00    -0.027 S 
BRANCH  29  33
ATOM     33  C   UNL     1       6.552  15.319   3.075  0.00  0.00    -0.024 A 
ATOM     34  C   UNL     1       7.268  15.264   1.875  0.00  0.00    +0.008 A 
ATOM     35  C   UNL     1       8.278  16.172   1.636  0.00  0.00    +0.001 A 
ATOM     36  C   UNL     1       8.590  17.130   2.585  0.00  0.00    +0.000 A 
ATOM     37  C   UNL     1       7.890  17.188   3.778  0.00  0.00    +0.001 A 
ATOM     38  C   UNL     1       6.874  16.290   4.029  0.00  0.00    +0.008 A 
ENDBRANCH  29  33
ENDBRANCH  24  25
ENDBRANCH  23  24
ENDBRANCH  22  23
ENDBRANCH  21  22
ENDBRANCH  20  21
ENDBRANCH   2  20
TORSDOF 13
