REMARK  Name = ZINC13687214
REMARK  6 active torsions:
REMARK  status: ('A' for Active; 'I' for Inactive)
REMARK    1  A    between atoms: C_1  and  C_2
REMARK    2  A    between atoms: C_2  and  C_3
REMARK    3  A    between atoms: C_2  and  N_4
REMARK    4  A    between atoms: N_13  and  C_14
REMARK    5  A    between atoms: C_14  and  C_15
REMARK    6  A    between atoms: C_20  and  O_21
REMARK                            x       y       z     vdW  Elec       q    Type
REMARK                         _______ _______ _______ _____ _____    ______ ____
ROOT
ATOM      1  N   UNL     1      -0.020   1.094   2.454  0.00  0.00    -0.309 N 
ATOM      2  C   UNL     1      -0.542   0.282   3.447  0.00  0.00    +0.070 A 
ATOM      3  C   UNL     1      -1.782  -0.303   3.659  0.00  0.00    +0.028 A 
ATOM      4  C   UNL     1      -1.992  -1.081   4.779  0.00  0.00    +0.002 A 
ATOM      5  C   UNL     1      -0.970  -1.283   5.696  0.00  0.00    +0.002 A 
ATOM      6  C   UNL     1       0.267  -0.710   5.501  0.00  0.00    +0.030 A 
ATOM      7  C   UNL     1       0.496   0.080   4.372  0.00  0.00    +0.091 A 
ATOM      8  N   UNL     1       1.578   0.762   3.913  0.00  0.00    -0.214 NA
ATOM      9  C   UNL     1       1.279   1.353   2.784  0.00  0.00    +0.197 A 
ATOM     10  N   UNL     1       2.146   2.126   2.040  0.00  0.00    -0.311 N 
ATOM     11  H   UNL     1       1.845   2.533   1.213  0.00  0.00    +0.149 HD
ENDROOT
BRANCH   1  13
ATOM     12  C   UNL     1      -0.013   1.086   0.008  0.00  0.00    +0.030 C 
ATOM     13  C   UNL     1      -0.729   1.579   1.267  0.00  0.00    +0.084 C 
ATOM     14  C   UNL     1      -0.750   3.109   1.275  0.00  0.00    +0.030 C 
ENDBRANCH   1  13
BRANCH  10  15
ATOM     15  C   UNL     1       3.522   2.332   2.500  0.00  0.00    +0.143 C 
BRANCH  15  16
ATOM     16  C   UNL     1       4.255   3.206   1.515  0.00  0.00    +0.012 A 
ATOM     17  C   UNL     1       5.109   2.639   0.589  0.00  0.00    +0.024 A 
ATOM     18  C   UNL     1       5.779   3.441  -0.318  0.00  0.00    +0.018 A 
ATOM     19  C   UNL     1       5.602   4.813  -0.292  0.00  0.00    +0.019 A 
ATOM     20  C   UNL     1       4.753   5.385   0.635  0.00  0.00    +0.047 A 
ATOM     21  C   UNL     1       4.077   4.582   1.542  0.00  0.00    +0.122 A 
ATOM     22 BR   UNL     1       6.942   2.662  -1.588  0.00  0.00    -0.050 Br
BRANCH  21  23
ATOM     23  O   UNL     1       3.242   5.142   2.457  0.00  0.00    -0.506 OA
ATOM     24  H   UNL     1       3.672   5.380   3.289  0.00  0.00    +0.292 HD
ENDBRANCH  21  23
ENDBRANCH  15  16
ENDBRANCH  10  15
TORSDOF 4
