REMARK  Name = ZINC13122574
REMARK  5 active torsions:
REMARK  status: ('A' for Active; 'I' for Inactive)
REMARK    1  A    between atoms: C_1  and  S_2
REMARK    2  A    between atoms: S_2  and  N_5
REMARK    3  A    between atoms: N_5  and  C_6
REMARK    4  A    between atoms: C_11  and  C_23
REMARK    5  A    between atoms: C_14  and  C_17
REMARK                            x       y       z     vdW  Elec       q    Type
REMARK                         _______ _______ _______ _____ _____    ______ ____
ROOT
ATOM      1  C   UNL     1       0.992  -1.754  -1.718  0.00  0.00    +0.255 A 
ATOM      2  N   UNL     1       1.621  -2.207  -2.812  0.00  0.00    -0.297 N 
ATOM      3  C   UNL     1       1.626  -3.513  -2.803  0.00  0.00    +0.193 A 
ATOM      4  N   UNL     1       0.991  -3.930  -1.681  0.00  0.00    -0.225 N 
ATOM      5  N   UNL     1       0.596  -2.780  -0.997  0.00  0.00    -0.130 NA
ATOM      6  C   UNL     1       0.799  -5.333  -1.315  0.00  0.00    +0.143 C 
ATOM      7  C   UNL     1       1.800  -6.190  -2.101  0.00  0.00    +0.058 C 
ATOM      8  C   UNL     1       1.750  -5.813  -3.586  0.00  0.00    +0.106 C 
ATOM      9  N   UNL     1       2.159  -4.402  -3.727  0.00  0.00    -0.308 N 
ATOM     10  H   UNL     1       2.765  -4.112  -4.427  0.00  0.00    +0.149 HD
ATOM     11  H   UNL     1       2.011  -1.650  -3.505  0.00  0.00    +0.171 HD
ENDROOT
BRANCH   8  12
ATOM     12  C   UNL     1       0.347  -5.992  -4.107  0.00  0.00    -0.027 A 
ATOM     13  C   UNL     1      -0.607  -5.020  -3.871  0.00  0.00    +0.005 A 
ATOM     14  C   UNL     1      -1.894  -5.184  -4.349  0.00  0.00    +0.000 A 
ATOM     15  C   UNL     1      -2.226  -6.320  -5.063  0.00  0.00    +0.000 A 
ATOM     16  C   UNL     1      -1.272  -7.292  -5.299  0.00  0.00    +0.000 A 
ATOM     17  C   UNL     1       0.016  -7.126  -4.825  0.00  0.00    +0.005 A 
ENDBRANCH   8  12
BRANCH   6  18
ATOM     18  C   UNL     1       1.034  -5.506   0.163  0.00  0.00    -0.023 A 
ATOM     19  C   UNL     1       2.260  -5.179   0.712  0.00  0.00    +0.006 A 
ATOM     20  C   UNL     1       2.474  -5.338   2.068  0.00  0.00    +0.000 A 
ATOM     21  C   UNL     1       1.463  -5.823   2.876  0.00  0.00    +0.000 A 
ATOM     22  C   UNL     1       0.237  -6.149   2.328  0.00  0.00    +0.000 A 
ATOM     23  C   UNL     1       0.020  -5.986   0.972  0.00  0.00    +0.006 A 
ENDBRANCH   6  18
BRANCH   1  24
ATOM     24  N   UNL     1       0.795  -0.411  -1.394  0.00  0.00    -0.063 NA
BRANCH  24  26
ATOM     25  C   UNL     1      -0.022   1.810   0.012  0.00  0.00    +0.220 C 
ATOM     26  S   UNL     1       0.002  -0.004   0.002  0.00  0.00    +0.062 S 
ATOM     27  O   UNL     1       0.835  -0.488   1.046  0.00  0.00    -0.154 OA
ATOM     28  O   UNL     1      -1.315  -0.510  -0.168  0.00  0.00    -0.154 OA
ENDBRANCH  24  26
ENDBRANCH   1  24
TORSDOF 4
