REMARK  Name = ZINC09135685
REMARK  8 active torsions:
REMARK  status: ('A' for Active; 'I' for Inactive)
REMARK    1  A    between atoms: C_1  and  C_2
REMARK    2  A    between atoms: C_2  and  N_3
REMARK    3  A    between atoms: C_4  and  C_6
REMARK    4  A    between atoms: N_8  and  C_9
REMARK    5  A    between atoms: C_9  and  C_10
REMARK    6  A    between atoms: C_10  and  C_12
REMARK    7  A    between atoms: C_10  and  N_56
REMARK    8  A    between atoms: N_21  and  C_22
REMARK                            x       y       z     vdW  Elec       q    Type
REMARK                         _______ _______ _______ _____ _____    ______ ____
ROOT
ATOM      1  C   UNL     1       2.810  -2.621   4.608  0.00  0.00    -0.020 C 
ENDROOT
BRANCH   1   2
ATOM      2  C   UNL     1       2.373  -2.683   3.167  0.00  0.00    -0.059 A 
ATOM      3  C   UNL     1       2.389  -3.889   2.489  0.00  0.00    +0.004 A 
ATOM      4  C   UNL     1       1.992  -3.942   1.171  0.00  0.00    +0.023 A 
ATOM      5  C   UNL     1       1.572  -2.785   0.511  0.00  0.00    +0.033 A 
ATOM      6  C   UNL     1       1.553  -1.583   1.196  0.00  0.00    -0.026 A 
ATOM      7  C   UNL     1       1.957  -1.536   2.521  0.00  0.00    +0.007 A 
ATOM      8  C   UNL     1       1.094  -0.301   0.547  0.00  0.00    +0.038 C 
ATOM      9  C   UNL     1       1.063  -0.476  -0.974  0.00  0.00    +0.024 C 
ATOM     10  C   UNL     1       0.347  -1.797  -1.282  0.00  0.00    +0.105 C 
ATOM     11  N   UNL     1       1.189  -2.904  -0.824  0.00  0.00    -0.333 N 
ATOM     12  C   UNL     1       0.538  -4.198  -1.071  0.00  0.00    +0.129 C 
ENDBRANCH   1   2
BRANCH   1  17
ATOM     13  C   UNL     1       2.493  -3.620   6.806  0.00  0.00    -0.078 C 
ATOM     14  C   UNL     1       1.382  -4.477   7.463  0.00  0.00    -0.020 C 
ATOM     15  C   UNL     1       0.144  -4.169   6.590  0.00  0.00    -0.020 C 
ATOM     16  C   UNL     1       0.713  -3.667   5.250  0.00  0.00    -0.078 C 
ATOM     17  N   UNL     1       2.170  -3.732   5.375  0.00  0.00    +0.385 N 
ATOM     18  H   UNL     1       2.509  -4.630   5.012  0.00  0.00    -0.081 HD
ENDBRANCH   1  17
BRANCH   1  19
ATOM     19  C   UNL     1       4.332  -2.749   4.686  0.00  0.00    +0.094 C 
BRANCH  19  22
ATOM     20  C   UNL     1       6.055  -2.799   6.408  0.00  0.00    +0.299 C 
ATOM     21  O   UNL     1       6.857  -3.118   5.555  0.00  0.00    -0.265 OA
ATOM     22  N   UNL     1       4.765  -2.591   6.076  0.00  0.00    -0.309 N 
ATOM     23  H   UNL     1       4.124  -2.336   6.758  0.00  0.00    +0.149 HD
BRANCH  20  25
ATOM     24  N   UNL     1       7.786  -2.845   8.159  0.00  0.00    -0.308 N 
ATOM     25  C   UNL     1       6.497  -2.637   7.827  0.00  0.00    +0.299 C 
ATOM     26  O   UNL     1       5.694  -2.318   8.679  0.00  0.00    -0.265 OA
ATOM     27  H   UNL     1       8.428  -3.100   7.477  0.00  0.00    +0.149 HD
BRANCH  24  29
ATOM     28  C   UNL     1       9.718  -2.979   9.653  0.00  0.00    +0.024 C 
ATOM     29  C   UNL     1       8.219  -2.687   9.549  0.00  0.00    +0.101 C 
ENDBRANCH  24  29
ENDBRANCH  20  25
ENDBRANCH  19  22
ENDBRANCH   1  19
TORSDOF 6
