REMARK  Name = ZINC37397917
REMARK  9 active torsions:
REMARK  status: ('A' for Active; 'I' for Inactive)
REMARK    1  A    between atoms: C_1  and  C_2
REMARK    2  A    between atoms: C_2  and  N_3
REMARK    3  A    between atoms: C_9  and  C_11
REMARK    4  A    between atoms: C_14  and  C_17
REMARK    5  A    between atoms: C_17  and  S_18
REMARK    6  A    between atoms: S_18  and  C_19
REMARK    7  A    between atoms: C_22  and  C_31
REMARK    8  A    between atoms: N_23  and  C_24
REMARK    9  A    between atoms: C_28  and  C_30
REMARK                            x       y       z     vdW  Elec       q    Type
REMARK                         _______ _______ _______ _____ _____    ______ ____
ROOT
ATOM      1  C   UNL     1      -4.316  -8.518  -0.849  0.00  0.00    +0.112 C 
ENDROOT
BRANCH   1   5
ATOM      2  C   UNL     1      -4.318  -4.283  -1.437  0.00  0.00    +0.037 A 
ATOM      3  C   UNL     1      -3.612  -4.842  -0.371  0.00  0.00    +0.013 A 
ATOM      4  C   UNL     1      -3.616  -6.209  -0.187  0.00  0.00    +0.005 A 
ATOM      5  C   UNL     1      -4.317  -7.026  -1.056  0.00  0.00    -0.037 A 
ATOM      6  C   UNL     1      -5.019  -6.478  -2.115  0.00  0.00    +0.005 A 
ATOM      7  C   UNL     1      -5.028  -5.112  -2.307  0.00  0.00    +0.013 A 
BRANCH   2  14
ATOM      8  N   UNL     1      -0.771  -0.987  -2.514  0.00  0.00    +0.382 N 
ATOM      9  C   UNL     1      -2.051  -0.428  -2.966  0.00  0.00    -0.060 C 
ATOM     10  C   UNL     1      -3.125  -0.691  -1.905  0.00  0.00    +0.089 C 
ATOM     11  N   UNL     1      -3.158  -2.135  -1.622  0.00  0.00    -0.301 N 
ATOM     12  C   UNL     1      -1.887  -2.811  -1.319  0.00  0.00    +0.089 C 
ATOM     13  C   UNL     1      -0.872  -2.448  -2.408  0.00  0.00    -0.060 C 
ATOM     14  C   UNL     1      -4.319  -2.818  -1.641  0.00  0.00    +0.246 C 
ATOM     15  O   UNL     1      -5.367  -2.231  -1.824  0.00  0.00    -0.270 OA
ATOM     16  H   UNL     1      -0.538  -0.601  -1.611  0.00  0.00    -0.082 HD
BRANCH   8  18
ATOM     17  C   UNL     1       0.473   0.879  -3.499  0.00  0.00    -0.017 C 
ATOM     18  C   UNL     1       0.281  -0.639  -3.479  0.00  0.00    -0.082 C 
ENDBRANCH   8  18
ENDBRANCH   2  14
ENDBRANCH   1   5
BRANCH   1  19
ATOM     19  S   UNL     1      -5.703  -8.980   0.225  0.00  0.00    -0.081 S 
BRANCH  19  20
ATOM     20  C   UNL     1      -5.566 -10.731   0.369  0.00  0.00    +0.197 A 
ATOM     21  N   UNL     1      -4.648 -11.489  -0.187  0.00  0.00    -0.122 NA
ATOM     22  N   UNL     1      -4.842 -12.721   0.123  0.00  0.00    -0.127 NA
ATOM     23  C   UNL     1      -5.899 -12.829   0.899  0.00  0.00    +0.176 A 
ATOM     24  N   UNL     1      -6.393 -11.555   1.085  0.00  0.00    -0.270 N 
BRANCH  24  25
ATOM     25  C   UNL     1      -7.510 -11.182   1.846  0.00  0.00    +0.051 A 
ATOM     26  C   UNL     1      -7.502 -11.355   3.224  0.00  0.00    +0.026 A 
ATOM     27  C   UNL     1      -8.603 -10.986   3.971  0.00  0.00    +0.002 A 
ATOM     28  C   UNL     1      -9.713 -10.444   3.348  0.00  0.00    +0.003 A 
ATOM     29  C   UNL     1      -9.724 -10.271   1.976  0.00  0.00    -0.048 A 
ATOM     30  C   UNL     1      -8.623 -10.633   1.225  0.00  0.00    +0.029 A 
ATOM     31  C   UNL     1     -10.935  -9.682   1.302  0.00  0.00    +0.044 C 
ENDBRANCH  24  25
BRANCH  23  32
ATOM     32  C   UNL     1      -6.446 -14.072   1.464  0.00  0.00    +0.057 A 
ATOM     33  C   UNL     1      -5.860 -15.309   1.562  0.00  0.00    +0.019 A 
ATOM     34  C   UNL     1      -6.575 -16.335   2.138  0.00  0.00    +0.008 A 
ATOM     35  C   UNL     1      -7.833 -16.093   2.589  0.00  0.00    +0.046 A 
ATOM     36  S   UNL     1      -8.043 -14.362   2.208  0.00  0.00    -0.094 S 
ENDBRANCH  23  32
ENDBRANCH  19  20
ENDBRANCH   1  19
TORSDOF 7
