REMARK  Name = ZINC20719888
REMARK  8 active torsions:
REMARK  status: ('A' for Active; 'I' for Inactive)
REMARK    1  A    between atoms: C_1  and  C_2
REMARK    2  A    between atoms: C_2  and  C_3
REMARK    3  A    between atoms: C_2  and  C_4
REMARK    4  A    between atoms: C_4  and  C_6
REMARK    5  A    between atoms: C_4  and  N_10
REMARK    6  A    between atoms: C_6  and  O_8
REMARK    7  A    between atoms: O_8  and  C_9
REMARK    8  A    between atoms: C_22  and  C_24
REMARK                            x       y       z     vdW  Elec       q    Type
REMARK                         _______ _______ _______ _____ _____    ______ ____
ROOT
ATOM      1  N   UNL     1       1.496   1.757   2.147  0.00  0.00    -0.286 N 
ATOM      2  C   UNL     1       2.556   1.116   1.615  0.00  0.00    +0.304 C 
ATOM      3  O   UNL     1       2.431  -0.017   1.192  0.00  0.00    -0.253 OA
ATOM      4  N   UNL     1       3.754   1.731   1.554  0.00  0.00    -0.273 N 
ATOM      5  C   UNL     1       4.893   1.097   0.873  0.00  0.00    +0.116 C 
ATOM      6  C   UNL     1       5.292   1.947  -0.340  0.00  0.00    +0.076 C 
ATOM      7  C   UNL     1       5.331   3.397   0.074  0.00  0.00    +0.066 A 
ATOM      8  C   UNL     1       4.736   3.890   1.182  0.00  0.00    +0.064 A 
ATOM      9  N   UNL     1       4.987   5.227   1.213  0.00  0.00    -0.346 N 
ATOM     10  H   UNL     1       4.687   5.854   1.889  0.00  0.00    +0.167 HD
ATOM     11  C   UNL     1       5.733   5.514   0.121  0.00  0.00    +0.197 A 
ATOM     12  N   UNL     1       5.933   4.412  -0.553  0.00  0.00    -0.240 NA
ATOM     13  C   UNL     1       3.955   3.059   2.162  0.00  0.00    +0.159 C 
ATOM     14  H   UNL     1       1.611   2.632   2.551  0.00  0.00    +0.151 HD
ENDROOT
BRANCH  13  15
ATOM     15  C   UNL     1       4.732   2.922   3.446  0.00  0.00    +0.014 A 
ATOM     16  C   UNL     1       5.788   3.774   3.709  0.00  0.00    +0.011 A 
ATOM     17  C   UNL     1       6.501   3.651   4.886  0.00  0.00    +0.039 A 
ATOM     18  C   UNL     1       6.158   2.673   5.804  0.00  0.00    +0.126 A 
ATOM     19  C   UNL     1       5.100   1.819   5.543  0.00  0.00    +0.077 A 
ATOM     20  C   UNL     1       4.383   1.948   4.366  0.00  0.00    +0.131 A 
ATOM     21  F   UNL     1       3.347   1.119   4.112  0.00  0.00    -0.205 F 
ATOM     22  F   UNL     1       6.856   2.552   6.955  0.00  0.00    -0.205 F 
ENDBRANCH  13  15
BRANCH   1  23
ATOM     23  C   UNL     1       0.171   1.133   2.115  0.00  0.00    +0.186 C 
BRANCH  23  25
ATOM     24  C   UNL     1       1.096  -0.890   3.252  0.00  0.00    +0.009 C 
ATOM     25  C   UNL     1       0.020   0.196   3.314  0.00  0.00    +0.014 C 
ATOM     26  C   UNL     1       0.176   0.995   4.610  0.00  0.00    +0.009 C 
ENDBRANCH  23  25
BRANCH  23  27
ATOM     27  C   UNL     1      -0.889   2.203   2.176  0.00  0.00    +0.328 C 
ATOM     28  O   UNL     1      -0.570   3.366   2.240  0.00  0.00    -0.249 OA
BRANCH  27  29
ATOM     29  O   UNL     1      -2.187   1.862   2.160  0.00  0.00    -0.467 OA
ATOM     30  C   UNL     1      -3.138   2.927   2.221  0.00  0.00    +0.280 C 
ENDBRANCH  27  29
ENDBRANCH  23  27
ENDBRANCH   1  23
TORSDOF 5
