REMARK  Name = ZINC66786002
REMARK  5 active torsions:
REMARK  status: ('A' for Active; 'I' for Inactive)
REMARK    1  A    between atoms: C_1  and  C_2
REMARK    2  A    between atoms: C_12  and  C_14
REMARK    3  A    between atoms: C_14  and  N_15
REMARK    4  A    between atoms: C_18  and  C_22
REMARK    5  A    between atoms: C_18  and  C_23
REMARK                            x       y       z     vdW  Elec       q    Type
REMARK                         _______ _______ _______ _____ _____    ______ ____
ROOT
ATOM      1  C   UNL     1      -1.335   1.766   0.840  0.00  0.00    +0.046 C 
ATOM      2  C   UNL     1      -1.391   0.272   0.648  0.00  0.00    -0.026 A 
ATOM      3  C   UNL     1      -2.220  -0.269  -0.314  0.00  0.00    +0.043 A 
ATOM      4  C   UNL     1      -2.271  -1.641  -0.489  0.00  0.00    +0.124 A 
ATOM      5  C   UNL     1      -1.493  -2.470   0.300  0.00  0.00    +0.043 A 
ATOM      6  C   UNL     1      -0.660  -1.934   1.267  0.00  0.00    -0.023 A 
ATOM      7  C   UNL     1      -0.604  -0.559   1.435  0.00  0.00    +0.043 A 
ATOM      8  N   UNL     1       0.242   0.013   2.398  0.00  0.00    -0.270 N 
ATOM      9  C   UNL     1       0.844  -0.856   3.419  0.00  0.00    +0.114 C 
ATOM     10  C   UNL     1       1.363  -2.117   2.716  0.00  0.00    +0.024 C 
ATOM     11  C   UNL     1       0.169  -2.865   2.112  0.00  0.00    +0.038 C 
ATOM     12  C   UNL     1       0.499   1.336   2.385  0.00  0.00    +0.238 C 
ATOM     13  O   UNL     1       0.543   1.935   1.332  0.00  0.00    -0.274 OA
ATOM     14  F   UNL     1      -3.080  -2.172  -1.431  0.00  0.00    -0.205 F 
ENDROOT
BRANCH  12  15
ATOM     15  C   UNL     1       0.731   2.070   3.680  0.00  0.00    +0.214 C 
BRANCH  15  16
ATOM     16  N   UNL     1       0.987   3.485   3.400  0.00  0.00    -0.215 N 
ATOM     17  C   UNL     1       2.211   4.003   3.175  0.00  0.00    +0.247 C 
ATOM     18  O   UNL     1       3.267   3.409   3.166  0.00  0.00    -0.273 OA
ATOM     19  C   UNL     1       1.991   5.483   2.934  0.00  0.00    +0.113 C 
ATOM     20  N   UNL     1       0.532   5.643   3.063  0.00  0.00    -0.285 N 
ATOM     21  C   UNL     1       0.034   4.422   3.330  0.00  0.00    +0.310 C 
ATOM     22  O   UNL     1      -1.149   4.196   3.494  0.00  0.00    -0.252 OA
ATOM     23  C   UNL     1       2.453   5.874   1.528  0.00  0.00    +0.042 C 
ATOM     24  H   UNL     1       0.029   6.467   2.970  0.00  0.00    +0.151 HD
BRANCH  19  25
ATOM     25  C   UNL     1       2.719   6.315   3.991  0.00  0.00    +0.021 C 
ATOM     26  C   UNL     1       1.862   7.081   5.001  0.00  0.00    +0.006 C 
ATOM     27  C   UNL     1       2.603   7.838   3.896  0.00  0.00    +0.006 C 
ENDBRANCH  19  25
ENDBRANCH  15  16
ENDBRANCH  12  15
TORSDOF 3
