REMARK  Name = ZINC04864367
REMARK  5 active torsions:
REMARK  status: ('A' for Active; 'I' for Inactive)
REMARK    1  A    between atoms: C_1  and  C_2
REMARK    2  A    between atoms: C_3  and  C_11
REMARK    3  A    between atoms: N_13  and  N_14
REMARK    4  A    between atoms: C_15  and  C_16
REMARK    5  A    between atoms: C_15  and  C_17
REMARK                            x       y       z     vdW  Elec       q    Type
REMARK                         _______ _______ _______ _____ _____    ______ ____
ROOT
ATOM      1  C   UNL     1      -2.439   1.989   0.049  0.00  0.00    +0.282 C 
ATOM      2  O   UNL     1      -3.245   2.895   0.161  0.00  0.00    -0.267 OA
ATOM      3  N   UNL     1      -2.867   0.715  -0.053  0.00  0.00    -0.201 N 
ATOM      4  H   UNL     1      -2.225  -0.012  -0.066  0.00  0.00    +0.178 HD
ENDROOT
BRANCH   1   7
ATOM      5  C   UNL     1      -0.667   2.509   2.563  0.00  0.00    +0.068 C 
ATOM      6  C   UNL     1      -0.233   2.510   1.120  0.00  0.00    +0.069 A 
ATOM      7  C   UNL     1      -1.050   2.274   0.026  0.00  0.00    +0.133 A 
ATOM      8  N   UNL     1      -0.244   2.375  -1.093  0.00  0.00    -0.295 N 
ATOM      9  C   UNL     1      -0.500   2.244  -2.422  0.00  0.00    +0.093 A 
ATOM     10  C   UNL     1       0.491   2.388  -3.332  0.00  0.00    +0.018 A 
ATOM     11  C   UNL     1       1.797   2.676  -2.911  0.00  0.00    +0.005 A 
ATOM     12  C   UNL     1       2.062   2.809  -1.581  0.00  0.00    +0.047 A 
ATOM     13  C   UNL     1       1.018   2.655  -0.650  0.00  0.00    +0.138 A 
ATOM     14  N   UNL     1       0.995   2.730   0.679  0.00  0.00    -0.232 NA
ENDBRANCH   1   7
BRANCH   3  15
ATOM     15  N   UNL     1      -4.238   0.442  -0.139  0.00  0.00    -0.184 NA
ATOM     16  C   UNL     1      -4.651  -0.788  -0.237  0.00  0.00    +0.070 C 
ATOM     17  C   UNL     1      -3.655  -1.918  -0.258  0.00  0.00    +0.068 C 
BRANCH  16  18
ATOM     18  C   UNL     1      -6.087  -1.074  -0.328  0.00  0.00    +0.035 A 
ATOM     19  C   UNL     1      -7.154  -0.193  -0.326  0.00  0.00    +0.017 A 
ATOM     20  C   UNL     1      -8.426  -0.707  -0.422  0.00  0.00    +0.008 A 
ATOM     21  C   UNL     1      -8.595  -2.052  -0.515  0.00  0.00    +0.046 A 
ATOM     22  S   UNL     1      -6.913  -2.650  -0.476  0.00  0.00    -0.095 S 
ENDBRANCH  16  18
ENDBRANCH   3  15
TORSDOF 3
