REMARK  Name = ZINC42014080
REMARK  4 active torsions:
REMARK  status: ('A' for Active; 'I' for Inactive)
REMARK    1  A    between atoms: C_1  and  C_2
REMARK    2  A    between atoms: C_7  and  N_8
REMARK    3  A    between atoms: C_9  and  C_13
REMARK    4  A    between atoms: C_17  and  N_19
REMARK                            x       y       z     vdW  Elec       q    Type
REMARK                         _______ _______ _______ _____ _____    ______ ____
ROOT
ATOM      1  N   UNL     1       0.554   0.176   2.353  0.00  0.00    -0.192 N 
ATOM      2  C   UNL     1       0.378  -0.338   3.604  0.00  0.00    +0.187 A 
ATOM      3  N   UNL     1       0.001   0.658   4.377  0.00  0.00    -0.108 NA
ATOM      4  N   UNL     1      -0.071   1.749   3.704  0.00  0.00    -0.022 NA
ATOM      5  N   UNL     1       0.253   1.544   2.474  0.00  0.00    -0.039 NA
ENDROOT
BRANCH   1  12
ATOM      6  C   UNL     1      -1.036   0.447   0.008  0.00  0.00    +0.046 C 
ATOM      7  C   UNL     1       0.207  -0.405   0.032  0.00  0.00    -0.024 A 
ATOM      8  C   UNL     1       0.607  -1.077  -1.106  0.00  0.00    +0.020 A 
ATOM      9  C   UNL     1       1.747  -1.860  -1.084  0.00  0.00    +0.018 A 
ATOM     10  C   UNL     1       2.491  -1.971   0.078  0.00  0.00    +0.017 A 
ATOM     11  C   UNL     1       2.096  -1.301   1.219  0.00  0.00    +0.029 A 
ATOM     12  C   UNL     1       0.954  -0.510   1.198  0.00  0.00    +0.072 A 
ATOM     13 BR   UNL     1       2.291  -2.779  -2.644  0.00  0.00    -0.050 Br
ENDBRANCH   1  12
BRANCH   2  14
ATOM     14  C   UNL     1       0.573  -1.747   4.013  0.00  0.00    +0.023 A 
ATOM     15  C   UNL     1       0.352  -2.778   3.099  0.00  0.00    +0.012 A 
ATOM     16  C   UNL     1       0.534  -4.091   3.483  0.00  0.00    +0.002 A 
ATOM     17  C   UNL     1       0.935  -4.390   4.772  0.00  0.00    +0.023 A 
ATOM     18  C   UNL     1       1.157  -3.370   5.689  0.00  0.00    +0.025 A 
ATOM     19  C   UNL     1       0.983  -2.047   5.311  0.00  0.00    +0.034 A 
BRANCH  18  20
ATOM     20  N   UNL     1       1.561  -3.677   6.991  0.00  0.00    -0.358 N 
ATOM     21  H   UNL     1       1.687  -4.602   7.255  0.00  0.00    +0.142 HD
ATOM     22  H   UNL     1       1.716  -2.965   7.631  0.00  0.00    +0.142 HD
ENDBRANCH  18  20
ENDBRANCH   2  14
TORSDOF 3
