REMARK  Name = ZINC16025210
REMARK  8 active torsions:
REMARK  status: ('A' for Active; 'I' for Inactive)
REMARK    1  A    between atoms: C_1  and  C_2
REMARK    2  A    between atoms: C_2  and  C_3
REMARK    3  A    between atoms: C_2  and  C_4
REMARK    4  A    between atoms: C_2  and  N_5
REMARK    5  A    between atoms: C_10  and  C_28
REMARK    6  A    between atoms: C_28  and  C_29
REMARK    7  A    between atoms: C_29  and  S_30
REMARK    8  A    between atoms: S_30  and  C_31
REMARK                            x       y       z     vdW  Elec       q    Type
REMARK                         _______ _______ _______ _____ _____    ______ ____
ROOT
ATOM      1  N   UNL     1       0.688  -0.476  -1.203  0.00  0.00    -0.236 N 
ATOM      2  C   UNL     1       0.091  -1.247  -2.120  0.00  0.00    +0.228 C 
ATOM      3  O   UNL     1      -1.056  -1.637  -2.068  0.00  0.00    -0.275 OA
ATOM      4  C   UNL     1       1.069  -1.555  -3.231  0.00  0.00    +0.107 C 
ATOM      5  C   UNL     1       1.427  -3.056  -3.189  0.00  0.00    +0.068 C 
ATOM      6  N   UNL     1       2.907  -3.099  -3.330  0.00  0.00    -0.295 NA
ATOM      7  C   UNL     1       3.378  -1.949  -2.536  0.00  0.00    +0.136 C 
ATOM      8  C   UNL     1       2.360  -0.810  -2.789  0.00  0.00    +0.122 C 
ATOM      9  C   UNL     1       1.960  -0.168  -1.480  0.00  0.00    +0.229 C 
ATOM     10  O   UNL     1       2.681   0.517  -0.787  0.00  0.00    -0.275 OA
ATOM     11  C   UNL     1       3.483  -2.294  -1.077  0.00  0.00    +0.005 A 
ATOM     12  C   UNL     1       2.576  -2.733  -0.139  0.00  0.00    +0.027 A 
ATOM     13  C   UNL     1       2.985  -2.973   1.161  0.00  0.00    +0.041 A 
ATOM     14  C   UNL     1       4.308  -2.770   1.515  0.00  0.00    +0.022 A 
ATOM     15  C   UNL     1       5.219  -2.329   0.579  0.00  0.00    +0.025 A 
ATOM     16  C   UNL     1       4.815  -2.085  -0.732  0.00  0.00    +0.039 A 
ATOM     17  N   UNL     1       5.538  -1.642  -1.843  0.00  0.00    -0.283 N 
ATOM     18  C   UNL     1       4.766  -1.535  -2.941  0.00  0.00    +0.243 C 
ATOM     19  O   UNL     1       5.122  -1.176  -4.044  0.00  0.00    -0.273 OA
ATOM     20 CL   UNL     1       1.843  -3.528   2.345  0.00  0.00    -0.084 Cl
ATOM     21  H   UNL     1       3.279  -3.965  -2.969  0.00  0.00    +0.123 HD
ATOM     22  H   UNL     1       6.485  -1.434  -1.824  0.00  0.00    +0.155 HD
ENDROOT
BRANCH   1  24
ATOM     23  C   UNL     1      -0.019   1.526   0.010  0.00  0.00    +0.031 C 
ATOM     24  C   UNL     1       0.002  -0.004   0.002  0.00  0.00    +0.036 C 
ATOM     25  C   UNL     1       0.742  -0.511   1.242  0.00  0.00    +0.031 C 
ATOM     26  C   UNL     1      -1.433  -0.534   0.013  0.00  0.00    +0.031 C 
ENDBRANCH   1  24
BRANCH   5  27
ATOM     27  C   UNL     1       0.757  -3.796  -4.349  0.00  0.00    +0.030 C 
BRANCH  27  28
ATOM     28  C   UNL     1       1.022  -5.297  -4.217  0.00  0.00    +0.070 C 
BRANCH  28  29
ATOM     29  S   UNL     1       0.228  -6.175  -5.592  0.00  0.00    -0.164 S 
ATOM     30  C   UNL     1       0.631  -7.917  -5.292  0.00  0.00    +0.084 C 
ENDBRANCH  28  29
ENDBRANCH  27  28
ENDBRANCH   5  27
TORSDOF 4
