REMARK  Name = ZINC28466086
REMARK  6 active torsions:
REMARK  status: ('A' for Active; 'I' for Inactive)
REMARK    1  A    between atoms: C_1  and  C_2
REMARK    2  A    between atoms: C_2  and  C_3
REMARK    3  A    between atoms: C_2  and  C_4
REMARK    4  A    between atoms: C_2  and  N_5
REMARK    5  A    between atoms: C_9  and  C_20
REMARK    6  A    between atoms: C_13  and  O_19
REMARK                            x       y       z     vdW  Elec       q    Type
REMARK                         _______ _______ _______ _____ _____    ______ ____
ROOT
ATOM      1  N   UNL     1       6.128   5.636  -0.978  0.00  0.00    -0.252 N 
ATOM      2  C   UNL     1       6.385   6.649  -1.817  0.00  0.00    +0.305 C 
ATOM      3  O   UNL     1       6.272   7.789  -1.409  0.00  0.00    -0.253 OA
ATOM      4  N   UNL     1       6.760   6.456  -3.090  0.00  0.00    -0.292 N 
ATOM      5  C   UNL     1       6.939   5.108  -3.633  0.00  0.00    +0.119 C 
ATOM      6  C   UNL     1       6.002   4.140  -2.908  0.00  0.00    +0.130 C 
ATOM      7  C   UNL     1       6.251   4.240  -1.399  0.00  0.00    +0.148 C 
ATOM      8  C   UNL     1       5.215   3.392  -0.658  0.00  0.00    +0.056 C 
ATOM      9  C   UNL     1       3.814   3.956  -0.903  0.00  0.00    +0.012 C 
ATOM     10  C   UNL     1       3.474   3.847  -2.393  0.00  0.00    +0.075 C 
ATOM     11  C   UNL     1       4.567   4.527  -3.187  0.00  0.00    +0.143 C 
ATOM     12  O   UNL     1       4.301   5.357  -4.023  0.00  0.00    -0.297 OA
ATOM     13  H   UNL     1       6.935   7.334  -3.730  0.00  0.00    +0.151 HD
ENDROOT
BRANCH   5  14
ATOM     14  C   UNL     1       6.618   5.112  -5.105  0.00  0.00    -0.026 A 
ATOM     15  C   UNL     1       7.032   4.064  -5.906  0.00  0.00    +0.007 A 
ATOM     16  C   UNL     1       6.737   4.067  -7.256  0.00  0.00    +0.020 A 
ATOM     17  C   UNL     1       6.027   5.119  -7.806  0.00  0.00    +0.041 A 
ATOM     18  C   UNL     1       5.612   6.168  -7.005  0.00  0.00    +0.020 A 
ATOM     19  C   UNL     1       5.908   6.164  -5.654  0.00  0.00    +0.007 A 
ATOM     20 CL   UNL     1       5.656   5.124  -9.502  0.00  0.00    -0.084 Cl
ENDBRANCH   5  14
BRANCH   1  22
ATOM     21  C   UNL     1       5.795   4.660   1.240  0.00  0.00    +0.031 C 
ATOM     22  C   UNL     1       5.714   5.933   0.395  0.00  0.00    +0.033 C 
ATOM     23  C   UNL     1       6.639   6.998   0.987  0.00  0.00    +0.031 C 
ATOM     24  C   UNL     1       4.274   6.452   0.393  0.00  0.00    +0.031 C 
ENDBRANCH   1  22
BRANCH   7  25
ATOM     25  O   UNL     1       7.563   3.760  -1.099  0.00  0.00    -0.371 OA
ATOM     26  H   UNL     1       7.840   2.725  -1.347  0.00  0.00    +0.212 HD
ENDBRANCH   7  25
TORSDOF 3
