REMARK  Name = ZINC62474188
REMARK  4 active torsions:
REMARK  status: ('A' for Active; 'I' for Inactive)
REMARK    1  A    between atoms: C_1  and  C_2
REMARK    2  A    between atoms: C_5  and  N_8
REMARK    3  A    between atoms: C_14  and  C_17
REMARK    4  A    between atoms: N_19  and  C_20
REMARK                            x       y       z     vdW  Elec       q    Type
REMARK                         _______ _______ _______ _____ _____    ______ ____
ROOT
ATOM      1  N   UNL     1      -1.354  -2.095   2.450  0.00  0.00    -0.296 N 
ATOM      2  C   UNL     1      -1.235  -2.779   3.606  0.00  0.00    +0.302 C 
ATOM      3  O   UNL     1      -0.635  -3.836   3.627  0.00  0.00    -0.253 OA
ATOM      4  N   UNL     1      -1.782  -2.292   4.737  0.00  0.00    -0.286 N 
ATOM      5  C   UNL     1      -2.612  -1.080   4.705  0.00  0.00    +0.110 C 
ATOM      6  C   UNL     1      -3.958  -1.387   5.368  0.00  0.00    +0.032 C 
ATOM      7  C   UNL     1      -3.716  -1.946   6.772  0.00  0.00    +0.078 C 
ATOM      8  C   UNL     1      -2.918  -3.248   6.673  0.00  0.00    +0.032 C 
ATOM      9  C   UNL     1      -1.565  -2.965   6.024  0.00  0.00    +0.110 C 
ATOM     10  H   UNL     1      -1.894  -1.290   2.417  0.00  0.00    +0.151 HD
ENDROOT
BRANCH   1  15
ATOM     11  C   UNL     1       0.002   1.527   0.019  0.00  0.00    +0.007 C 
ATOM     12  C   UNL     1       0.017  -0.003   0.008  0.00  0.00    -0.014 C 
ATOM     13  C   UNL     1      -1.420  -0.527   0.016  0.00  0.00    +0.005 C 
ATOM     14  C   UNL     1      -1.405  -2.057   0.005  0.00  0.00    +0.022 C 
ATOM     15  C   UNL     1      -0.669  -2.568   1.245  0.00  0.00    +0.074 C 
ATOM     16  C   UNL     1       0.769  -2.044   1.237  0.00  0.00    +0.022 C 
ATOM     17  C   UNL     1       0.754  -0.514   1.248  0.00  0.00    +0.005 C 
ENDBRANCH   1  15
BRANCH   7  18
ATOM     18  C   UNL     1      -5.039  -2.217   7.440  0.00  0.00    +0.216 C 
ATOM     19  O   UNL     1      -6.074  -1.986   6.851  0.00  0.00    -0.276 OA
ATOM     20  N   UNL     1      -5.072  -2.716   8.691  0.00  0.00    -0.312 N 
ATOM     21  H   UNL     1      -4.244  -2.901   9.162  0.00  0.00    +0.149 HD
BRANCH  20  22
ATOM     22  C   UNL     1      -6.359  -2.980   9.341  0.00  0.00    +0.073 C 
ATOM     23  C   UNL     1      -6.872  -1.696   9.997  0.00  0.00    +0.022 C 
ATOM     24  C   UNL     1      -8.215  -1.971  10.675  0.00  0.00    +0.002 C 
ATOM     25  C   UNL     1      -8.035  -3.053  11.742  0.00  0.00    +0.000 C 
ATOM     26  C   UNL     1      -7.522  -4.336  11.087  0.00  0.00    +0.002 C 
ATOM     27  C   UNL     1      -6.179  -4.061  10.408  0.00  0.00    +0.022 C 
ENDBRANCH  20  22
ENDBRANCH   7  18
TORSDOF 3
