REMARK  Name = ZINC06887642
REMARK  5 active torsions:
REMARK  status: ('A' for Active; 'I' for Inactive)
REMARK    1  A    between atoms: C_1  and  O_2
REMARK    2  A    between atoms: O_2  and  C_3
REMARK    3  A    between atoms: C_8  and  N_9
REMARK    4  A    between atoms: N_9  and  S_10
REMARK    5  A    between atoms: S_10  and  C_13
REMARK                            x       y       z     vdW  Elec       q    Type
REMARK                         _______ _______ _______ _____ _____    ______ ____
ROOT
ATOM      1  C   UNL     1      -1.448  -4.124  -2.103  0.00  0.00    +0.109 A 
ATOM      2  C   UNL     1      -1.213  -4.199  -3.469  0.00  0.00    +0.031 A 
ATOM      3  C   UNL     1      -0.523  -3.200  -4.119  0.00  0.00    +0.028 A 
ATOM      4  C   UNL     1      -0.056  -2.103  -3.402  0.00  0.00    +0.047 A 
ATOM      5  C   UNL     1      -0.295  -2.033  -2.018  0.00  0.00    +0.005 A 
ATOM      6  C   UNL     1      -0.998  -3.056  -1.379  0.00  0.00    +0.039 A 
ATOM      7  C   UNL     1       0.316  -0.782  -1.567  0.00  0.00    -0.019 A 
ATOM      8  C   UNL     1       0.856  -0.190  -2.647  0.00  0.00    +0.020 A 
ATOM      9  N   UNL     1       0.647  -0.973  -3.752  0.00  0.00    -0.358 N 
ATOM     10  H   UNL     1       0.950  -0.761  -4.648  0.00  0.00    +0.166 HD
ATOM     11  C   UNL     1       1.577   1.137  -2.637  0.00  0.00    +0.053 C 
ATOM     12  C   UNL     1       2.578   1.169  -1.480  0.00  0.00    +0.006 C 
ATOM     13  C   UNL     1       1.894   1.703  -0.225  0.00  0.00    +0.001 C 
ATOM     14  C   UNL     1       0.429   1.277  -0.191  0.00  0.00    +0.005 C 
ATOM     15  C   UNL     1       0.345  -0.251  -0.158  0.00  0.00    +0.037 C 
ENDROOT
BRANCH   1  16
ATOM     16  S   UNL     1      -2.334  -5.416  -1.296  0.00  0.00    +0.072 S 
ATOM     17  O   UNL     1      -2.179  -6.578  -2.099  0.00  0.00    -0.150 OA
ATOM     18  O   UNL     1      -1.950  -5.379   0.072  0.00  0.00    -0.150 OA
BRANCH  16  19
ATOM     19  N   UNL     1      -3.939  -5.016  -1.348  0.00  0.00    -0.213 N 
ATOM     20  H   UNL     1      -4.436  -4.894  -0.523  0.00  0.00    +0.174 HD
BRANCH  19  26
ATOM     21  C   UNL     1      -5.566  -3.878  -2.732  0.00  0.00    +0.142 A 
ATOM     22  C   UNL     1      -6.197  -3.721  -3.955  0.00  0.00    +0.047 A 
ATOM     23  C   UNL     1      -5.848  -4.528  -5.023  0.00  0.00    +0.004 A 
ATOM     24  C   UNL     1      -4.870  -5.494  -4.874  0.00  0.00    +0.002 A 
ATOM     25  C   UNL     1      -4.232  -5.654  -3.658  0.00  0.00    +0.028 A 
ATOM     26  C   UNL     1      -4.580  -4.852  -2.581  0.00  0.00    +0.090 A 
BRANCH  21  28
ATOM     27  C   UNL     1      -6.925  -2.108  -1.910  0.00  0.00    +0.277 C 
ATOM     28  O   UNL     1      -5.907  -3.085  -1.682  0.00  0.00    -0.493 OA
ENDBRANCH  21  28
ENDBRANCH  19  26
ENDBRANCH  16  19
ENDBRANCH   1  16
TORSDOF 4
