REMARK  Name = ZINC09189912
REMARK  8 active torsions:
REMARK  status: ('A' for Active; 'I' for Inactive)
REMARK    1  A    between atoms: C_1  and  C_2
REMARK    2  A    between atoms: C_2  and  O_3
REMARK    3  A    between atoms: O_3  and  C_4
REMARK    4  A    between atoms: C_4  and  C_6
REMARK    5  A    between atoms: C_7  and  N_36
REMARK    6  A    between atoms: C_11  and  C_35
REMARK    7  A    between atoms: N_24  and  C_27
REMARK    8  A    between atoms: C_27  and  C_28
REMARK                            x       y       z     vdW  Elec       q    Type
REMARK                         _______ _______ _______ _____ _____    ______ ____
ROOT
ATOM      1  C   UNL     1      -1.205  -0.720  -0.015  0.00  0.00    +0.117 C 
ATOM      2  C   UNL     1      -1.177  -2.075  -0.106  0.00  0.00    +0.196 C 
ATOM      3  O   UNL     1      -2.299  -2.812  -0.072  0.00  0.00    -0.441 OA
ATOM      4  C   UNL     1      -3.495  -2.238  -0.323  0.00  0.00    +0.142 A 
ATOM      5  C   UNL     1      -4.602  -3.041  -0.667  0.00  0.00    +0.067 A 
ATOM      6  C   UNL     1      -5.797  -2.465  -0.914  0.00  0.00    +0.019 A 
ATOM      7  N   UNL     1      -5.952  -1.117  -0.837  0.00  0.00    -0.326 N 
ATOM      8  H   UNL     1      -6.821  -0.725  -1.018  0.00  0.00    +0.169 HD
ATOM      9  C   UNL     1      -4.919  -0.318  -0.513  0.00  0.00    +0.257 A 
ATOM     10  O   UNL     1      -5.079   0.891  -0.451  0.00  0.00    -0.267 OA
ATOM     11  C   UNL     1      -3.660  -0.871  -0.248  0.00  0.00    +0.083 A 
ATOM     12  C   UNL     1      -2.505   0.019   0.115  0.00  0.00    +0.144 C 
ATOM     13  C   UNL     1      -2.673   0.572   1.496  0.00  0.00    -0.002 A 
ATOM     14  C   UNL     1      -2.755  -0.049   2.724  0.00  0.00    +0.007 A 
ATOM     15  C   UNL     1      -2.915   0.770   3.836  0.00  0.00    +0.000 A 
ATOM     16  C   UNL     1      -2.990   2.143   3.712  0.00  0.00    +0.002 A 
ATOM     17  C   UNL     1      -2.908   2.775   2.481  0.00  0.00    +0.024 A 
ATOM     18  C   UNL     1      -2.747   1.963   1.356  0.00  0.00    +0.041 A 
ATOM     19  N   UNL     1      -2.639   2.319   0.024  0.00  0.00    -0.265 N 
ATOM     20  C   UNL     1      -2.496   1.243  -0.778  0.00  0.00    +0.240 C 
ATOM     21  O   UNL     1      -2.381   1.254  -1.985  0.00  0.00    -0.274 OA
ATOM     22  C   UNL     1      -6.977  -3.329  -1.281  0.00  0.00    +0.063 C 
ENDROOT
BRANCH   2  23
ATOM     23  N   UNL     1       0.030  -2.708  -0.232  0.00  0.00    -0.329 N 
ATOM     24  H   UNL     1       0.854  -2.200  -0.165  0.00  0.00    +0.145 HD
ATOM     25  H   UNL     1       0.063  -3.665  -0.389  0.00  0.00    +0.145 HD
ENDBRANCH   2  23
BRANCH   1  26
ATOM     26  C   UNL     1      -0.001  -0.000  -0.047  0.00  0.00    +0.342 C 
ATOM     27  O   UNL     1       0.485   0.420   0.988  0.00  0.00    -0.245 OA
BRANCH  26  28
ATOM     28  O   UNL     1       0.619   0.226  -1.225  0.00  0.00    -0.462 OA
BRANCH  28  30
ATOM     29  C   UNL     1       2.392   1.122  -2.602  0.00  0.00    +0.048 C 
ATOM     30  C   UNL     1       1.841   0.966  -1.183  0.00  0.00    +0.229 C 
ENDBRANCH  28  30
ENDBRANCH  26  28
ENDBRANCH   1  26
BRANCH  19  31
ATOM     31  C   UNL     1      -2.677   3.701  -0.460  0.00  0.00    +0.148 C 
BRANCH  31  32
ATOM     32  C   UNL     1      -4.102   4.088  -0.763  0.00  0.00    -0.030 A 
ATOM     33  C   UNL     1      -4.620   3.881  -2.027  0.00  0.00    +0.006 A 
ATOM     34  C   UNL     1      -5.928   4.231  -2.304  0.00  0.00    +0.020 A 
ATOM     35  C   UNL     1      -6.715   4.799  -1.318  0.00  0.00    +0.041 A 
ATOM     36  C   UNL     1      -6.194   5.011  -0.054  0.00  0.00    +0.020 A 
ATOM     37  C   UNL     1      -4.888   4.656   0.223  0.00  0.00    +0.006 A 
ATOM     38 CL   UNL     1      -8.357   5.244  -1.667  0.00  0.00    -0.084 Cl
ENDBRANCH  31  32
ENDBRANCH  19  31
TORSDOF 6
