REMARK  Name = ZINC02451431
REMARK  7 active torsions:
REMARK  status: ('A' for Active; 'I' for Inactive)
REMARK    1  A    between atoms: C_1  and  C_2
REMARK    2  A    between atoms: C_5  and  S_8
REMARK    3  A    between atoms: S_8  and  N_11
REMARK    4  A    between atoms: N_11  and  C_12
REMARK    5  A    between atoms: C_12  and  C_14
REMARK    6  A    between atoms: C_12  and  C_20
REMARK    7  A    between atoms: C_25  and  O_33
REMARK                            x       y       z     vdW  Elec       q    Type
REMARK                         _______ _______ _______ _____ _____    ______ ____
ROOT
ATOM      1  C   UNL     1       2.573  -4.674   1.103  0.00  0.00    +0.192 C 
ENDROOT
BRANCH   1   2
ATOM      2  C   UNL     1       3.928  -4.688   0.442  0.00  0.00    +0.239 C 
ATOM      3  O   UNL     1       4.045  -5.104  -0.691  0.00  0.00    -0.273 OA
ATOM      4  N   UNL     1       5.008  -4.239   1.111  0.00  0.00    -0.299 N 
ATOM      5  C   UNL     1       4.906  -3.844   2.522  0.00  0.00    +0.110 C 
ATOM      6  C   UNL     1       5.453  -2.421   2.675  0.00  0.00    +0.054 C 
ATOM      7  C   UNL     1       6.875  -2.361   2.109  0.00  0.00    +0.072 C 
ATOM      8  C   UNL     1       7.429  -0.946   2.292  0.00  0.00    +0.035 C 
ATOM      9  C   UNL     1       8.847  -0.874   1.724  0.00  0.00    +0.003 C 
ATOM     10  C   UNL     1       8.816  -1.219   0.234  0.00  0.00    +0.001 C 
ATOM     11  C   UNL     1       8.267  -2.635   0.051  0.00  0.00    +0.008 C 
ATOM     12  C   UNL     1       6.848  -2.711   0.620  0.00  0.00    +0.038 C 
ATOM     13  C   UNL     1       6.314  -4.141   0.445  0.00  0.00    +0.114 C 
BRANCH   7  14
ATOM     14  O   UNL     1       7.705  -3.293   2.804  0.00  0.00    -0.388 OA
ATOM     15  H   UNL     1       7.769  -3.130   3.755  0.00  0.00    +0.210 HD
ENDBRANCH   7  14
ENDBRANCH   1   2
BRANCH   1  16
ATOM     16  C   UNL     1       2.388  -5.942   1.897  0.00  0.00    -0.020 A 
ATOM     17  C   UNL     1       2.125  -7.133   1.246  0.00  0.00    +0.006 A 
ATOM     18  C   UNL     1       1.955  -8.295   1.973  0.00  0.00    +0.000 A 
ATOM     19  C   UNL     1       2.049  -8.268   3.352  0.00  0.00    +0.000 A 
ATOM     20  C   UNL     1       2.312  -7.077   4.003  0.00  0.00    +0.000 A 
ATOM     21  C   UNL     1       2.487  -5.915   3.275  0.00  0.00    +0.006 A 
ENDBRANCH   1  16
BRANCH   1  22
ATOM     22  N   UNL     1       1.530  -4.583   0.078  0.00  0.00    -0.174 NA
ATOM     23  H   UNL     1       1.651  -5.025  -0.776  0.00  0.00    +0.149 HD
BRANCH  22  24
ATOM     24  S   UNL     1       0.147  -3.724   0.379  0.00  0.00    +0.059 S 
ATOM     25  O   UNL     1      -0.332  -4.155   1.646  0.00  0.00    -0.153 OA
ATOM     26  O   UNL     1      -0.643  -3.801  -0.800  0.00  0.00    -0.153 OA
BRANCH  24  31
ATOM     27  C   UNL     1       1.736   2.062   1.016  0.00  0.00    +0.044 C 
ATOM     28  C   UNL     1       1.339   0.617   0.857  0.00  0.00    -0.050 A 
ATOM     29  C   UNL     1       1.008   0.124  -0.392  0.00  0.00    +0.005 A 
ATOM     30  C   UNL     1       0.645  -1.202  -0.538  0.00  0.00    +0.029 A 
ATOM     31  C   UNL     1       0.612  -2.035   0.565  0.00  0.00    +0.105 A 
ATOM     32  C   UNL     1       0.944  -1.542   1.813  0.00  0.00    +0.029 A 
ATOM     33  C   UNL     1       1.312  -0.218   1.958  0.00  0.00    +0.005 A 
ENDBRANCH  24  31
ENDBRANCH  22  24
ENDBRANCH   1  22
TORSDOF 6
