REMARK  Name = ZINC43150390
REMARK  4 active torsions:
REMARK  status: ('A' for Active; 'I' for Inactive)
REMARK    1  A    between atoms: C_1  and  C_2
REMARK    2  A    between atoms: C_4  and  C_22
REMARK    3  A    between atoms: C_5  and  N_9
REMARK    4  A    between atoms: C_6  and  C_8
REMARK                            x       y       z     vdW  Elec       q    Type
REMARK                         _______ _______ _______ _____ _____    ______ ____
ROOT
ATOM      1  N   UNL     1      -0.197  -4.184  -0.196  0.00  0.00    -0.269 N 
ATOM      2  C   UNL     1      -0.123  -4.899   0.944  0.00  0.00    +0.306 C 
ATOM      3  O   UNL     1       0.106  -4.338   1.998  0.00  0.00    -0.252 OA
ATOM      4  N   UNL     1      -0.302  -6.234   0.916  0.00  0.00    -0.285 N 
ATOM      5  C   UNL     1      -0.465  -6.941  -0.362  0.00  0.00    +0.114 C 
ATOM      6  C   UNL     1      -1.755  -7.765  -0.308  0.00  0.00    +0.084 C 
ATOM      7  C   UNL     1      -1.723  -8.678   0.919  0.00  0.00    +0.173 C 
ATOM      8  C   UNL     1      -1.630  -7.835   2.193  0.00  0.00    +0.084 C 
ATOM      9  C   UNL     1      -0.333  -7.012   2.162  0.00  0.00    +0.114 C 
ATOM     10  O   UNL     1      -2.913  -9.475   0.957  0.00  0.00    -0.346 OA
ATOM     11  C   UNL     1      -2.504 -10.857   0.912  0.00  0.00    +0.191 C 
ATOM     12  C   UNL     1      -1.035 -10.803   1.401  0.00  0.00    +0.191 C 
ATOM     13  O   UNL     1      -0.583  -9.548   0.838  0.00  0.00    -0.346 OA
ATOM     14  H   UNL     1      -0.299  -4.639  -1.047  0.00  0.00    +0.156 HD
ENDROOT
BRANCH   1  19
ATOM     15  C   UNL     1       0.084   1.479  -0.022  0.00  0.00    +0.044 C 
ATOM     16  C   UNL     1       0.009  -0.025  -0.068  0.00  0.00    -0.050 A 
ATOM     17  C   UNL     1       1.042  -0.784   0.452  0.00  0.00    +0.008 A 
ATOM     18  C   UNL     1       0.976  -2.163   0.411  0.00  0.00    -0.029 A 
ATOM     19  C   UNL     1      -0.128  -2.787  -0.153  0.00  0.00    +0.041 A 
ATOM     20  C   UNL     1      -1.163  -2.023  -0.674  0.00  0.00    -0.029 A 
ATOM     21  C   UNL     1      -1.094  -0.644  -0.625  0.00  0.00    +0.008 A 
ATOM     22  C   UNL     1      -2.364  -2.697  -1.288  0.00  0.00    +0.045 C 
ATOM     23  C   UNL     1       2.103  -2.989   0.978  0.00  0.00    +0.045 C 
ENDBRANCH   1  19
TORSDOF 1
