REMARK  Name = ZINC20882724
REMARK  7 active torsions:
REMARK  status: ('A' for Active; 'I' for Inactive)
REMARK    1  A    between atoms: C_1  and  C_2
REMARK    2  A    between atoms: C_2  and  O_3
REMARK    3  A    between atoms: O_3  and  C_4
REMARK    4  A    between atoms: C_7  and  C_10
REMARK    5  A    between atoms: C_15  and  C_25
REMARK    6  A    between atoms: C_30  and  O_31
REMARK    7  A    between atoms: O_31  and  C_32
REMARK                            x       y       z     vdW  Elec       q    Type
REMARK                         _______ _______ _______ _____ _____    ______ ____
ROOT
ATOM      1  C   UNL     1      -5.294  -0.177  -1.527  0.00  0.00    +0.032 C 
ATOM      2  C   UNL     1      -3.828  -0.259  -1.106  0.00  0.00    +0.059 C 
ATOM      3  C   UNL     1      -3.303   1.132  -0.790  0.00  0.00    +0.017 C 
ATOM      4  C   UNL     1      -3.762   2.201  -1.463  0.00  0.00    +0.037 C 
ATOM      5  C   UNL     1      -3.310   3.629  -1.272  0.00  0.00    +0.139 C 
ATOM      6  N   UNL     1      -2.496   3.850  -0.086  0.00  0.00    -0.331 N 
ATOM      7  C   UNL     1      -1.237   3.262   0.036  0.00  0.00    +0.049 A 
ATOM      8  C   UNL     1      -0.079   4.023   0.042  0.00  0.00    +0.025 A 
ATOM      9  C   UNL     1       1.151   3.388   0.079  0.00  0.00    +0.002 A 
ATOM     10  C   UNL     1       1.224   2.007   0.108  0.00  0.00    +0.002 A 
ATOM     11  C   UNL     1       0.068   1.245   0.119  0.00  0.00    +0.025 A 
ATOM     12  C   UNL     1      -1.163   1.879   0.094  0.00  0.00    +0.052 A 
ATOM     13  N   UNL     1      -2.359   1.178   0.183  0.00  0.00    -0.316 N 
ATOM     14  C   UNL     1      -4.764   2.045  -2.449  0.00  0.00    +0.163 C 
ATOM     15  O   UNL     1      -5.146   3.026  -3.056  0.00  0.00    -0.292 OA
ATOM     16  C   UNL     1      -5.373   0.714  -2.773  0.00  0.00    +0.088 C 
ATOM     17  H   UNL     1      -2.871   4.487   0.728  0.00  0.00    +0.147 HD
ATOM     18  H   UNL     1      -2.515   0.634   1.127  0.00  0.00    +0.152 HD
ENDROOT
BRANCH   1  22
ATOM     19  C   UNL     1      -6.758  -4.086  -2.443  0.00  0.00    +0.121 A 
ATOM     20  C   UNL     1      -7.350  -3.341  -1.433  0.00  0.00    +0.046 A 
ATOM     21  C   UNL     1      -6.875  -2.078  -1.139  0.00  0.00    +0.007 A 
ATOM     22  C   UNL     1      -5.811  -1.556  -1.850  0.00  0.00    -0.043 A 
ATOM     23  C   UNL     1      -5.223  -2.294  -2.861  0.00  0.00    +0.007 A 
ATOM     24  C   UNL     1      -5.690  -3.560  -3.155  0.00  0.00    +0.046 A 
BRANCH  19  25
ATOM     25  O   UNL     1      -7.224  -5.329  -2.734  0.00  0.00    -0.492 OA
BRANCH  25  27
ATOM     26  C   UNL     1      -7.224  -7.408  -3.966  0.00  0.00    +0.048 C 
ATOM     27  C   UNL     1      -6.566  -6.039  -3.785  0.00  0.00    +0.225 C 
ENDBRANCH  25  27
ENDBRANCH  19  25
ENDBRANCH   1  22
BRANCH   5  28
ATOM     28  C   UNL     1      -2.516   4.044  -2.484  0.00  0.00    +0.019 A 
ATOM     29  C   UNL     1      -2.015   3.086  -3.344  0.00  0.00    +0.009 A 
ATOM     30  C   UNL     1      -1.287   3.466  -4.456  0.00  0.00    +0.001 A 
ATOM     31  C   UNL     1      -1.057   4.806  -4.710  0.00  0.00    +0.004 A 
ATOM     32  C   UNL     1      -1.556   5.768  -3.853  0.00  0.00    +0.046 A 
ATOM     33  C   UNL     1      -2.291   5.389  -2.739  0.00  0.00    +0.125 A 
BRANCH  33  34
ATOM     34  O   UNL     1      -2.787   6.333  -1.898  0.00  0.00    -0.495 OA
ATOM     35  C   UNL     1      -2.517   7.698  -2.223  0.00  0.00    +0.277 C 
ENDBRANCH  33  34
ENDBRANCH   5  28
TORSDOF 5
