REMARK  Name = ZINC59770591
REMARK  1 active torsions:
REMARK  status: ('A' for Active; 'I' for Inactive)
REMARK    1  A    between atoms: C_11  and  C_13
REMARK                            x       y       z     vdW  Elec       q    Type
REMARK                         _______ _______ _______ _____ _____    ______ ____
ROOT
ATOM      1  C   UNL     1      -0.046   1.279  -0.042  0.00  0.00    +0.000 A 
ATOM      2  C   UNL     1       1.128   1.974   0.187  0.00  0.00    +0.002 A 
ATOM      3  C   UNL     1       2.341   1.319   0.109  0.00  0.00    +0.024 A 
ATOM      4  C   UNL     1       2.381  -0.037  -0.197  0.00  0.00    +0.040 A 
ATOM      5  C   UNL     1       1.204  -0.733  -0.422  0.00  0.00    -0.026 A 
ATOM      6  C   UNL     1      -0.009  -0.068  -0.345  0.00  0.00    +0.005 A 
ATOM      7  C   UNL     1       1.209  -2.204  -0.746  0.00  0.00    +0.038 C 
ATOM      8  C   UNL     1       2.578  -2.631  -1.274  0.00  0.00    +0.024 C 
ATOM      9  C   UNL     1       3.659  -2.150  -0.298  0.00  0.00    +0.114 C 
ATOM     10  N   UNL     1       3.622  -0.681  -0.275  0.00  0.00    -0.263 N 
ATOM     11  C   UNL     1       4.763   0.034  -0.329  0.00  0.00    +0.306 C 
ATOM     12  O   UNL     1       4.717   1.241  -0.450  0.00  0.00    -0.265 OA
ENDROOT
BRANCH  11  13
ATOM     13  C   UNL     1       6.082  -0.658  -0.240  0.00  0.00    +0.305 C 
ATOM     14  O   UNL     1       6.129  -1.847  -0.000  0.00  0.00    -0.265 OA
ATOM     15  N   UNL     1       7.221   0.038  -0.426  0.00  0.00    -0.255 N 
ATOM     16  C   UNL     1       8.449  -0.606  -0.343  0.00  0.00    +0.188 A 
ATOM     17  N   UNL     1       8.730  -1.879  -0.101  0.00  0.00    -0.126 NA
ATOM     18  N   UNL     1       9.917  -2.302  -0.061  0.00  0.00    -0.148 NA
ATOM     19  C   UNL     1      10.952  -1.509  -0.256  0.00  0.00    +0.183 A 
ATOM     20  S   UNL     1      10.106   0.044  -0.539  0.00  0.00    -0.039 S 
ATOM     21  H   UNL     1       7.184   0.988  -0.617  0.00  0.00    +0.157 HD
ENDBRANCH  11  13
TORSDOF 1
