REMARK  Name = ZINC66118968
REMARK  6 active torsions:
REMARK  status: ('A' for Active; 'I' for Inactive)
REMARK    1  A    between atoms: C_3  and  C_6
REMARK    2  A    between atoms: C_6  and  C_8
REMARK    3  A    between atoms: C_6  and  N_25
REMARK    4  A    between atoms: C_8  and  N_9
REMARK    5  A    between atoms: C_15  and  N_18
REMARK    6  A    between atoms: C_19  and  C_21
REMARK                            x       y       z     vdW  Elec       q    Type
REMARK                         _______ _______ _______ _____ _____    ______ ____
ROOT
ATOM      1  N   UNL     1       5.655   0.338  -1.275  0.00  0.00    -0.300 N 
ATOM      2  C   UNL     1       6.402   0.208  -2.389  0.00  0.00    +0.302 C 
ATOM      3  O   UNL     1       5.864   0.014  -3.462  0.00  0.00    -0.253 OA
ATOM      4  N   UNL     1       7.745   0.292  -2.314  0.00  0.00    -0.286 N 
ATOM      5  C   UNL     1       8.566   0.269  -3.533  0.00  0.00    +0.111 C 
ATOM      6  C   UNL     1       9.623  -0.832  -3.395  0.00  0.00    +0.041 C 
ATOM      7  C   UNL     1      10.418  -0.611  -2.106  0.00  0.00    +0.076 C 
ATOM      8  C   UNL     1       9.475  -0.692  -0.903  0.00  0.00    +0.041 C 
ATOM      9  C   UNL     1       8.416   0.415  -1.013  0.00  0.00    +0.111 C 
ATOM     10  H   UNL     1       6.086   0.421  -0.409  0.00  0.00    +0.150 HD
ENDROOT
BRANCH   7  11
ATOM     11  N   UNL     1      11.451  -1.642  -1.987  0.00  0.00    -0.312 N 
ATOM     12  C   UNL     1      12.562  -1.403  -1.262  0.00  0.00    +0.216 C 
ATOM     13  O   UNL     1      12.706  -0.333  -0.709  0.00  0.00    -0.276 OA
ATOM     14  H   UNL     1      11.336  -2.497  -2.430  0.00  0.00    +0.149 HD
BRANCH  12  15
ATOM     15  C   UNL     1      13.625  -2.463  -1.140  0.00  0.00    +0.075 C 
ATOM     16  C   UNL     1      14.594  -2.506  -2.334  0.00  0.00    +0.013 C 
ATOM     17  C   UNL     1      15.452  -1.482  -1.573  0.00  0.00    +0.001 C 
ATOM     18  C   UNL     1      14.827  -2.035  -0.281  0.00  0.00    +0.013 C 
ENDBRANCH  12  15
ENDBRANCH   7  11
BRANCH   1  19
ATOM     19  C   UNL     1       4.194   0.355  -1.370  0.00  0.00    +0.098 C 
BRANCH  19  20
ATOM     20  C   UNL     1       3.596   0.640   0.009  0.00  0.00    +0.016 C 
BRANCH  20  21
ATOM     21  N   UNL     1       2.132   0.550  -0.063  0.00  0.00    +0.387 N 
ATOM     22  C   UNL     1       1.718  -0.854  -0.317  0.00  0.00    -0.078 C 
ATOM     23  C   UNL     1       0.253  -0.888   0.186  0.00  0.00    -0.020 C 
ATOM     24  C   UNL     1       0.295   0.023   1.435  0.00  0.00    -0.020 C 
ATOM     25  C   UNL     1       1.533   0.917   1.238  0.00  0.00    -0.078 C 
ATOM     26  H   UNL     1       1.781   1.154  -0.791  0.00  0.00    -0.081 HD
ENDBRANCH  20  21
BRANCH  20  29
ATOM     27  C   UNL     1       5.006   3.731   1.438  0.00  0.00    +0.041 A 
ATOM     28  C   UNL     1       4.985   2.324   1.309  0.00  0.00    +0.043 A 
ATOM     29  C   UNL     1       3.992   2.026   0.452  0.00  0.00    +0.093 A 
ATOM     30  O   UNL     1       3.414   3.172   0.057  0.00  0.00    -0.469 OA
ATOM     31  C   UNL     1       4.025   4.209   0.651  0.00  0.00    +0.195 A 
ENDBRANCH  20  29
ENDBRANCH  19  20
ENDBRANCH   1  19
TORSDOF 6
