REMARK  Name = ZINC40727003
REMARK  6 active torsions:
REMARK  status: ('A' for Active; 'I' for Inactive)
REMARK    1  A    between atoms: C_4  and  N_7
REMARK    2  A    between atoms: C_14  and  N_33
REMARK    3  A    between atoms: C_15  and  N_19
REMARK    4  A    between atoms: N_19  and  N_20
REMARK    5  A    between atoms: N_20  and  C_21
REMARK    6  A    between atoms: N_20  and  C_27
REMARK                            x       y       z     vdW  Elec       q    Type
REMARK                         _______ _______ _______ _____ _____    ______ ____
ROOT
ATOM      1  N   UNL     1       3.275  -0.550   2.182  0.00  0.00    -0.327 N 
ATOM      2  C   UNL     1       3.994  -1.009   3.380  0.00  0.00    +0.124 C 
ATOM      3  C   UNL     1       4.464  -2.450   3.147  0.00  0.00    +0.125 C 
ATOM      4  N   UNL     1       5.142  -2.518   1.844  0.00  0.00    -0.311 N 
ATOM      5  C   UNL     1       4.423  -2.059   0.647  0.00  0.00    +0.125 C 
ATOM      6  C   UNL     1       3.951  -0.624   0.879  0.00  0.00    +0.124 C 
ATOM      7  C   UNL     1       6.439  -3.007   1.747  0.00  0.00    +0.147 A 
ATOM      8  C   UNL     1       6.670  -4.359   1.488  0.00  0.00    +0.105 A 
ATOM      9  C   UNL     1       7.992  -4.797   1.400  0.00  0.00    +0.139 A 
ATOM     10  N   UNL     1       8.976  -3.916   1.565  0.00  0.00    -0.332 N 
ATOM     11  C   UNL     1       8.715  -2.648   1.808  0.00  0.00    +0.200 A 
ATOM     12  N   UNL     1       7.481  -2.192   1.893  0.00  0.00    -0.221 NA
ATOM     13  H   UNL     1       9.898  -4.212   1.506  0.00  0.00    +0.168 HD
ENDROOT
BRANCH   1  17
ATOM     14  C   UNL     1      -0.612   0.913   2.475  0.00  0.00    +0.000 A 
ATOM     15  C   UNL     1       0.056   0.967   1.265  0.00  0.00    +0.002 A 
ATOM     16  C   UNL     1       1.345   0.482   1.165  0.00  0.00    +0.023 A 
ATOM     17  C   UNL     1       1.971  -0.059   2.281  0.00  0.00    +0.030 A 
ATOM     18  C   UNL     1       1.297  -0.111   3.494  0.00  0.00    +0.023 A 
ATOM     19  C   UNL     1       0.008   0.375   3.588  0.00  0.00    +0.002 A 
ENDBRANCH   1  17
BRANCH   8  20
ATOM     20  N   UNL     1       5.600  -5.254   1.321  0.00  0.00    -0.353 N 
ATOM     21  H   UNL     1       4.689  -4.921   1.291  0.00  0.00    +0.143 HD
ATOM     22  H   UNL     1       5.772  -6.205   1.235  0.00  0.00    +0.143 HD
ENDBRANCH   8  20
BRANCH   9  23
ATOM     23  N   UNL     1       8.277  -6.133   1.144  0.00  0.00    -0.243 N 
ATOM     24  H   UNL     1       7.554  -6.769   1.025  0.00  0.00    +0.172 HD
BRANCH  23  25
ATOM     25  N   UNL     1       9.608  -6.562   1.058  0.00  0.00    -0.221 N 
BRANCH  25  26
ATOM     26  C   UNL     1      10.178  -7.286   2.107  0.00  0.00    +0.053 A 
ATOM     27  C   UNL     1      10.028  -6.849   3.418  0.00  0.00    +0.025 A 
ATOM     28  C   UNL     1      10.593  -7.568   4.453  0.00  0.00    +0.002 A 
ATOM     29  C   UNL     1      11.307  -8.722   4.186  0.00  0.00    +0.000 A 
ATOM     30  C   UNL     1      11.459  -9.160   2.883  0.00  0.00    +0.002 A 
ATOM     31  C   UNL     1      10.891  -8.449   1.844  0.00  0.00    +0.025 A 
ENDBRANCH  25  26
BRANCH  25  32
ATOM     32  C   UNL     1      10.365  -6.264  -0.078  0.00  0.00    +0.053 A 
ATOM     33  C   UNL     1       9.742  -6.106  -1.309  0.00  0.00    +0.025 A 
ATOM     34  C   UNL     1      10.493  -5.812  -2.430  0.00  0.00    +0.002 A 
ATOM     35  C   UNL     1      11.866  -5.675  -2.327  0.00  0.00    +0.000 A 
ATOM     36  C   UNL     1      12.490  -5.831  -1.103  0.00  0.00    +0.002 A 
ATOM     37  C   UNL     1      11.743  -6.120   0.023  0.00  0.00    +0.025 A 
ENDBRANCH  25  32
ENDBRANCH  23  25
ENDBRANCH   9  23
TORSDOF 6
