REMARK  Name = ZINC36260449
REMARK  7 active torsions:
REMARK  status: ('A' for Active; 'I' for Inactive)
REMARK    1  A    between atoms: C_1  and  C_2
REMARK    2  A    between atoms: C_2  and  C_3
REMARK    3  A    between atoms: N_7  and  C_16
REMARK    4  A    between atoms: C_10  and  O_15
REMARK    5  A    between atoms: C_16  and  C_17
REMARK    6  A    between atoms: C_18  and  C_23
REMARK    7  A    between atoms: C_21  and  C_22
REMARK                            x       y       z     vdW  Elec       q    Type
REMARK                         _______ _______ _______ _____ _____    ______ ____
ROOT
ATOM      1  C   UNL     1      -1.846  -0.417   0.415  0.00  0.00    +0.259 C 
ATOM      2  C   UNL     1      -1.791  -1.902   0.158  0.00  0.00    +0.261 C 
ATOM      3  O   UNL     1      -2.115  -2.344  -0.924  0.00  0.00    -0.271 OA
ATOM      4  N   UNL     1      -1.381  -2.736   1.136  0.00  0.00    -0.261 N 
ATOM      5  C   UNL     1      -1.133  -2.221   2.415  0.00  0.00    +0.082 A 
ATOM      6  C   UNL     1      -0.498  -2.995   3.374  0.00  0.00    +0.072 A 
ATOM      7  C   UNL     1      -0.247  -2.466   4.631  0.00  0.00    +0.119 A 
ATOM      8  C   UNL     1      -0.631  -1.166   4.928  0.00  0.00    +0.049 A 
ATOM      9  C   UNL     1      -1.268  -0.395   3.974  0.00  0.00    +0.051 A 
ATOM     10  C   UNL     1      -1.526  -0.920   2.719  0.00  0.00    +0.143 A 
ATOM     11  O   UNL     1      -2.181  -0.180   1.784  0.00  0.00    -0.478 OA
ENDROOT
BRANCH   1  13
ATOM     12  C   UNL     1      -0.569   1.724   0.250  0.00  0.00    +0.008 C 
ATOM     13  C   UNL     1      -0.481   0.203   0.111  0.00  0.00    +0.051 C 
ENDBRANCH   1  13
BRANCH   7  14
ATOM     14  O   UNL     1       0.374  -3.223   5.574  0.00  0.00    -0.507 OA
ATOM     15  H   UNL     1       1.338  -3.147   5.567  0.00  0.00    +0.292 HD
ENDBRANCH   7  14
BRANCH   4  16
ATOM     16  C   UNL     1      -1.198  -4.164   0.863  0.00  0.00    +0.154 C 
BRANCH  16  17
ATOM     17  C   UNL     1      -2.522  -4.873   0.985  0.00  0.00    +0.035 A 
ATOM     18  C   UNL     1      -3.342  -5.280  -0.083  0.00  0.00    +0.085 A 
ATOM     19  N   UNL     1      -4.399  -5.857   0.416  0.00  0.00    -0.083 NA
ATOM     20  O   UNL     1      -4.282  -5.834   1.827  0.00  0.00    -0.359 OA
ATOM     21  C   UNL     1      -3.124  -5.232   2.135  0.00  0.00    +0.139 A 
ATOM     22  C   UNL     1      -2.591  -4.995   3.525  0.00  0.00    +0.089 C 
ATOM     23  C   UNL     1      -3.050  -5.083  -1.548  0.00  0.00    +0.069 C 
ENDBRANCH  16  17
ENDBRANCH   4  16
TORSDOF 4
