REMARK  Name = ZINC60466348
REMARK  5 active torsions:
REMARK  status: ('A' for Active; 'I' for Inactive)
REMARK    1  A    between atoms: C_3  and  C_6
REMARK    2  A    between atoms: C_8  and  C_22
REMARK    3  A    between atoms: C_11  and  C_13
REMARK    4  A    between atoms: C_13  and  N_14
REMARK    5  A    between atoms: C_18  and  C_19
REMARK                            x       y       z     vdW  Elec       q    Type
REMARK                         _______ _______ _______ _____ _____    ______ ____
ROOT
ATOM      1  C   UNL     1       3.761   1.845  -0.024  0.00  0.00    +0.143 C 
ATOM      2  C   UNL     1       4.378   1.699  -1.429  0.00  0.00    +0.088 C 
ATOM      3  C   UNL     1       5.549   0.766  -1.218  0.00  0.00    +0.075 C 
ATOM      4  N   UNL     1       5.614   0.432   0.028  0.00  0.00    -0.180 NA
ATOM      5  N   UNL     1       4.620   1.002   0.821  0.00  0.00    -0.186 N 
ATOM      6  C   UNL     1       4.471   0.812   2.147  0.00  0.00    +0.219 C 
ATOM      7  O   UNL     1       3.566   1.361   2.740  0.00  0.00    -0.276 OA
ENDROOT
BRANCH   1  10
ATOM      8  C   UNL     1      -0.016   1.351   0.009  0.00  0.00    +0.008 A 
ATOM      9  C   UNL     1       1.183   2.038   0.002  0.00  0.00    +0.013 A 
ATOM     10  C   UNL     1       2.343   1.336  -0.013  0.00  0.00    +0.013 A 
ATOM     11  S   UNL     1       1.754  -0.349  -0.017  0.00  0.00    -0.100 S 
ATOM     12  C   UNL     1       0.002  -0.004   0.002  0.00  0.00    +0.045 A 
ENDBRANCH   1  10
BRANCH   3  13
ATOM     13  C   UNL     1       6.468   0.309  -2.265  0.00  0.00    +0.035 A 
ATOM     14  C   UNL     1       7.554  -0.542  -2.163  0.00  0.00    +0.017 A 
ATOM     15  C   UNL     1       8.273  -0.825  -3.302  0.00  0.00    +0.008 A 
ATOM     16  C   UNL     1       7.897  -0.264  -4.481  0.00  0.00    +0.046 A 
ATOM     17  S   UNL     1       6.473   0.701  -4.007  0.00  0.00    -0.095 S 
ENDBRANCH   3  13
BRANCH   6  18
ATOM     18  C   UNL     1       5.428  -0.082   2.893  0.00  0.00    +0.022 C 
BRANCH  18  19
ATOM     19  N   UNL     1       5.054  -0.124   4.313  0.00  0.00    +0.393 N 
ATOM     20  C   UNL     1       5.246   1.212   4.918  0.00  0.00    -0.077 C 
ATOM     21  C   UNL     1       5.743   0.926   6.357  0.00  0.00    -0.020 C 
ATOM     22  C   UNL     1       6.649  -0.313   6.135  0.00  0.00    -0.008 C 
ATOM     23  C   UNL     1       5.912  -1.089   5.024  0.00  0.00    +0.020 C 
ATOM     24  H   UNL     1       4.087  -0.399   4.402  0.00  0.00    -0.080 HD
BRANCH  23  25
ATOM     25  C   UNL     1       5.065  -2.176   5.633  0.00  0.00    +0.197 C 
ATOM     26  O   UNL     1       3.860  -2.157   5.493  0.00  0.00    -0.278 OA
ATOM     27  N   UNL     1       5.646  -3.171   6.333  0.00  0.00    -0.331 N 
ATOM     28  H   UNL     1       6.609  -3.186   6.445  0.00  0.00    +0.145 HD
ATOM     29  H   UNL     1       5.101  -3.870   6.726  0.00  0.00    +0.145 HD
ENDBRANCH  23  25
ENDBRANCH  18  19
ENDBRANCH   6  18
TORSDOF 5
