REMARK  Name = ZINC10107170
REMARK  11 active torsions:
REMARK  status: ('A' for Active; 'I' for Inactive)
REMARK    1  A    between atoms: C_1  and  C_2
REMARK    2  A    between atoms: C_5  and  C_36
REMARK    3  A    between atoms: C_6  and  N_8
REMARK    4  A    between atoms: C_9  and  C_35
REMARK    5  A    between atoms: N_18  and  C_23
REMARK    6  A    between atoms: N_21  and  C_22
REMARK    7  A    between atoms: C_23  and  C_24
REMARK    8  A    between atoms: C_24  and  C_26
REMARK    9  A    between atoms: C_24  and  C_27
REMARK   10  A    between atoms: C_27  and  N_71
REMARK   11  A    between atoms: C_32  and  C_34
REMARK                            x       y       z     vdW  Elec       q    Type
REMARK                         _______ _______ _______ _____ _____    ______ ____
ROOT
ATOM      1  N   UNL     1      -2.567  12.671  -3.441  0.00  0.00    -0.282 N 
ATOM      2  C   UNL     1      -1.349  12.513  -4.078  0.00  0.00    +0.040 A 
ATOM      3  C   UNL     1      -1.114  11.210  -4.204  0.00  0.00    +0.116 A 
ATOM      4  N   UNL     1      -2.177  10.519  -3.650  0.00  0.00    -0.277 N 
ATOM      5  C   UNL     1      -3.070  11.421  -3.180  0.00  0.00    +0.223 A 
ATOM      6  N   UNL     1      -4.098  10.781  -2.643  0.00  0.00    -0.193 NA
ATOM      7  C   UNL     1      -3.916   9.467  -2.741  0.00  0.00    +0.170 A 
ATOM      8  C   UNL     1      -2.694   9.260  -3.381  0.00  0.00    +0.157 A 
ATOM      9  C   UNL     1      -2.256   7.946  -3.613  0.00  0.00    +0.283 A 
ATOM     10  O   UNL     1      -1.192   7.741  -4.171  0.00  0.00    -0.265 OA
ATOM     11  N   UNL     1      -3.025   6.913  -3.212  0.00  0.00    -0.259 N 
ATOM     12  C   UNL     1      -4.204   7.122  -2.601  0.00  0.00    +0.333 A 
ATOM     13  O   UNL     1      -4.872   6.165  -2.259  0.00  0.00    -0.246 OA
ATOM     14  N   UNL     1      -4.661   8.364  -2.354  0.00  0.00    -0.279 N 
ATOM     15  C   UNL     1      -5.948   8.550  -1.680  0.00  0.00    +0.155 C 
ATOM     16  C   UNL     1      -0.447  13.624  -4.548  0.00  0.00    +0.065 C 
ENDROOT
BRANCH   1  22
ATOM     17  C   UNL     1      -3.253  16.349  -0.250  0.00  0.00    +0.044 C 
ATOM     18  C   UNL     1      -3.527  15.694  -1.579  0.00  0.00    -0.048 A 
ATOM     19  C   UNL     1      -4.384  16.297  -2.482  0.00  0.00    +0.004 A 
ATOM     20  C   UNL     1      -4.639  15.699  -3.703  0.00  0.00    +0.005 A 
ATOM     21  C   UNL     1      -4.038  14.498  -4.023  0.00  0.00    -0.027 A 
ATOM     22  C   UNL     1      -3.177  13.890  -3.119  0.00  0.00    +0.053 A 
ATOM     23  C   UNL     1      -2.928  14.490  -1.891  0.00  0.00    +0.030 A 
ATOM     24  C   UNL     1      -4.316  13.847  -5.354  0.00  0.00    +0.046 C 
ENDBRANCH   1  22
BRANCH  11  25
ATOM     25  C   UNL     1      -2.571   5.541  -3.453  0.00  0.00    +0.131 C 
BRANCH  25  26
ATOM     26  C   UNL     1      -1.744   5.061  -2.259  0.00  0.00    -0.011 C 
ATOM     27  C   UNL     1      -0.467   5.897  -2.154  0.00  0.00    +0.007 C 
BRANCH  26  28
ATOM     28  C   UNL     1      -1.375   3.588  -2.454  0.00  0.00    -0.074 C 
BRANCH  28  35
ATOM     29  C   UNL     1      -1.341   3.417  -0.039  0.00  0.00    -0.078 C 
ATOM     30  C   UNL     1      -0.467   3.041   1.159  0.00  0.00    -0.019 C 
ATOM     31  C   UNL     1      -0.131   1.548   1.093  0.00  0.00    -0.003 C 
ATOM     32  C   UNL     1       0.572   1.250  -0.235  0.00  0.00    -0.016 C 
ATOM     33  C   UNL     1      -0.333   1.678  -1.393  0.00  0.00    -0.072 C 
ATOM     34  C   UNL     1       0.374   1.401  -2.721  0.00  0.00    -0.013 C 
ATOM     35  N   UNL     1      -0.598   3.128  -1.284  0.00  0.00    +0.382 N 
ATOM     36  H   UNL     1       0.298   3.630  -1.261  0.00  0.00    -0.081 HD
ENDBRANCH  28  35
ENDBRANCH  26  28
ENDBRANCH  25  26
ENDBRANCH  11  25
TORSDOF 5
