REMARK  Name = ZINC34900490
REMARK  10 active torsions:
REMARK  status: ('A' for Active; 'I' for Inactive)
REMARK    1  A    between atoms: C_1  and  C_2
REMARK    2  A    between atoms: C_7  and  C_8
REMARK    3  A    between atoms: N_10  and  C_11
REMARK    4  A    between atoms: C_17  and  N_19
REMARK    5  A    between atoms: C_20  and  C_22
REMARK    6  A    between atoms: C_29  and  C_31
REMARK    7  A    between atoms: C_34  and  C_37
REMARK    8  A    between atoms: C_37  and  C_38
REMARK    9  A    between atoms: C_37  and  C_39
REMARK   10  A    between atoms: C_37  and  C_40
REMARK                            x       y       z     vdW  Elec       q    Type
REMARK                         _______ _______ _______ _____ _____    ______ ____
ROOT
ATOM      1  N   UNL     1      -1.186  -1.285   5.716  0.00  0.00    -0.310 N 
ATOM      2  C   UNL     1      -1.556  -2.517   6.119  0.00  0.00    +0.218 C 
ATOM      3  O   UNL     1      -0.742  -3.259   6.627  0.00  0.00    -0.275 OA
ATOM      4  H   UNL     1      -1.838  -0.692   5.310  0.00  0.00    +0.149 HD
ENDROOT
BRANCH   2   5
ATOM      5  C   UNL     1      -2.981  -2.974   5.937  0.00  0.00    +0.092 C 
ATOM      6  C   UNL     1      -3.133  -4.398   6.475  0.00  0.00    +0.016 C 
ATOM      7  C   UNL     1      -4.572  -4.875   6.261  0.00  0.00    +0.020 C 
ATOM      8  C   UNL     1      -5.528  -3.961   7.035  0.00  0.00    +0.108 C 
ATOM      9  N   UNL     1      -5.286  -2.570   6.627  0.00  0.00    -0.297 N 
ATOM     10  C   UNL     1      -3.919  -2.038   6.706  0.00  0.00    +0.120 C 
ATOM     11  C   UNL     1      -6.300  -1.797   6.189  0.00  0.00    +0.247 C 
ATOM     12  O   UNL     1      -6.072  -0.682   5.762  0.00  0.00    -0.270 OA
BRANCH  11  13
ATOM     13  C   UNL     1      -7.687  -2.305   6.228  0.00  0.00    +0.037 A 
ATOM     14  C   UNL     1      -8.090  -3.166   7.250  0.00  0.00    +0.013 A 
ATOM     15  C   UNL     1      -9.387  -3.636   7.280  0.00  0.00    +0.005 A 
ATOM     16  C   UNL     1     -10.287  -3.256   6.301  0.00  0.00    -0.042 A 
ATOM     17  C   UNL     1      -9.894  -2.404   5.285  0.00  0.00    +0.005 A 
ATOM     18  C   UNL     1      -8.602  -1.921   5.246  0.00  0.00    +0.013 A 
BRANCH  16  19
ATOM     19  C   UNL     1     -11.702  -3.774   6.340  0.00  0.00    -0.013 C 
ATOM     20  C   UNL     1     -12.368  -3.338   7.647  0.00  0.00    +0.015 C 
ATOM     21  C   UNL     1     -12.485  -3.208   5.154  0.00  0.00    +0.015 C 
ATOM     22  C   UNL     1     -11.688  -5.302   6.260  0.00  0.00    +0.015 C 
ENDBRANCH  16  19
ENDBRANCH  11  13
ENDBRANCH   2   5
BRANCH   1  28
ATOM     23  C   UNL     1       0.522   0.242   4.863  0.00  0.00    +0.093 C 
ATOM     24  C   UNL     1       1.969   0.705   5.047  0.00  0.00    +0.024 C 
ATOM     25  C   UNL     1       2.147   1.272   6.457  0.00  0.00    +0.002 C 
ATOM     26  C   UNL     1       1.823   0.189   7.487  0.00  0.00    +0.002 C 
ATOM     27  C   UNL     1       0.377  -0.275   7.303  0.00  0.00    +0.024 C 
ATOM     28  C   UNL     1       0.199  -0.842   5.893  0.00  0.00    +0.093 C 
BRANCH  23  31
ATOM     29  C   UNL     1       0.082   0.526   2.483  0.00  0.00    +0.245 C 
ATOM     30  O   UNL     1      -0.020   1.722   2.674  0.00  0.00    -0.270 OA
ATOM     31  N   UNL     1       0.352  -0.301   3.513  0.00  0.00    -0.307 N 
ATOM     32  H   UNL     1       0.433  -1.255   3.360  0.00  0.00    +0.149 HD
BRANCH  29  39
ATOM     33  C   UNL     1      -0.342   2.328   0.259  0.00  0.00    +0.044 C 
ATOM     34  C   UNL     1      -0.295   0.837   0.040  0.00  0.00    -0.038 A 
ATOM     35  C   UNL     1      -0.450   0.320  -1.229  0.00  0.00    +0.004 A 
ATOM     36  C   UNL     1      -0.407  -1.048  -1.432  0.00  0.00    +0.000 A 
ATOM     37  C   UNL     1      -0.210  -1.906  -0.364  0.00  0.00    +0.001 A 
ATOM     38  C   UNL     1      -0.054  -1.401   0.910  0.00  0.00    +0.013 A 
ATOM     39  C   UNL     1      -0.090  -0.022   1.121  0.00  0.00    +0.040 A 
ENDBRANCH  29  39
ENDBRANCH  23  31
ENDBRANCH   1  28
TORSDOF 6
