REMARK  Name = ZINC59402977
REMARK  4 active torsions:
REMARK  status: ('A' for Active; 'I' for Inactive)
REMARK    1  A    between atoms: N_7  and  C_11
REMARK    2  A    between atoms: C_11  and  C_12
REMARK    3  A    between atoms: N_14  and  C_15
REMARK    4  A    between atoms: C_16  and  C_24
REMARK                            x       y       z     vdW  Elec       q    Type
REMARK                         _______ _______ _______ _____ _____    ______ ____
ROOT
ATOM      1  C   UNL     1      -0.729  -3.133  -0.971  0.00  0.00    +0.235 C 
ATOM      2  O   UNL     1      -0.313  -2.717  -2.032  0.00  0.00    -0.274 OA
ATOM      3  N   UNL     1      -1.877  -3.838  -0.928  0.00  0.00    -0.278 N 
ATOM      4  H   UNL     1      -2.210  -4.170  -0.080  0.00  0.00    +0.155 HD
ENDROOT
BRANCH   3   5
ATOM      5  C   UNL     1      -2.581  -4.089  -2.096  0.00  0.00    +0.084 A 
ATOM      6  C   UNL     1      -3.771  -4.784  -2.241  0.00  0.00    +0.068 A 
ATOM      7  C   UNL     1      -4.309  -4.908  -3.584  0.00  0.00    -0.023 A 
ATOM      8  C   UNL     1      -3.558  -4.314  -4.537  0.00  0.00    -0.004 A 
ATOM      9  S   UNL     1      -2.192  -3.612  -3.659  0.00  0.00    -0.077 S 
ATOM     10  C   UNL     1      -3.841  -4.268  -6.006  0.00  0.00    +0.043 C 
ATOM     11  C   UNL     1      -4.916  -5.318  -6.324  0.00  0.00    +0.005 C 
ATOM     12  C   UNL     1      -6.062  -5.174  -5.318  0.00  0.00    +0.005 C 
ATOM     13  C   UNL     1      -5.600  -5.633  -3.933  0.00  0.00    +0.037 C 
BRANCH   6  14
ATOM     14  C   UNL     1      -4.458  -5.371  -1.086  0.00  0.00    +0.244 C 
ATOM     15  O   UNL     1      -5.284  -4.719  -0.473  0.00  0.00    -0.270 OA
ATOM     16  N   UNL     1      -4.176  -6.632  -0.703  0.00  0.00    -0.325 N 
ATOM     17  H   UNL     1      -3.518  -7.152  -1.191  0.00  0.00    +0.145 HD
ATOM     18  H   UNL     1      -4.631  -7.020   0.061  0.00  0.00    +0.145 HD
ENDBRANCH   6  14
ENDBRANCH   3   5
BRANCH   1  19
ATOM     19  C   UNL     1       0.036  -2.860   0.298  0.00  0.00    +0.201 C 
BRANCH  19  26
ATOM     20  C   UNL     1      -0.017   1.379   0.010  0.00  0.00    +0.002 A 
ATOM     21  C   UNL     1       1.170   2.087   0.002  0.00  0.00    +0.004 A 
ATOM     22  C   UNL     1       2.381   1.420  -0.015  0.00  0.00    +0.047 A 
ATOM     23  C   UNL     1       2.410   0.034  -0.023  0.00  0.00    +0.141 A 
ATOM     24  C   UNL     1       1.213  -0.678  -0.013  0.00  0.00    +0.072 A 
ATOM     25  C   UNL     1       0.002  -0.004   0.002  0.00  0.00    +0.027 A 
ATOM     26  N   UNL     1       1.237  -2.082  -0.014  0.00  0.00    -0.315 N 
ATOM     27  C   UNL     1       2.512  -2.744  -0.339  0.00  0.00    +0.146 C 
ATOM     28  C   UNL     1       3.630  -1.978   0.383  0.00  0.00    +0.248 C 
ATOM     29  O   UNL     1       3.604  -0.614  -0.044  0.00  0.00    -0.489 OA
ENDBRANCH  19  26
ENDBRANCH   1  19
TORSDOF 4
