REMARK  Name = ZINC07884706
REMARK  5 active torsions:
REMARK  status: ('A' for Active; 'I' for Inactive)
REMARK    1  A    between atoms: C_1  and  O_2
REMARK    2  A    between atoms: O_2  and  C_3
REMARK    3  A    between atoms: C_6  and  C_10
REMARK    4  A    between atoms: C_8  and  O_9
REMARK    5  A    between atoms: N_21  and  C_22
REMARK                            x       y       z     vdW  Elec       q    Type
REMARK                         _______ _______ _______ _____ _____    ______ ____
ROOT
ATOM      1  C   UNL     1       0.073   1.451   0.140  0.00  0.00    +0.198 C 
ATOM      2  N   UNL     1       1.470   1.899   0.087  0.00  0.00    -0.321 N 
ATOM      3  C   UNL     1       2.313   1.347  -0.871  0.00  0.00    +0.041 A 
ATOM      4  C   UNL     1       3.391   2.048  -1.384  0.00  0.00    +0.024 A 
ATOM      5  C   UNL     1       4.218   1.448  -2.314  0.00  0.00    +0.002 A 
ATOM      6  C   UNL     1       3.977   0.150  -2.736  0.00  0.00    +0.001 A 
ATOM      7  C   UNL     1       2.904  -0.561  -2.239  0.00  0.00    +0.015 A 
ATOM      8  C   UNL     1       2.055   0.037  -1.310  0.00  0.00    +0.058 A 
ATOM      9  C   UNL     1       0.893  -0.677  -0.753  0.00  0.00    +0.254 C 
ATOM     10  O   UNL     1       0.739  -1.863  -0.972  0.00  0.00    -0.270 OA
ATOM     11  N   UNL     1       0.002  -0.004   0.002  0.00  0.00    -0.244 N 
ATOM     12  H   UNL     1       1.798   2.567   0.708  0.00  0.00    +0.148 HD
ENDROOT
BRANCH  11  13
ATOM     13  C   UNL     1      -1.009  -0.709   0.664  0.00  0.00    +0.039 A 
ATOM     14  C   UNL     1      -1.128  -0.622   2.045  0.00  0.00    +0.026 A 
ATOM     15  C   UNL     1      -2.130  -1.314   2.696  0.00  0.00    +0.040 A 
ATOM     16  C   UNL     1      -3.010  -2.103   1.975  0.00  0.00    +0.124 A 
ATOM     17  C   UNL     1      -2.890  -2.196   0.598  0.00  0.00    +0.040 A 
ATOM     18  C   UNL     1      -1.892  -1.501  -0.058  0.00  0.00    +0.026 A 
ATOM     19  F   UNL     1      -3.986  -2.784   2.614  0.00  0.00    -0.205 F 
ENDBRANCH  11  13
BRANCH   1  23
ATOM     20  C   UNL     1      -2.128   3.280  -3.037  0.00  0.00    +0.161 A 
ATOM     21  C   UNL     1      -2.505   2.036  -2.556  0.00  0.00    +0.050 A 
ATOM     22  C   UNL     1      -1.788   1.445  -1.532  0.00  0.00    +0.011 A 
ATOM     23  C   UNL     1      -0.701   2.097  -0.979  0.00  0.00    -0.005 A 
ATOM     24  C   UNL     1      -0.320   3.338  -1.455  0.00  0.00    +0.056 A 
ATOM     25  C   UNL     1      -1.032   3.933  -2.485  0.00  0.00    +0.159 A 
BRANCH  20  27
ATOM     26  C   UNL     1      -3.943   3.131  -4.567  0.00  0.00    +0.277 C 
ATOM     27  O   UNL     1      -2.829   3.860  -4.048  0.00  0.00    -0.491 OA
ENDBRANCH  20  27
BRANCH  25  28
ATOM     28  O   UNL     1      -0.658   5.154  -2.953  0.00  0.00    -0.503 OA
ATOM     29  H   UNL     1      -0.021   5.119  -3.679  0.00  0.00    +0.292 HD
ENDBRANCH  25  28
ENDBRANCH   1  23
TORSDOF 4
