REMARK  Name = ZINC13370259
REMARK  4 active torsions:
REMARK  status: ('A' for Active; 'I' for Inactive)
REMARK    1  A    between atoms: C_1  and  C_2
REMARK    2  A    between atoms: N_11  and  S_12
REMARK    3  A    between atoms: S_12  and  C_15
REMARK    4  A    between atoms: C_21  and  C_23
REMARK                            x       y       z     vdW  Elec       q    Type
REMARK                         _______ _______ _______ _____ _____    ______ ____
ROOT
ATOM      1  C   UNL     1       2.586  -3.549  -1.724  0.00  0.00    +0.259 A 
ATOM      2  N   UNL     1       3.451  -2.977  -2.538  0.00  0.00    -0.119 NA
ATOM      3  N   UNL     1       3.570  -3.371  -3.731  0.00  0.00    -0.124 NA
ATOM      4  C   UNL     1       2.843  -4.364  -4.215  0.00  0.00    +0.189 A 
ATOM      5  S   UNL     1       1.893  -4.783  -2.819  0.00  0.00    -0.010 S 
ATOM      6  N   UNL     1       2.842  -4.923  -5.488  0.00  0.00    -0.263 N 
ATOM      7  C   UNL     1       3.673  -4.446  -6.435  0.00  0.00    +0.225 C 
ATOM      8  O   UNL     1       4.422  -3.527  -6.177  0.00  0.00    -0.275 OA
ATOM      9  H   UNL     1       2.243  -5.658  -5.694  0.00  0.00    +0.157 HD
ENDROOT
BRANCH   7  10
ATOM     10  C   UNL     1       3.672  -5.052  -7.814  0.00  0.00    +0.048 C 
ATOM     11  C   UNL     1       2.281  -4.905  -8.435  0.00  0.00    +0.019 C 
ATOM     12  C   UNL     1       2.280  -5.521  -9.836  0.00  0.00    -0.009 C 
ATOM     13  C   UNL     1       3.308  -4.800 -10.710  0.00  0.00    +0.007 C 
ATOM     14  C   UNL     1       4.699  -4.947 -10.090  0.00  0.00    -0.009 C 
ATOM     15  C   UNL     1       4.700  -4.332  -8.689  0.00  0.00    +0.019 C 
ATOM     16  C   UNL     1       5.061  -6.431  -9.995  0.00  0.00    +0.007 C 
ATOM     17  C   UNL     1       4.033  -7.152  -9.120  0.00  0.00    -0.009 C 
ATOM     18  C   UNL     1       2.642  -7.004  -9.741  0.00  0.00    +0.007 C 
ATOM     19  C   UNL     1       4.034  -6.536  -7.720  0.00  0.00    +0.019 C 
ENDBRANCH   7  10
BRANCH   1  20
ATOM     20  S   UNL     1       2.221  -3.202  -0.036  0.00  0.00    +0.101 S 
ATOM     21  O   UNL     1       3.373  -2.571   0.507  0.00  0.00    -0.148 OA
ATOM     22  O   UNL     1       1.675  -4.393   0.514  0.00  0.00    -0.148 OA
BRANCH  20  32
ATOM     23  C   UNL     1      -0.786  -3.175   1.248  0.00  0.00    +0.030 C 
ATOM     24  C   UNL     1      -0.422  -2.378  -0.006  0.00  0.00    +0.099 C 
ATOM     25  C   UNL     1      -1.126  -1.011   0.008  0.00  0.00    +0.061 C 
ATOM     26  C   UNL     1       0.002  -0.004   0.002  0.00  0.00    -0.023 A 
ATOM     27  C   UNL     1      -0.017   1.377   0.010  0.00  0.00    +0.005 A 
ATOM     28  C   UNL     1       1.169   2.088   0.002  0.00  0.00    +0.000 A 
ATOM     29  C   UNL     1       2.376   1.413  -0.013  0.00  0.00    +0.002 A 
ATOM     30  C   UNL     1       2.400   0.035  -0.021  0.00  0.00    +0.025 A 
ATOM     31  C   UNL     1       1.206  -0.691  -0.013  0.00  0.00    +0.055 A 
ATOM     32  N   UNL     1       1.010  -2.073  -0.018  0.00  0.00    -0.198 N 
ENDBRANCH  20  32
ENDBRANCH   1  20
TORSDOF 3
