REMARK  Name = ZINC60377330
REMARK  3 active torsions:
REMARK  status: ('A' for Active; 'I' for Inactive)
REMARK    1  A    between atoms: C_1  and  C_2
REMARK    2  A    between atoms: N_9  and  C_10
REMARK    3  A    between atoms: C_10  and  C_11
REMARK                            x       y       z     vdW  Elec       q    Type
REMARK                         _______ _______ _______ _____ _____    ______ ____
ROOT
ATOM      1  C   UNL     1       2.784  -0.413   2.466  0.00  0.00    +0.125 A 
ATOM      2  N   UNL     1       4.104  -0.142   2.639  0.00  0.00    -0.309 N 
ATOM      3  H   UNL     1       4.612   0.236   1.905  0.00  0.00    +0.170 HD
ATOM      4  C   UNL     1       4.720  -0.387   3.811  0.00  0.00    +0.260 A 
ATOM      5  O   UNL     1       5.905  -0.138   3.953  0.00  0.00    -0.267 OA
ATOM      6  C   UNL     1       3.958  -0.945   4.888  0.00  0.00    +0.075 A 
ATOM      7  C   UNL     1       4.418  -1.290   6.241  0.00  0.00    -0.023 A 
ATOM      8  C   UNL     1       3.503  -1.806   7.080  0.00  0.00    -0.004 A 
ATOM      9  S   UNL     1       1.996  -1.861   6.139  0.00  0.00    -0.073 S 
ATOM     10  C   UNL     1       2.605  -1.190   4.616  0.00  0.00    +0.116 A 
ATOM     11  N   UNL     1       2.063  -0.916   3.431  0.00  0.00    -0.225 NA
ATOM     12  C   UNL     1       4.087  -2.126   8.430  0.00  0.00    +0.043 C 
ATOM     13  C   UNL     1       5.614  -2.139   8.199  0.00  0.00    +0.010 C 
ATOM     14  C   UNL     1       5.755  -1.203   6.982  0.00  0.00    +0.037 C 
ENDROOT
BRANCH   1  15
ATOM     15  C   UNL     1       2.139  -0.121   1.135  0.00  0.00    +0.159 C 
BRANCH  15  23
ATOM     16  C   UNL     1      -0.019   1.526   0.010  0.00  0.00    +0.034 C 
ATOM     17  C   UNL     1       0.002  -0.004   0.002  0.00  0.00    +0.140 C 
ATOM     18  C   UNL     1      -1.408  -0.522   0.008  0.00  0.00    +0.230 C 
ATOM     19  O   UNL     1      -2.228   0.016  -0.706  0.00  0.00    -0.274 OA
ATOM     20  N   UNL     1      -1.798  -1.552   0.766  0.00  0.00    -0.313 N 
ATOM     21  C   UNL     1      -0.899  -2.245   1.685  0.00  0.00    +0.119 C 
ATOM     22  C   UNL     1       0.556  -1.945   1.321  0.00  0.00    +0.104 C 
ATOM     23  N   UNL     1       0.717  -0.489   1.190  0.00  0.00    -0.283 NA
ATOM     24  H   UNL     1      -2.718  -1.852   0.704  0.00  0.00    +0.149 HD
ENDBRANCH  15  23
ENDBRANCH   1  15
TORSDOF 2
