REMARK  Name = ZINC40596947
REMARK  6 active torsions:
REMARK  status: ('A' for Active; 'I' for Inactive)
REMARK    1  A    between atoms: C_1  and  C_2
REMARK    2  A    between atoms: C_2  and  C_3
REMARK    3  A    between atoms: C_3  and  N_4
REMARK    4  A    between atoms: C_6  and  N_19
REMARK    5  A    between atoms: C_7  and  N_11
REMARK    6  A    between atoms: N_11  and  C_12
REMARK                            x       y       z     vdW  Elec       q    Type
REMARK                         _______ _______ _______ _____ _____    ______ ____
ROOT
ATOM      1  N   UNL     1      -1.454  -1.994  -0.386  0.00  0.00    -0.327 N 
ATOM      2  C   UNL     1      -2.623  -2.706  -0.164  0.00  0.00    +0.154 A 
ATOM      3  C   UNL     1      -2.619  -4.097  -0.193  0.00  0.00    +0.205 A 
ATOM      4  C   UNL     1      -3.817  -4.765   0.036  0.00  0.00    +0.159 A 
ATOM      5  N   UNL     1      -4.918  -4.054   0.274  0.00  0.00    -0.218 NA
ATOM      6  C   UNL     1      -4.881  -2.737   0.293  0.00  0.00    +0.225 A 
ATOM      7  N   UNL     1      -3.765  -2.068   0.087  0.00  0.00    -0.218 NA
ATOM      8  H   UNL     1      -0.626  -2.465  -0.568  0.00  0.00    +0.148 HD
ENDROOT
BRANCH   3   9
ATOM      9  N   UNL     1      -1.371  -4.847  -0.462  0.00  0.00    +0.063 N 
ATOM     10  O   UNL     1      -0.653  -5.175   0.454  0.00  0.00    -0.126 OA
ATOM     11  O   UNL     1      -1.070  -5.132  -1.598  0.00  0.00    -0.126 OA
ENDBRANCH   3   9
BRANCH   4  12
ATOM     12  N   UNL     1      -3.866  -6.151   0.017  0.00  0.00    -0.297 N 
ATOM     13  H   UNL     1      -3.047  -6.664  -0.076  0.00  0.00    +0.154 HD
BRANCH  12  14
ATOM     14  C   UNL     1      -5.094  -6.810   0.130  0.00  0.00    +0.032 A 
ATOM     15  C   UNL     1      -5.180  -8.006   0.830  0.00  0.00    +0.024 A 
ATOM     16  C   UNL     1      -6.395  -8.654   0.941  0.00  0.00    +0.017 A 
ATOM     17  C   UNL     1      -7.525  -8.112   0.355  0.00  0.00    +0.018 A 
ATOM     18  C   UNL     1      -7.443  -6.921  -0.343  0.00  0.00    +0.017 A 
ATOM     19  C   UNL     1      -6.232  -6.266  -0.452  0.00  0.00    +0.024 A 
ATOM     20 BR   UNL     1      -9.187  -9.002   0.509  0.00  0.00    -0.050 Br
ENDBRANCH  12  14
ENDBRANCH   4  12
BRANCH   1  21
ATOM     21  C   UNL     1      -1.470  -0.529  -0.346  0.00  0.00    +0.103 C 
BRANCH  21  23
ATOM     22  C   UNL     1      -0.079   1.532  -0.580  0.00  0.00    +0.005 C 
ATOM     23  C   UNL     1      -0.063   0.003  -0.622  0.00  0.00    +0.015 C 
ENDBRANCH  21  23
ENDBRANCH   1  21
TORSDOF 5
