REMARK  Name = ZINC38742489
REMARK  8 active torsions:
REMARK  status: ('A' for Active; 'I' for Inactive)
REMARK    1  A    between atoms: C_1  and  C_2
REMARK    2  A    between atoms: C_2  and  C_3
REMARK    3  A    between atoms: C_2  and  C_4
REMARK    4  A    between atoms: C_6  and  C_10
REMARK    5  A    between atoms: C_18  and  C_20
REMARK    6  A    between atoms: C_23  and  N_26
REMARK    7  A    between atoms: N_26  and  C_27
REMARK    8  A    between atoms: N_26  and  C_28
REMARK                            x       y       z     vdW  Elec       q    Type
REMARK                         _______ _______ _______ _____ _____    ______ ____
ROOT
ATOM      1  C   UNL     1      -3.610  -3.022  -0.218  0.00  0.00    +0.206 C 
ATOM      2  N   UNL     1      -3.332  -3.800  -1.448  0.00  0.00    -0.231 NA
ATOM      3  N   UNL     1      -4.615  -4.385  -1.873  0.00  0.00    -0.224 NA
ATOM      4  C   UNL     1      -5.610  -3.473  -1.273  0.00  0.00    +0.240 C 
ATOM      5  N   UNL     1      -5.035  -3.270   0.099  0.00  0.00    -0.206 N 
ATOM      6  N   UNL     1      -5.946  -3.455   1.115  0.00  0.00    -0.173 NA
ATOM      7  C   UNL     1      -7.087  -4.056   0.941  0.00  0.00    +0.125 C 
ATOM      8  S   UNL     1      -7.161  -4.352  -0.855  0.00  0.00    -0.063 S 
ATOM      9  H   UNL     1      -2.647  -4.520  -1.274  0.00  0.00    +0.143 HD
ATOM     10  H   UNL     1      -4.722  -5.322  -1.514  0.00  0.00    +0.144 HD
ENDROOT
BRANCH   7  11
ATOM     11  C   UNL     1      -8.097  -4.409   1.962  0.00  0.00    +0.009 A 
ATOM     12  C   UNL     1      -9.271  -5.065   1.587  0.00  0.00    +0.012 A 
ATOM     13  C   UNL     1     -10.210  -5.391   2.542  0.00  0.00    +0.024 A 
ATOM     14  C   UNL     1      -9.989  -5.069   3.876  0.00  0.00    +0.029 A 
ATOM     15  C   UNL     1      -8.821  -4.415   4.252  0.00  0.00    +0.024 A 
ATOM     16  C   UNL     1      -7.875  -4.091   3.304  0.00  0.00    +0.012 A 
BRANCH  14  17
ATOM     17  N   UNL     1     -10.942  -5.401   4.840  0.00  0.00    -0.336 N 
ATOM     18  C   UNL     1     -12.227  -5.974   4.432  0.00  0.00    +0.129 C 
ATOM     19  C   UNL     1     -10.658  -5.176   6.259  0.00  0.00    +0.129 C 
ENDBRANCH  14  17
ENDBRANCH   7  11
BRANCH   1  22
ATOM     20  C   UNL     1      -1.435  -0.493  -0.001  0.00  0.00    +0.064 C 
ATOM     21  C   UNL     1      -1.954  -1.283  -0.943  0.00  0.00    +0.030 C 
ATOM     22  C   UNL     1      -3.376  -1.531  -0.470  0.00  0.00    +0.190 C 
ATOM     23  N   UNL     1      -3.444  -0.768   0.788  0.00  0.00    -0.177 NA
ATOM     24  N   UNL     1      -2.343  -0.241   0.968  0.00  0.00    -0.158 NA
BRANCH  20  26
ATOM     25  C   UNL     1      -0.058   1.569  -0.017  0.00  0.00    +0.014 C 
ATOM     26  C   UNL     1      -0.025   0.039  -0.011  0.00  0.00    +0.033 C 
ATOM     27  C   UNL     1       0.715  -0.451   1.235  0.00  0.00    +0.014 C 
ENDBRANCH  20  26
ENDBRANCH   1  22
TORSDOF 4
