REMARK  Name = ZINC08695334
REMARK  16 active torsions:
REMARK  status: ('A' for Active; 'I' for Inactive)
REMARK    1  A    between atoms: C_1  and  C_2
REMARK    2  A    between atoms: C_2  and  C_3
REMARK    3  A    between atoms: C_3  and  C_4
REMARK    4  A    between atoms: C_4  and  N_68
REMARK    5  A    between atoms: C_5  and  C_6
REMARK    6  A    between atoms: C_5  and  N_68
REMARK    7  A    between atoms: C_6  and  C_7
REMARK    8  A    between atoms: C_7  and  C_8
REMARK    9  A    between atoms: C_9  and  C_10
REMARK   10  A    between atoms: C_9  and  N_68
REMARK   11  A    between atoms: C_10  and  C_11
REMARK   12  A    between atoms: C_11  and  N_12
REMARK   13  A    between atoms: C_13  and  C_29
REMARK   14  A    between atoms: C_15  and  C_20
REMARK   15  A    between atoms: C_16  and  O_19
REMARK   16  A    between atoms: C_20  and  C_22
REMARK                            x       y       z     vdW  Elec       q    Type
REMARK                         _______ _______ _______ _____ _____    ______ ____
ROOT
ATOM      1  N   UNL     1      -1.995   3.178   0.914  0.00  0.00    -0.284 N 
ATOM      2  C   UNL     1      -1.688   1.895   0.271  0.00  0.00    +0.146 C 
ATOM      3  C   UNL     1      -2.081   2.046  -1.180  0.00  0.00    +0.071 C 
ATOM      4  C   UNL     1      -2.563   3.303  -1.325  0.00  0.00    +0.188 C 
ATOM      5  C   UNL     1      -2.506   3.998  -0.022  0.00  0.00    +0.282 C 
ATOM      6  O   UNL     1      -2.866   5.142   0.175  0.00  0.00    -0.267 OA
ENDROOT
BRANCH   2   7
ATOM      7  C   UNL     1      -0.215   1.599   0.380  0.00  0.00    -0.004 A 
ATOM      8  C   UNL     1       0.222   0.347   0.784  0.00  0.00    +0.009 A 
ATOM      9  C   UNL     1       1.587   0.122   0.875  0.00  0.00    +0.020 A 
ATOM     10  C   UNL     1       2.461   1.142   0.552  0.00  0.00    +0.111 A 
ATOM     11  N   UNL     1       2.010   2.320   0.166  0.00  0.00    -0.263 NA
ATOM     12  C   UNL     1       0.719   2.571   0.073  0.00  0.00    +0.116 A 
ENDBRANCH   2   7
BRANCH   4  13
ATOM     13  O   UNL     1      -3.023   3.838  -2.480  0.00  0.00    -0.502 OA
ATOM     14  H   UNL     1      -3.319   4.779  -2.316  0.00  0.00    +0.292 HD
ENDBRANCH   4  13
BRANCH   3  15
ATOM     15  C   UNL     1      -1.965   1.028  -2.228  0.00  0.00    +0.195 C 
ATOM     16  O   UNL     1      -1.188   1.191  -3.151  0.00  0.00    -0.287 OA
BRANCH  15  17
ATOM     17  C   UNL     1      -2.791  -0.196  -2.165  0.00  0.00    +0.022 A 
ATOM     18  C   UNL     1      -3.758  -0.338  -1.168  0.00  0.00    +0.013 A 
ATOM     19  C   UNL     1      -4.529  -1.480  -1.117  0.00  0.00    +0.016 A 
ATOM     20  C   UNL     1      -4.338  -2.490  -2.046  0.00  0.00    +0.018 A 
ATOM     21  C   UNL     1      -3.376  -2.357  -3.034  0.00  0.00    +0.016 A 
ATOM     22  C   UNL     1      -2.603  -1.218  -3.098  0.00  0.00    +0.013 A 
ATOM     23 BR   UNL     1      -5.395  -4.056  -1.965  0.00  0.00    -0.050 Br
ENDBRANCH  15  17
ENDBRANCH   3  15
BRANCH   1  24
ATOM     24  C   UNL     1      -1.782   3.507   2.326  0.00  0.00    +0.107 C 
BRANCH  24  25
ATOM     25  C   UNL     1      -0.381   4.094   2.507  0.00  0.00    +0.000 C 
BRANCH  25  26
ATOM     26  C   UNL     1      -0.159   4.438   3.981  0.00  0.00    -0.077 C 
BRANCH  26  27
ATOM     27  N   UNL     1       1.205   4.984   4.143  0.00  0.00    +0.380 N 
ATOM     28  H   UNL     1       1.877   4.337   3.713  0.00  0.00    -0.082 HD
BRANCH  27  29
ATOM     29  C   UNL     1       1.307   6.297   3.472  0.00  0.00    -0.079 C 
BRANCH  29  30
ATOM     30  C   UNL     1       0.319   7.291   4.085  0.00  0.00    -0.019 C 
BRANCH  30  32
ATOM     31  C   UNL     1      -0.549   9.632   3.983  0.00  0.00    +0.004 C 
ATOM     32  C   UNL     1       0.440   8.638   3.370  0.00  0.00    -0.005 C 
ENDBRANCH  30  32
ENDBRANCH  29  30
ENDBRANCH  27  29
BRANCH  27  33
ATOM     33  C   UNL     1       1.526   5.124   5.579  0.00  0.00    -0.079 C 
BRANCH  33  34
ATOM     34  C   UNL     1       3.014   5.451   5.723  0.00  0.00    -0.019 C 
BRANCH  34  35
ATOM     35  C   UNL     1       3.381   5.516   7.207  0.00  0.00    -0.005 C 
ATOM     36  C   UNL     1       4.869   5.843   7.350  0.00  0.00    +0.004 C 
ENDBRANCH  34  35
ENDBRANCH  33  34
ENDBRANCH  27  33
ENDBRANCH  26  27
ENDBRANCH  25  26
ENDBRANCH  24  25
ENDBRANCH   1  24
TORSDOF 14
