REMARK  Name = ZINC33154969
REMARK  9 active torsions:
REMARK  status: ('A' for Active; 'I' for Inactive)
REMARK    1  A    between atoms: C_1  and  C_2
REMARK    2  A    between atoms: C_2  and  C_19
REMARK    3  A    between atoms: C_3  and  C_4
REMARK    4  A    between atoms: N_5  and  C_16
REMARK    5  A    between atoms: C_16  and  C_17
REMARK    6  A    between atoms: C_17  and  O_18
REMARK    7  A    between atoms: N_21  and  C_32
REMARK    8  A    between atoms: C_32  and  C_33
REMARK    9  A    between atoms: C_33  and  O_34
REMARK                            x       y       z     vdW  Elec       q    Type
REMARK                         _______ _______ _______ _____ _____    ______ ____
ROOT
ATOM      1  C   UNL     1       3.870   4.779  -1.688  0.00  0.00    +0.044 C 
ATOM      2  C   UNL     1       5.077   3.885  -1.811  0.00  0.00    -0.046 C 
ATOM      3  C   UNL     1       6.327   4.427  -1.828  0.00  0.00    +0.036 C 
ENDROOT
BRANCH   2   4
ATOM      4  C   UNL     1       4.914   2.496  -1.908  0.00  0.00    +0.034 C 
ATOM      5  C   UNL     1       4.450   1.779  -0.825  0.00  0.00    +0.076 C 
ATOM      6  N   UNL     1       4.387   2.149   0.497  0.00  0.00    -0.288 N 
ATOM      7  C   UNL     1       3.876   1.256   1.431  0.00  0.00    +0.095 A 
ATOM      8  C   UNL     1       3.614   1.204   2.891  0.00  0.00    +0.043 A 
ATOM      9  C   UNL     1       3.817   2.109   3.931  0.00  0.00    +0.013 A 
ATOM     10  C   UNL     1       3.467   1.755   5.216  0.00  0.00    +0.001 A 
ATOM     11  C   UNL     1       2.922   0.505   5.472  0.00  0.00    +0.004 A 
ATOM     12  C   UNL     1       2.721  -0.400   4.450  0.00  0.00    +0.047 A 
ATOM     13  C   UNL     1       3.068  -0.062   3.148  0.00  0.00    +0.138 A 
ATOM     14  O   UNL     1       2.992  -0.718   1.971  0.00  0.00    -0.446 OA
ATOM     15  C   UNL     1       3.460   0.042   0.975  0.00  0.00    +0.190 A 
ATOM     16  S   UNL     1       3.775   0.127  -0.773  0.00  0.00    -0.035 S 
BRANCH   6  17
ATOM     17  C   UNL     1       4.854   3.473   0.917  0.00  0.00    +0.139 C 
BRANCH  17  18
ATOM     18  C   UNL     1       6.279   3.362   1.462  0.00  0.00    +0.175 C 
BRANCH  18  19
ATOM     19  O   UNL     1       7.146   2.880   0.434  0.00  0.00    -0.393 OA
ATOM     20  H   UNL     1       8.217   2.735   0.641  0.00  0.00    +0.209 HD
ENDBRANCH  18  19
ENDBRANCH  17  18
ENDBRANCH   6  17
ENDBRANCH   2   4
BRANCH   3  21
ATOM     21  C   UNL     1       6.490   5.830  -1.928  0.00  0.00    +0.084 A 
ATOM     22  N   UNL     1       7.604   6.545  -1.924  0.00  0.00    -0.329 N 
ATOM     23  C   UNL     1       7.586   7.888  -2.034  0.00  0.00    +0.103 A 
ATOM     24  C   UNL     1       8.544   9.028  -2.076  0.00  0.00    +0.045 A 
ATOM     25  C   UNL     1       9.931   9.108  -2.015  0.00  0.00    +0.014 A 
ATOM     26  C   UNL     1      10.544  10.342  -2.081  0.00  0.00    +0.001 A 
ATOM     27  C   UNL     1       9.781  11.493  -2.207  0.00  0.00    +0.004 A 
ATOM     28  C   UNL     1       8.405  11.423  -2.269  0.00  0.00    +0.047 A 
ATOM     29  C   UNL     1       7.771  10.188  -2.204  0.00  0.00    +0.139 A 
ATOM     30  O   UNL     1       6.472   9.818  -2.238  0.00  0.00    -0.446 OA
ATOM     31  C   UNL     1       6.352   8.493  -2.142  0.00  0.00    +0.192 A 
ATOM     32  S   UNL     1       5.245   7.101  -2.088  0.00  0.00    -0.032 S 
BRANCH  22  33
ATOM     33  C   UNL     1       8.892   5.857  -1.799  0.00  0.00    +0.150 C 
BRANCH  33  34
ATOM     34  C   UNL     1       9.419   5.506  -3.192  0.00  0.00    +0.177 C 
BRANCH  34  35
ATOM     35  O   UNL     1      10.675   4.835  -3.071  0.00  0.00    -0.393 OA
ATOM     36  H   UNL     1      11.210   4.503  -3.972  0.00  0.00    +0.209 HD
ENDBRANCH  34  35
ENDBRANCH  33  34
ENDBRANCH  22  33
ENDBRANCH   3  21
TORSDOF 8
