REMARK  Name = ZINC18054913
REMARK  10 active torsions:
REMARK  status: ('A' for Active; 'I' for Inactive)
REMARK    1  A    between atoms: C_1  and  C_2
REMARK    2  A    between atoms: C_14  and  C_16
REMARK    3  A    between atoms: C_19  and  C_22
REMARK    4  A    between atoms: C_22  and  O_24
REMARK    5  A    between atoms: O_24  and  C_25
REMARK    6  A    between atoms: C_29  and  C_32
REMARK    7  A    between atoms: C_35  and  O_40
REMARK    8  A    between atoms: C_36  and  O_38
REMARK    9  A    between atoms: O_38  and  C_39
REMARK   10  A    between atoms: O_40  and  C_41
REMARK                            x       y       z     vdW  Elec       q    Type
REMARK                         _______ _______ _______ _____ _____    ______ ____
ROOT
ATOM      1  C   UNL     1       1.110   3.216   3.174  0.00  0.00    +0.110 C 
ATOM      2  C   UNL     1       1.270   1.721   3.075  0.00  0.00    +0.218 C 
ATOM      3  O   UNL     1       1.091   1.026   4.053  0.00  0.00    -0.276 OA
ATOM      4  N   UNL     1       1.610   1.156   1.900  0.00  0.00    -0.258 N 
ATOM      5  C   UNL     1       1.812   1.965   0.783  0.00  0.00    +0.058 A 
ATOM      6  C   UNL     1       2.870   2.861   0.724  0.00  0.00    +0.025 A 
ATOM      7  C   UNL     1       3.071   3.603  -0.426  0.00  0.00    +0.002 A 
ATOM      8  C   UNL     1       2.228   3.454  -1.513  0.00  0.00    +0.002 A 
ATOM      9  C   UNL     1       1.157   2.579  -1.450  0.00  0.00    +0.025 A 
ATOM     10  C   UNL     1       0.942   1.855  -0.291  0.00  0.00    +0.053 A 
ATOM     11  N   UNL     1      -0.146   1.003  -0.136  0.00  0.00    -0.316 N 
ATOM     12  C   UNL     1      -0.059  -0.341   0.042  0.00  0.00    +0.017 C 
ATOM     13  C   UNL     1       0.761  -0.957   0.907  0.00  0.00    +0.037 C 
ATOM     14  C   UNL     1       1.760  -0.281   1.817  0.00  0.00    +0.146 C 
ATOM     15  C   UNL     1       0.742  -2.367   1.029  0.00  0.00    +0.163 C 
ATOM     16  O   UNL     1       1.510  -2.897   1.808  0.00  0.00    -0.292 OA
ATOM     17  C   UNL     1      -0.191  -3.230   0.235  0.00  0.00    +0.088 C 
ATOM     18  C   UNL     1      -1.440  -2.412  -0.113  0.00  0.00    +0.032 C 
ATOM     19  C   UNL     1      -0.982  -1.155  -0.851  0.00  0.00    +0.059 C 
ATOM     20  H   UNL     1      -1.169   1.409  -0.152  0.00  0.00    +0.152 HD
ENDROOT
BRANCH  14  21
ATOM     21  C   UNL     1       3.149  -0.590   1.319  0.00  0.00    -0.022 A 
ATOM     22  C   UNL     1       3.546  -0.148   0.070  0.00  0.00    +0.006 A 
ATOM     23  C   UNL     1       4.817  -0.424  -0.390  0.00  0.00    +0.015 A 
ATOM     24  C   UNL     1       5.700  -1.159   0.404  0.00  0.00    +0.059 A 
ATOM     25  C   UNL     1       5.290  -1.607   1.661  0.00  0.00    +0.015 A 
ATOM     26  C   UNL     1       4.018  -1.320   2.111  0.00  0.00    +0.006 A 
BRANCH  24  27
ATOM     27  C   UNL     1       7.061  -1.462  -0.085  0.00  0.00    +0.339 C 
ATOM     28  O   UNL     1       7.826  -2.102   0.609  0.00  0.00    -0.245 OA
BRANCH  27  29
ATOM     29  O   UNL     1       7.453  -1.029  -1.298  0.00  0.00    -0.464 OA
ATOM     30  C   UNL     1       8.803  -1.364  -1.713  0.00  0.00    +0.280 C 
ENDBRANCH  27  29
ENDBRANCH  24  27
ENDBRANCH  14  21
BRANCH  18  31
ATOM     31  C   UNL     1      -2.351  -3.221  -1.000  0.00  0.00    -0.040 A 
ATOM     32  C   UNL     1      -1.889  -3.696  -2.213  0.00  0.00    +0.008 A 
ATOM     33  C   UNL     1      -2.719  -4.444  -3.027  0.00  0.00    +0.049 A 
ATOM     34  C   UNL     1      -4.020  -4.710  -2.633  0.00  0.00    +0.161 A 
ATOM     35  C   UNL     1      -4.487  -4.227  -1.414  0.00  0.00    +0.162 A 
ATOM     36  C   UNL     1      -3.648  -3.483  -0.600  0.00  0.00    +0.053 A 
BRANCH  35  37
ATOM     37  O   UNL     1      -5.764  -4.485  -1.023  0.00  0.00    -0.491 OA
ATOM     38  C   UNL     1      -6.175  -3.957   0.239  0.00  0.00    +0.277 C 
ENDBRANCH  35  37
BRANCH  34  39
ATOM     39  O   UNL     1      -4.840  -5.440  -3.436  0.00  0.00    -0.491 OA
ATOM     40  C   UNL     1      -4.293  -5.903  -4.672  0.00  0.00    +0.277 C 
ENDBRANCH  34  39
ENDBRANCH  18  31
TORSDOF 6
