REMARK  Name = ZINC22419264
REMARK  9 active torsions:
REMARK  status: ('A' for Active; 'I' for Inactive)
REMARK    1  A    between atoms: C_1  and  N_2
REMARK    2  A    between atoms: N_2  and  C_3
REMARK    3  A    between atoms: N_2  and  C_4
REMARK    4  A    between atoms: C_7  and  C_10
REMARK    5  A    between atoms: C_10  and  C_12
REMARK    6  A    between atoms: C_10  and  N_25
REMARK    7  A    between atoms: C_12  and  N_13
REMARK    8  A    between atoms: N_16  and  C_17
REMARK    9  A    between atoms: C_17  and  C_18
REMARK                            x       y       z     vdW  Elec       q    Type
REMARK                         _______ _______ _______ _____ _____    ______ ____
ROOT
ATOM      1  C   UNL     1      -1.366   2.083  -5.810  0.00  0.00    -0.020 C 
ENDROOT
BRANCH   1   2
ATOM      2  N   UNL     1      -2.759   1.745  -5.486  0.00  0.00    +0.388 N 
ATOM      3  C   UNL     1      -3.692   2.419  -6.402  0.00  0.00    -0.073 C 
ATOM      4  C   UNL     1      -5.066   1.762  -6.265  0.00  0.00    +0.017 C 
ATOM      5  C   UNL     1      -5.456   1.683  -4.812  0.00  0.00    -0.048 A 
ATOM      6  C   UNL     1      -6.787   1.455  -4.496  0.00  0.00    +0.004 A 
ATOM      7  C   UNL     1      -7.187   1.372  -3.177  0.00  0.00    +0.000 A 
ATOM      8  C   UNL     1      -6.255   1.518  -2.166  0.00  0.00    +0.000 A 
ATOM      9  C   UNL     1      -4.931   1.746  -2.479  0.00  0.00    +0.002 A 
ATOM     10  C   UNL     1      -4.528   1.832  -3.804  0.00  0.00    -0.061 A 
ATOM     11  C   UNL     1      -3.073   2.091  -4.096  0.00  0.00    -0.042 C 
ATOM     12  H   UNL     1      -2.874   0.658  -5.605  0.00  0.00    -0.080 HD
ENDBRANCH   1   2
BRANCH   1  16
ATOM     13  C   UNL     1      -0.421   0.630  -9.717  0.00  0.00    +0.029 A 
ATOM     14  C   UNL     1       0.045   1.872  -9.304  0.00  0.00    +0.023 A 
ATOM     15  C   UNL     1      -0.262   2.339  -8.041  0.00  0.00    +0.004 A 
ATOM     16  C   UNL     1      -1.033   1.571  -7.187  0.00  0.00    -0.059 A 
ATOM     17  C   UNL     1      -1.494   0.332  -7.593  0.00  0.00    +0.004 A 
ATOM     18  C   UNL     1      -1.195  -0.138  -8.857  0.00  0.00    +0.023 A 
BRANCH  13  20
ATOM     19  C   UNL     1       0.705   0.968 -11.899  0.00  0.00    +0.129 C 
ATOM     20  N   UNL     1      -0.111   0.156 -10.993  0.00  0.00    -0.336 N 
ATOM     21  C   UNL     1      -0.604  -1.154 -11.427  0.00  0.00    +0.129 C 
ENDBRANCH  13  20
ENDBRANCH   1  16
BRANCH   1  22
ATOM     22  C   UNL     1      -0.432   1.436  -4.785  0.00  0.00    +0.095 C 
BRANCH  22  23
ATOM     23  N   UNL     1       0.948   1.845  -5.055  0.00  0.00    -0.301 N 
ATOM     24  C   UNL     1       1.938   1.472  -4.220  0.00  0.00    +0.300 C 
ATOM     25  O   UNL     1       1.685   0.795  -3.242  0.00  0.00    -0.253 OA
ATOM     26  N   UNL     1       3.208   1.849  -4.468  0.00  0.00    -0.295 N 
ATOM     27  H   UNL     1       1.177   2.458  -5.940  0.00  0.00    +0.150 HD
ATOM     28  H   UNL     1       3.436   2.461  -5.353  0.00  0.00    +0.151 HD
BRANCH  26  29
ATOM     29  C   UNL     1       4.283   1.443  -3.560  0.00  0.00    +0.141 C 
BRANCH  29  30
ATOM     30  C   UNL     1       5.596   1.990  -4.060  0.00  0.00    -0.030 A 
ATOM     31  C   UNL     1       6.369   1.243  -4.929  0.00  0.00    +0.008 A 
ATOM     32  C   UNL     1       7.570   1.746  -5.392  0.00  0.00    +0.038 A 
ATOM     33  C   UNL     1       8.004   2.993  -4.976  0.00  0.00    +0.123 A 
ATOM     34  C   UNL     1       7.231   3.737  -4.101  0.00  0.00    +0.038 A 
ATOM     35  C   UNL     1       6.028   3.235  -3.644  0.00  0.00    +0.008 A 
ATOM     36  F   UNL     1       9.181   3.483  -5.424  0.00  0.00    -0.205 F 
ENDBRANCH  29  30
ENDBRANCH  26  29
ENDBRANCH  22  23
ENDBRANCH   1  22
TORSDOF 7
