REMARK  Name = ZINC24884585
REMARK  7 active torsions:
REMARK  status: ('A' for Active; 'I' for Inactive)
REMARK    1  A    between atoms: C_1  and  C_2
REMARK    2  A    between atoms: C_18  and  S_19
REMARK    3  A    between atoms: S_19  and  C_20
REMARK    4  A    between atoms: C_20  and  C_21
REMARK    5  A    between atoms: N_23  and  C_24
REMARK    6  A    between atoms: C_24  and  C_26
REMARK    7  A    between atoms: C_24  and  C_27
REMARK                            x       y       z     vdW  Elec       q    Type
REMARK                         _______ _______ _______ _____ _____    ______ ____
ROOT
ATOM      1  C   UNL     1       9.826  10.435  -2.361  0.00  0.00    +0.044 C 
ATOM      2  C   UNL     1       8.914   9.809  -3.384  0.00  0.00    -0.046 A 
ATOM      3  C   UNL     1       9.371   8.800  -4.220  0.00  0.00    +0.023 A 
ATOM      4  C   UNL     1       8.509   8.248  -5.147  0.00  0.00    +0.113 A 
ATOM      5  N   UNL     1       7.262   8.668  -5.246  0.00  0.00    -0.237 NA
ATOM      6  C   UNL     1       6.790   9.627  -4.467  0.00  0.00    +0.142 A 
ATOM      7  C   UNL     1       7.603  10.232  -3.515  0.00  0.00    +0.050 A 
ATOM      8  N   UNL     1       5.463  10.040  -4.606  0.00  0.00    -0.240 N 
ATOM      9  C   UNL     1       5.161  11.057  -5.446  0.00  0.00    +0.268 A 
ATOM     10  O   UNL     1       6.026  11.624  -6.088  0.00  0.00    -0.267 OA
ATOM     11  C   UNL     1       3.750  11.453  -5.555  0.00  0.00    +0.063 A 
ATOM     12  C   UNL     1       3.338  12.488  -6.394  0.00  0.00    +0.015 A 
ATOM     13  C   UNL     1       2.012  12.815  -6.458  0.00  0.00    +0.001 A 
ATOM     14  C   UNL     1       1.073  12.128  -5.699  0.00  0.00    +0.002 A 
ATOM     15  C   UNL     1       1.450  11.109  -4.870  0.00  0.00    +0.026 A 
ATOM     16  C   UNL     1       2.798  10.751  -4.781  0.00  0.00    +0.053 A 
ATOM     17  N   UNL     1       3.213   9.745  -3.976  0.00  0.00    -0.335 N 
ATOM     18  C   UNL     1       4.478   9.414  -3.892  0.00  0.00    +0.156 A 
ATOM     19  H   UNL     1       2.483   9.185  -3.374  0.00  0.00    +0.168 HD
ENDROOT
BRANCH  18  20
ATOM     20  S   UNL     1       4.931   8.096  -2.813  0.00  0.00    -0.080 S 
BRANCH  20  21
ATOM     21  C   UNL     1       3.304   7.656  -2.154  0.00  0.00    +0.173 C 
BRANCH  21  22
ATOM     22  C   UNL     1       3.448   6.515  -1.180  0.00  0.00    +0.224 C 
ATOM     23  O   UNL     1       4.543   6.046  -0.953  0.00  0.00    -0.275 OA
ATOM     24  N   UNL     1       2.360   6.017  -0.560  0.00  0.00    -0.308 N 
ATOM     25  H   UNL     1       1.367   6.442  -0.765  0.00  0.00    +0.149 HD
BRANCH  24  26
ATOM     26  C   UNL     1       2.500   4.908   0.387  0.00  0.00    +0.100 C 
ATOM     27  C   UNL     1       2.854   5.460   1.770  0.00  0.00    +0.033 C 
BRANCH  26  28
ATOM     28  C   UNL     1       1.201   4.148   0.467  0.00  0.00    -0.026 A 
ATOM     29  C   UNL     1      -0.001   4.831   0.463  0.00  0.00    +0.007 A 
ATOM     30  C   UNL     1      -1.192   4.135   0.536  0.00  0.00    +0.022 A 
ATOM     31  C   UNL     1      -1.183   2.754   0.608  0.00  0.00    +0.059 A 
ATOM     32  C   UNL     1       0.020   2.070   0.617  0.00  0.00    +0.060 A 
ATOM     33  C   UNL     1       1.212   2.768   0.543  0.00  0.00    +0.027 A 
ATOM     34 CL   UNL     1       0.033   0.337   0.714  0.00  0.00    -0.082 Cl
ATOM     35 CL   UNL     1      -2.680   1.879   0.692  0.00  0.00    -0.082 Cl
ENDBRANCH  26  28
ENDBRANCH  24  26
ENDBRANCH  21  22
ENDBRANCH  20  21
ENDBRANCH  18  20
TORSDOF 5
