REMARK  Name = ZINC36543899
REMARK  7 active torsions:
REMARK  status: ('A' for Active; 'I' for Inactive)
REMARK    1  A    between atoms: C_5  and  N_7
REMARK    2  A    between atoms: N_7  and  C_8
REMARK    3  A    between atoms: C_8  and  C_10
REMARK    4  A    between atoms: C_8  and  C_17
REMARK    5  A    between atoms: C_14  and  O_16
REMARK    6  A    between atoms: N_19  and  C_20
REMARK    7  A    between atoms: C_26  and  C_28
REMARK                            x       y       z     vdW  Elec       q    Type
REMARK                         _______ _______ _______ _____ _____    ______ ____
ROOT
ATOM      1  C   UNL     1       1.233  -2.816  -1.289  0.00  0.00    +0.198 C 
ENDROOT
BRANCH   1   2
ATOM      2  C   UNL     1       0.082  -3.788  -1.302  0.00  0.00    -0.014 A 
ATOM      3  C   UNL     1       0.328  -5.149  -1.325  0.00  0.00    +0.006 A 
ATOM      4  C   UNL     1      -0.726  -6.044  -1.337  0.00  0.00    +0.004 A 
ATOM      5  C   UNL     1      -2.027  -5.581  -1.326  0.00  0.00    +0.045 A 
ATOM      6  C   UNL     1      -2.277  -4.217  -1.302  0.00  0.00    +0.117 A 
ATOM      7  C   UNL     1      -1.217  -3.321  -1.284  0.00  0.00    +0.051 A 
BRANCH   6   8
ATOM      8  O   UNL     1      -3.556  -3.759  -1.291  0.00  0.00    -0.507 OA
ATOM      9  H   UNL     1      -3.924  -3.641  -0.405  0.00  0.00    +0.292 HD
ENDBRANCH   6   8
ENDBRANCH   1   2
BRANCH   1  10
ATOM     10  C   UNL     1       2.529  -3.569  -1.441  0.00  0.00    +0.239 C 
ATOM     11  O   UNL     1       3.375  -3.501  -0.575  0.00  0.00    -0.273 OA
ATOM     12  N   UNL     1       2.748  -4.318  -2.540  0.00  0.00    -0.311 N 
ATOM     13  H   UNL     1       2.072  -4.372  -3.233  0.00  0.00    +0.149 HD
BRANCH  12  14
ATOM     14  C   UNL     1       4.008  -5.050  -2.688  0.00  0.00    +0.073 C 
ATOM     15  C   UNL     1       5.069  -4.125  -3.287  0.00  0.00    +0.022 C 
ATOM     16  C   UNL     1       6.385  -4.889  -3.441  0.00  0.00    +0.002 C 
ATOM     17  C   UNL     1       6.173  -6.088  -4.367  0.00  0.00    +0.000 C 
ATOM     18  C   UNL     1       5.112  -7.014  -3.769  0.00  0.00    +0.002 C 
ATOM     19  C   UNL     1       3.796  -6.249  -3.614  0.00  0.00    +0.022 C 
ENDBRANCH  12  14
ENDBRANCH   1  10
BRANCH   1  20
ATOM     20  N   UNL     1       1.239  -2.084  -0.020  0.00  0.00    -0.247 N 
ATOM     21  C   UNL     1       1.302  -2.757   1.146  0.00  0.00    +0.287 C 
ATOM     22  O   UNL     1       1.446  -3.965   1.144  0.00  0.00    -0.266 OA
BRANCH  20  27
ATOM     23  C   UNL     1      -0.103   1.339   0.018  0.00  0.00    +0.002 A 
ATOM     24  C   UNL     1       1.065   2.079  -0.016  0.00  0.00    +0.002 A 
ATOM     25  C   UNL     1       2.291   1.441  -0.051  0.00  0.00    +0.022 A 
ATOM     26  C   UNL     1       2.353   0.060  -0.052  0.00  0.00    +0.062 A 
ATOM     27  C   UNL     1       1.181  -0.686  -0.018  0.00  0.00    +0.056 A 
ATOM     28  C   UNL     1      -0.048  -0.041   0.017  0.00  0.00    +0.025 A 
ATOM     29 CL   UNL     1       3.892  -0.741  -0.098  0.00  0.00    -0.082 Cl
ENDBRANCH  20  27
BRANCH  21  30
ATOM     30  C   UNL     1       1.196  -2.034   2.417  0.00  0.00    +0.190 A 
ATOM     31  C   UNL     1       1.248  -2.589   3.663  0.00  0.00    +0.054 A 
ATOM     32  C   UNL     1       1.106  -1.536   4.581  0.00  0.00    +0.042 A 
ATOM     33  C   UNL     1       0.974  -0.399   3.863  0.00  0.00    +0.196 A 
ATOM     34  O   UNL     1       1.035  -0.702   2.560  0.00  0.00    -0.458 OA
ENDBRANCH  21  30
ENDBRANCH   1  20
TORSDOF 7
