REMARK  Name = ZINC00755518
REMARK  6 active torsions:
REMARK  status: ('A' for Active; 'I' for Inactive)
REMARK    1  A    between atoms: C_1  and  C_2
REMARK    2  A    between atoms: C_2  and  C_28
REMARK    3  A    between atoms: C_6  and  C_14
REMARK    4  A    between atoms: C_8  and  C_12
REMARK    5  A    between atoms: C_9  and  N_11
REMARK    6  A    between atoms: C_17  and  C_19
REMARK                            x       y       z     vdW  Elec       q    Type
REMARK                         _______ _______ _______ _____ _____    ______ ____
ROOT
ATOM      1  C   UNL     1      -0.075   3.750   2.192  0.00  0.00    +0.012 C 
ATOM      2  C   UNL     1      -0.124   4.222   0.738  0.00  0.00    -0.021 C 
ATOM      3  C   UNL     1       1.112   3.716  -0.009  0.00  0.00    +0.081 C 
ATOM      4  C   UNL     1       1.131   2.206   0.003  0.00  0.00    +0.115 C 
ATOM      5  C   UNL     1      -0.018   1.505   0.010  0.00  0.00    +0.049 C 
ATOM      6  C   UNL     1       0.002  -0.004   0.002  0.00  0.00    +0.137 C 
ATOM      7  C   UNL     1       1.346  -0.500  -0.454  0.00  0.00    +0.101 C 
ATOM      8  C   UNL     1       2.424   0.322  -0.430  0.00  0.00    +0.198 C 
ATOM      9  O   UNL     1       2.327   1.589   0.001  0.00  0.00    -0.445 OA
ATOM     10  C   UNL     1      -1.270   2.151   0.032  0.00  0.00    +0.164 C 
ATOM     11  O   UNL     1      -2.285   1.485   0.028  0.00  0.00    -0.292 OA
ATOM     12  C   UNL     1      -1.372   3.652   0.054  0.00  0.00    +0.086 C 
ATOM     13  C   UNL     1      -0.162   5.751   0.694  0.00  0.00    +0.012 C 
ENDROOT
BRANCH   6  14
ATOM     14  C   UNL     1      -0.273  -0.515   1.393  0.00  0.00    +0.118 A 
ATOM     15  C   UNL     1      -1.306  -1.304   1.750  0.00  0.00    +0.046 A 
ATOM     16  C   UNL     1      -1.183  -1.544   3.133  0.00  0.00    +0.050 A 
ATOM     17  C   UNL     1      -0.075  -0.875   3.549  0.00  0.00    +0.135 A 
ATOM     18  O   UNL     1       0.467  -0.256   2.483  0.00  0.00    -0.459 OA
BRANCH  17  19
ATOM     19  C   UNL     1       0.445  -0.835   4.932  0.00  0.00    +0.017 A 
ATOM     20  C   UNL     1      -0.219  -1.520   5.951  0.00  0.00    +0.011 A 
ATOM     21  C   UNL     1       0.274  -1.482   7.239  0.00  0.00    +0.001 A 
ATOM     22  C   UNL     1       1.418  -0.757   7.524  0.00  0.00    +0.000 A 
ATOM     23  C   UNL     1       2.078  -0.071   6.520  0.00  0.00    +0.001 A 
ATOM     24  C   UNL     1       1.599  -0.106   5.226  0.00  0.00    +0.011 A 
ENDBRANCH  17  19
ENDBRANCH   6  14
BRANCH   8  25
ATOM     25  N   UNL     1       3.639  -0.153  -0.856  0.00  0.00    -0.328 N 
ATOM     26  H   UNL     1       3.721  -1.067  -1.170  0.00  0.00    +0.145 HD
ATOM     27  H   UNL     1       4.418   0.427  -0.843  0.00  0.00    +0.145 HD
ENDBRANCH   8  25
BRANCH   7  28
ATOM     28  C   UNL     1       1.488  -1.847  -0.918  0.00  0.00    +0.101 C 
ATOM     29  N   UNL     1       1.600  -2.916  -1.285  0.00  0.00    -0.191 NA
ENDBRANCH   7  28
TORSDOF 4
