REMARK  Name = ZINC36660280
REMARK  11 active torsions:
REMARK  status: ('A' for Active; 'I' for Inactive)
REMARK    1  A    between atoms: C_1  and  C_2
REMARK    2  A    between atoms: C_2  and  N_3
REMARK    3  A    between atoms: N_3  and  C_4
REMARK    4  A    between atoms: N_3  and  C_6
REMARK    5  A    between atoms: C_4  and  C_5
REMARK    6  A    between atoms: C_6  and  C_7
REMARK    7  A    between atoms: C_7  and  N_8
REMARK    8  A    between atoms: C_19  and  C_21
REMARK    9  A    between atoms: N_26  and  S_27
REMARK   10  A    between atoms: S_27  and  C_30
REMARK   11  A    between atoms: C_33  and  C_36
REMARK                            x       y       z     vdW  Elec       q    Type
REMARK                         _______ _______ _______ _____ _____    ______ ____
ROOT
ATOM      1  N   UNL     1      -0.827  -3.359   2.470  0.00  0.00    -0.251 N 
ATOM      2  C   UNL     1       0.299  -4.140   2.260  0.00  0.00    +0.168 A 
ATOM      3  N   UNL     1       1.443  -3.803   1.713  0.00  0.00    -0.224 NA
ATOM      4  C   UNL     1       2.465  -4.676   1.571  0.00  0.00    +0.080 A 
ATOM      5  C   UNL     1       3.739  -4.444   1.003  0.00  0.00    +0.032 A 
ATOM      6  C   UNL     1       4.669  -5.447   0.933  0.00  0.00    +0.040 A 
ATOM      7  C   UNL     1       4.398  -6.722   1.414  0.00  0.00    +0.125 A 
ATOM      8  C   UNL     1       3.160  -6.985   1.977  0.00  0.00    +0.055 A 
ATOM      9  C   UNL     1       2.224  -5.984   2.050  0.00  0.00    +0.043 A 
ATOM     10  S   UNL     1       0.564  -5.859   2.671  0.00  0.00    -0.052 S 
ATOM     11  F   UNL     1       5.331  -7.696   1.333  0.00  0.00    -0.205 F 
ATOM     12  C   UNL     1      -1.915  -3.892   3.060  0.00  0.00    +0.240 C 
ATOM     13  O   UNL     1      -1.878  -5.025   3.491  0.00  0.00    -0.273 OA
ENDROOT
BRANCH  12  14
ATOM     14  C   UNL     1      -3.178  -3.079   3.185  0.00  0.00    +0.166 C 
ATOM     15  C   UNL     1      -3.183  -2.320   4.529  0.00  0.00    +0.031 C 
ATOM     16  C   UNL     1      -4.668  -2.409   4.972  0.00  0.00    +0.019 C 
ATOM     17  C   UNL     1      -5.061  -3.818   4.464  0.00  0.00    +0.110 C 
ATOM     18  N   UNL     1      -4.348  -3.969   3.178  0.00  0.00    -0.165 NA
BRANCH  18  19
ATOM     19  S   UNL     1      -4.791  -4.971   1.936  0.00  0.00    +0.062 S 
ATOM     20  O   UNL     1      -6.207  -5.082   1.990  0.00  0.00    -0.153 OA
ATOM     21  O   UNL     1      -4.106  -4.512   0.779  0.00  0.00    -0.153 OA
BRANCH  19  22
ATOM     22  C   UNL     1      -4.147  -6.570   2.302  0.00  0.00    +0.106 A 
ATOM     23  C   UNL     1      -2.936  -6.967   1.765  0.00  0.00    +0.029 A 
ATOM     24  C   UNL     1      -2.431  -8.221   2.052  0.00  0.00    +0.005 A 
ATOM     25  C   UNL     1      -3.135  -9.078   2.876  0.00  0.00    -0.050 A 
ATOM     26  C   UNL     1      -4.345  -8.681   3.414  0.00  0.00    +0.005 A 
ATOM     27  C   UNL     1      -4.849  -7.425   3.131  0.00  0.00    +0.029 A 
ATOM     28  C   UNL     1      -2.584 -10.446   3.188  0.00  0.00    +0.044 C 
ENDBRANCH  19  22
ENDBRANCH  18  19
ENDBRANCH  12  14
BRANCH   1  29
ATOM     29  C   UNL     1      -0.833  -1.956   2.051  0.00  0.00    +0.097 C 
BRANCH  29  30
ATOM     30  C   UNL     1      -1.369  -1.853   0.622  0.00  0.00    -0.059 C 
BRANCH  30  31
ATOM     31  N   UNL     1      -1.375  -0.445   0.202  0.00  0.00    +0.380 N 
ATOM     32  H   UNL     1      -1.899   0.102   0.868  0.00  0.00    -0.082 HD
BRANCH  31  34
ATOM     33  C   UNL     1      -0.008   1.555  -0.158  0.00  0.00    -0.017 C 
ATOM     34  C   UNL     1       0.005   0.053   0.137  0.00  0.00    -0.082 C 
ENDBRANCH  31  34
BRANCH  31  35
ATOM     35  C   UNL     1      -2.000  -0.332  -1.123  0.00  0.00    -0.082 C 
ATOM     36  C   UNL     1      -3.479  -0.711  -1.024  0.00  0.00    -0.017 C 
ENDBRANCH  31  35
ENDBRANCH  30  31
ENDBRANCH  29  30
ENDBRANCH   1  29
TORSDOF 8
