REMARK  Name = ZINC09218870
REMARK  7 active torsions:
REMARK  status: ('A' for Active; 'I' for Inactive)
REMARK    1  A    between atoms: C_1  and  C_2
REMARK    2  A    between atoms: C_5  and  C_8
REMARK    3  A    between atoms: C_11  and  C_14
REMARK    4  A    between atoms: C_19  and  C_21
REMARK    5  A    between atoms: C_21  and  N_22
REMARK    6  A    between atoms: C_25  and  C_29
REMARK    7  A    between atoms: C_25  and  C_30
REMARK                            x       y       z     vdW  Elec       q    Type
REMARK                         _______ _______ _______ _____ _____    ______ ____
ROOT
ATOM      1  C   UNL     1       3.655   2.158  -0.020  0.00  0.00    +0.069 C 
ATOM      2  N   UNL     1       4.830   1.631  -0.033  0.00  0.00    -0.181 NA
ATOM      3  N   UNL     1       5.870   2.559  -0.037  0.00  0.00    -0.181 N 
ATOM      4  C   UNL     1       5.298   3.915  -0.025  0.00  0.00    +0.173 C 
ATOM      5  C   UNL     1       3.776   3.665  -0.019  0.00  0.00    +0.090 C 
ATOM      6  C   UNL     1       7.184   2.263  -0.050  0.00  0.00    +0.253 C 
ATOM      7  O   UNL     1       8.007   3.154  -0.052  0.00  0.00    -0.272 OA
ENDROOT
BRANCH   1  12
ATOM      8  C   UNL     1      -1.295  -0.772   0.010  0.00  0.00    +0.044 C 
ATOM      9  C   UNL     1       0.002  -0.004   0.002  0.00  0.00    -0.050 A 
ATOM     10  C   UNL     1      -0.017   1.379   0.010  0.00  0.00    +0.004 A 
ATOM     11  C   UNL     1       1.166   2.089   0.002  0.00  0.00    +0.010 A 
ATOM     12  C   UNL     1       2.385   1.407  -0.013  0.00  0.00    -0.002 A 
ATOM     13  C   UNL     1       2.397   0.010  -0.020  0.00  0.00    +0.010 A 
ATOM     14  C   UNL     1       1.206  -0.686  -0.013  0.00  0.00    +0.004 A 
ENDBRANCH   1  12
BRANCH   4  15
ATOM     15  C   UNL     1       5.701   4.672  -1.264  0.00  0.00    +0.128 A 
ATOM     16  C   UNL     1       6.019   5.978  -1.319  0.00  0.00    +0.046 A 
ATOM     17  C   UNL     1       6.334   6.266  -2.667  0.00  0.00    +0.041 A 
ATOM     18  C   UNL     1       6.182   5.121  -3.356  0.00  0.00    +0.195 A 
ATOM     19  O   UNL     1       5.798   4.159  -2.501  0.00  0.00    -0.466 OA
ENDBRANCH   4  15
BRANCH   6  20
ATOM     20  C   UNL     1       7.633   0.824  -0.061  0.00  0.00    +0.215 C 
BRANCH  20  21
ATOM     21  N   UNL     1       9.097   0.769  -0.074  0.00  0.00    -0.215 N 
ATOM     22  C   UNL     1       9.862   0.734   1.034  0.00  0.00    +0.251 C 
ATOM     23  O   UNL     1       9.484   0.744   2.186  0.00  0.00    -0.272 OA
ATOM     24  C   UNL     1      11.295   0.682   0.541  0.00  0.00    +0.135 C 
ATOM     25  N   UNL     1      11.157   0.694  -0.925  0.00  0.00    -0.281 N 
ATOM     26  C   UNL     1       9.838   0.741  -1.187  0.00  0.00    +0.310 C 
ATOM     27  O   UNL     1       9.373   0.759  -2.310  0.00  0.00    -0.252 OA
ATOM     28  C   UNL     1      12.074   1.909   1.019  0.00  0.00    +0.047 C 
ATOM     29  H   UNL     1      11.876   0.669  -1.575  0.00  0.00    +0.152 HD
BRANCH  24  30
ATOM     30  C   UNL     1      11.968  -0.585   1.003  0.00  0.00    -0.015 A 
ATOM     31  C   UNL     1      11.587  -1.177   2.193  0.00  0.00    +0.006 A 
ATOM     32  C   UNL     1      12.205  -2.338   2.614  0.00  0.00    +0.004 A 
ATOM     33  C   UNL     1      13.207  -2.912   1.848  0.00  0.00    -0.044 A 
ATOM     34  C   UNL     1      13.588  -2.320   0.659  0.00  0.00    -0.044 A 
ATOM     35  C   UNL     1      12.963  -1.158   0.236  0.00  0.00    +0.010 A 
ATOM     36  C   UNL     1      14.691  -3.131   0.014  0.00  0.00    +0.036 C 
ATOM     37  C   UNL     1      14.639  -4.508   0.709  0.00  0.00    +0.009 C 
ATOM     38  C   UNL     1      14.027  -4.162   2.083  0.00  0.00    +0.036 C 
ENDBRANCH  24  30
ENDBRANCH  20  21
ENDBRANCH   6  20
TORSDOF 5
