REMARK  Name = ZINC36548404
REMARK  8 active torsions:
REMARK  status: ('A' for Active; 'I' for Inactive)
REMARK    1  A    between atoms: C_1  and  C_2
REMARK    2  A    between atoms: C_2  and  C_4
REMARK    3  A    between atoms: C_2  and  C_10
REMARK    4  A    between atoms: C_10  and  C_12
REMARK    5  A    between atoms: C_10  and  N_21
REMARK    6  A    between atoms: N_14  and  C_15
REMARK    7  A    between atoms: N_21  and  C_22
REMARK    8  A    between atoms: C_29  and  C_31
REMARK                            x       y       z     vdW  Elec       q    Type
REMARK                         _______ _______ _______ _____ _____    ______ ____
ROOT
ATOM      1  C   UNL     1       0.699  -0.357  -1.161  0.00  0.00    +0.174 C 
ENDROOT
BRANCH   1   2
ATOM      2  C   UNL     1       0.446  -1.829  -0.960  0.00  0.00    +0.235 C 
ATOM      3  O   UNL     1      -0.287  -2.428  -1.719  0.00  0.00    -0.274 OA
ATOM      4  N   UNL     1       1.033  -2.480   0.064  0.00  0.00    -0.311 N 
ATOM      5  H   UNL     1       1.619  -2.001   0.671  0.00  0.00    +0.149 HD
BRANCH   4   6
ATOM      6  C   UNL     1       0.787  -3.911   0.259  0.00  0.00    +0.073 C 
ATOM      7  C   UNL     1      -0.498  -4.102   1.068  0.00  0.00    +0.022 C 
ATOM      8  C   UNL     1      -0.754  -5.596   1.272  0.00  0.00    +0.002 C 
ATOM      9  C   UNL     1       0.421  -6.217   2.029  0.00  0.00    +0.000 C 
ATOM     10  C   UNL     1       1.706  -6.026   1.221  0.00  0.00    +0.002 C 
ATOM     11  C   UNL     1       1.963  -4.532   1.016  0.00  0.00    +0.022 C 
ENDBRANCH   4   6
ENDBRANCH   1   2
BRANCH   1  12
ATOM     12  N   UNL     1       0.950  -0.095  -2.580  0.00  0.00    -0.256 N 
ATOM     13  C   UNL     1       2.061   0.571  -2.956  0.00  0.00    +0.241 C 
ATOM     14  O   UNL     1       2.851   0.952  -2.119  0.00  0.00    -0.273 OA
BRANCH  12  15
ATOM     15  C   UNL     1       0.038  -0.535  -3.546  0.00  0.00    +0.055 A 
ATOM     16  C   UNL     1      -1.032   0.272  -3.911  0.00  0.00    +0.025 A 
ATOM     17  C   UNL     1      -1.931  -0.165  -4.864  0.00  0.00    +0.002 A 
ATOM     18  C   UNL     1      -1.767  -1.405  -5.456  0.00  0.00    +0.002 A 
ATOM     19  C   UNL     1      -0.703  -2.211  -5.095  0.00  0.00    +0.022 A 
ATOM     20  C   UNL     1       0.204  -1.777  -4.146  0.00  0.00    +0.062 A 
ATOM     21 CL   UNL     1       1.544  -2.785  -3.700  0.00  0.00    -0.082 Cl
ENDBRANCH  12  15
BRANCH  13  22
ATOM     22  C   UNL     1       2.320   0.841  -4.415  0.00  0.00    +0.160 C 
ATOM     23  C   UNL     1       2.932  -0.407  -5.090  0.00  0.00    +0.041 C 
ATOM     24  C   UNL     1       4.446  -0.118  -4.972  0.00  0.00    +0.098 C 
ATOM     25  C   UNL     1       4.530   1.389  -4.872  0.00  0.00    +0.214 C 
ATOM     26  O   UNL     1       5.537   2.042  -5.045  0.00  0.00    -0.276 OA
ATOM     27  N   UNL     1       3.323   1.901  -4.565  0.00  0.00    -0.304 N 
ATOM     28  H   UNL     1       3.140   2.848  -4.457  0.00  0.00    +0.149 HD
ENDBRANCH  13  22
ENDBRANCH   1  12
BRANCH   1  30
ATOM     29  C   UNL     1      -0.270   1.932  -0.909  0.00  0.00    +0.015 C 
ATOM     30  C   UNL     1      -0.526   0.438  -0.705  0.00  0.00    +0.046 C 
BRANCH  30  31
ATOM     31  C   UNL     1      -0.785   0.168   0.755  0.00  0.00    -0.042 A 
ATOM     32  C   UNL     1       0.178   0.478   1.697  0.00  0.00    +0.004 A 
ATOM     33  C   UNL     1      -0.060   0.230   3.036  0.00  0.00    +0.000 A 
ATOM     34  C   UNL     1      -1.261  -0.328   3.433  0.00  0.00    +0.000 A 
ATOM     35  C   UNL     1      -2.224  -0.637   2.491  0.00  0.00    +0.000 A 
ATOM     36  C   UNL     1      -1.989  -0.385   1.153  0.00  0.00    +0.004 A 
ENDBRANCH  30  31
ENDBRANCH   1  30
TORSDOF 7
