REMARK  Name = ZINC66483330
REMARK  5 active torsions:
REMARK  status: ('A' for Active; 'I' for Inactive)
REMARK    1  A    between atoms: C_1  and  C_2
REMARK    2  A    between atoms: C_2  and  C_17
REMARK    3  A    between atoms: N_5  and  C_9
REMARK    4  A    between atoms: C_9  and  C_10
REMARK    5  A    between atoms: C_10  and  O_16
REMARK                            x       y       z     vdW  Elec       q    Type
REMARK                         _______ _______ _______ _____ _____    ______ ____
ROOT
ATOM      1  C   UNL     1      -0.019   1.526   0.010  0.00  0.00    +0.047 C 
ATOM      2  C   UNL     1       0.002  -0.004   0.002  0.00  0.00    +0.135 C 
ATOM      3  C   UNL     1       0.815  -0.520  -1.169  0.00  0.00    +0.251 C 
ATOM      4  O   UNL     1       0.595  -0.342  -2.348  0.00  0.00    -0.272 OA
ATOM      5  N   UNL     1       1.833  -1.217  -0.627  0.00  0.00    -0.221 N 
ATOM      6  C   UNL     1       1.777  -1.214   0.710  0.00  0.00    +0.310 C 
ATOM      7  O   UNL     1       2.586  -1.776   1.421  0.00  0.00    -0.252 OA
ATOM      8  N   UNL     1       0.724  -0.519   1.178  0.00  0.00    -0.281 N 
ATOM      9  H   UNL     1       0.487  -0.383   2.109  0.00  0.00    +0.152 HD
ENDROOT
BRANCH   2  10
ATOM     10  C   UNL     1      -1.401  -0.551  -0.040  0.00  0.00    -0.014 A 
ATOM     11  C   UNL     1      -2.005  -0.815  -1.256  0.00  0.00    +0.006 A 
ATOM     12  C   UNL     1      -3.292  -1.317  -1.295  0.00  0.00    +0.002 A 
ATOM     13  C   UNL     1      -3.977  -1.556  -0.119  0.00  0.00    +0.020 A 
ATOM     14  C   UNL     1      -3.374  -1.293   1.098  0.00  0.00    +0.041 A 
ATOM     15  C   UNL     1      -2.083  -0.796   1.137  0.00  0.00    +0.026 A 
ATOM     16 CL   UNL     1      -4.234  -1.593   2.576  0.00  0.00    -0.084 Cl
ENDBRANCH   2  10
BRANCH   5  17
ATOM     17  C   UNL     1       2.871  -1.896  -1.406  0.00  0.00    +0.152 C 
BRANCH  17  18
ATOM     18  C   UNL     1       4.037  -0.936  -1.647  0.00  0.00    +0.082 C 
ATOM     19  C   UNL     1       3.517   0.342  -2.308  0.00  0.00    +0.036 C 
ATOM     20  C   UNL     1       4.683   1.303  -2.550  0.00  0.00    +0.003 C 
ATOM     21  C   UNL     1       5.711   0.637  -3.466  0.00  0.00    +0.000 C 
ATOM     22  C   UNL     1       6.231  -0.641  -2.805  0.00  0.00    +0.003 C 
ATOM     23  C   UNL     1       5.065  -1.602  -2.564  0.00  0.00    +0.036 C 
BRANCH  18  24
ATOM     24  O   UNL     1       4.652  -0.610  -0.399  0.00  0.00    -0.387 OA
ATOM     25  H   UNL     1       4.058  -0.184   0.233  0.00  0.00    +0.210 HD
ENDBRANCH  18  24
ENDBRANCH  17  18
ENDBRANCH   5  17
TORSDOF 4
