REMARK  Name = ZINC48795520
REMARK  7 active torsions:
REMARK  status: ('A' for Active; 'I' for Inactive)
REMARK    1  A    between atoms: C_1  and  C_2
REMARK    2  A    between atoms: C_2  and  C_3
REMARK    3  A    between atoms: C_2  and  N_4
REMARK    4  A    between atoms: N_4  and  C_5
REMARK    5  A    between atoms: C_5  and  C_6
REMARK    6  A    between atoms: C_11  and  O_12
REMARK    7  A    between atoms: O_12  and  C_13
REMARK                            x       y       z     vdW  Elec       q    Type
REMARK                         _______ _______ _______ _____ _____    ______ ____
ROOT
ATOM      1  C   UNL     1       0.644  -0.325   3.486  0.00  0.00    -0.022 A 
ATOM      2  C   UNL     1       0.217  -1.498   4.079  0.00  0.00    +0.005 A 
ATOM      3  C   UNL     1       1.035  -2.157   4.977  0.00  0.00    +0.002 A 
ATOM      4  C   UNL     1       2.283  -1.645   5.285  0.00  0.00    +0.019 A 
ATOM      5  C   UNL     1       2.714  -0.473   4.695  0.00  0.00    +0.060 A 
ATOM      6  C   UNL     1       1.896   0.188   3.789  0.00  0.00    +0.137 A 
ATOM      7 BR   UNL     1       4.419   0.227   5.116  0.00  0.00    -0.047 Br
ENDROOT
BRANCH   1   8
ATOM      8  C   UNL     1      -0.249   0.393   2.507  0.00  0.00    -0.043 C 
BRANCH   8   9
ATOM      9  N   UNL     1       0.153   0.051   1.136  0.00  0.00    +0.383 N 
ATOM     10  H   UNL     1       0.163  -0.953   1.029  0.00  0.00    -0.085 HD
ATOM     11  H   UNL     1       1.075   0.418   0.954  0.00  0.00    -0.085 HD
BRANCH   9  13
ATOM     12  C   UNL     1      -0.728   2.161   0.259  0.00  0.00    -0.014 C 
ATOM     13  C   UNL     1      -0.803   0.634   0.186  0.00  0.00    -0.078 C 
ATOM     14  C   UNL     1      -0.458   0.174  -1.232  0.00  0.00    -0.014 C 
ENDBRANCH   9  13
ENDBRANCH   8   9
ENDBRANCH   1   8
BRANCH   6  15
ATOM     15  O   UNL     1       2.320   1.339   3.203  0.00  0.00    -0.478 OA
BRANCH  15  16
ATOM     16  C   UNL     1       3.104   1.212   2.015  0.00  0.00    +0.259 C 
ATOM     17  C   UNL     1       2.795   2.373   1.067  0.00  0.00    +0.054 C 
ATOM     18  C   UNL     1       2.512   3.643   1.848  0.00  0.00    +0.006 C 
ATOM     19  C   UNL     1       3.717   4.186   2.593  0.00  0.00    +0.019 C 
ATOM     20  C   UNL     1       4.133   3.239   3.720  0.00  0.00    +0.104 C 
ATOM     21  N   UNL     1       5.042   2.221   3.169  0.00  0.00    -0.312 N 
ATOM     22  C   UNL     1       4.576   1.256   2.370  0.00  0.00    +0.254 C 
ATOM     23  O   UNL     1       5.330   0.417   1.924  0.00  0.00    -0.272 OA
ATOM     24  H   UNL     1       5.986   2.249   3.389  0.00  0.00    +0.149 HD
ENDBRANCH  15  16
ENDBRANCH   6  15
TORSDOF 5
