REMARK  Name = ZINC52298258
REMARK  6 active torsions:
REMARK  status: ('A' for Active; 'I' for Inactive)
REMARK    1  A    between atoms: C_1  and  C_2
REMARK    2  A    between atoms: C_5  and  N_7
REMARK    3  A    between atoms: N_7  and  S_8
REMARK    4  A    between atoms: S_8  and  C_11
REMARK    5  A    between atoms: C_14  and  S_18
REMARK    6  A    between atoms: S_18  and  N_21
REMARK                            x       y       z     vdW  Elec       q    Type
REMARK                         _______ _______ _______ _____ _____    ______ ____
ROOT
ATOM      1  C   UNL     1      -0.913  -1.053   4.004  0.00  0.00    +0.140 A 
ATOM      2  C   UNL     1      -2.003  -1.470   4.743  0.00  0.00    +0.033 A 
ATOM      3  C   UNL     1      -2.844  -0.538   5.322  0.00  0.00    +0.030 A 
ATOM      4  C   UNL     1      -2.595   0.812   5.163  0.00  0.00    +0.108 A 
ATOM      5  C   UNL     1      -1.505   1.232   4.424  0.00  0.00    +0.068 A 
ATOM      6  C   UNL     1      -0.659   0.299   3.848  0.00  0.00    +0.151 A 
ATOM      7  F   UNL     1       0.410   0.708   3.130  0.00  0.00    -0.203 F 
ENDROOT
BRANCH   1   8
ATOM      8  S   UNL     1       0.159  -2.242   3.266  0.00  0.00    +0.061 S 
ATOM      9  O   UNL     1      -0.377  -3.520   3.578  0.00  0.00    -0.153 OA
ATOM     10  O   UNL     1       1.484  -1.865   3.614  0.00  0.00    -0.153 OA
BRANCH   8  11
ATOM     11  N   UNL     1       0.032  -2.063   1.625  0.00  0.00    -0.187 NA
ATOM     12  H   UNL     1       0.801  -1.780   1.107  0.00  0.00    +0.148 HD
BRANCH  11  16
ATOM     13  C   UNL     1      -2.291  -3.950  -0.815  0.00  0.00    +0.009 C 
ATOM     14  C   UNL     1      -1.189  -2.956  -0.442  0.00  0.00    +0.006 C 
ATOM     15  C   UNL     1      -1.588  -1.488  -0.274  0.00  0.00    +0.025 C 
ATOM     16  C   UNL     1      -1.243  -2.333   0.955  0.00  0.00    +0.080 C 
ENDBRANCH  11  16
ENDBRANCH   8  11
ENDBRANCH   1   8
BRANCH   4  17
ATOM     17  S   UNL     1      -3.668   1.999   5.900  0.00  0.00    +0.056 S 
ATOM     18  O   UNL     1      -3.528   3.197   5.148  0.00  0.00    -0.153 OA
ATOM     19  O   UNL     1      -4.922   1.356   6.082  0.00  0.00    -0.153 OA
BRANCH  17  20
ATOM     20  N   UNL     1      -3.077   2.320   7.414  0.00  0.00    -0.204 NA
ATOM     21  H   UNL     1      -3.213   3.193   7.813  0.00  0.00    +0.144 HD
ATOM     22  H   UNL     1      -2.595   1.633   7.902  0.00  0.00    +0.144 HD
ENDBRANCH  17  20
ENDBRANCH   4  17
TORSDOF 5
