REMARK  Name = ZINC67470219
REMARK  4 active torsions:
REMARK  status: ('A' for Active; 'I' for Inactive)
REMARK    1  A    between atoms: C_1  and  N_2
REMARK    2  A    between atoms: N_2  and  C_3
REMARK    3  A    between atoms: N_15  and  C_16
REMARK    4  A    between atoms: C_25  and  C_28
REMARK                            x       y       z     vdW  Elec       q    Type
REMARK                         _______ _______ _______ _____ _____    ______ ____
ROOT
ATOM      1  C   UNL     1      -0.189   1.680   0.224  0.00  0.00    +0.134 C 
ATOM      2  N   UNL     1      -0.215   0.217   0.159  0.00  0.00    -0.282 N 
ATOM      3  C   UNL     1      -0.291  -0.403  -1.036  0.00  0.00    +0.303 C 
ATOM      4  O   UNL     1      -0.313  -1.617  -1.090  0.00  0.00    -0.253 OA
ATOM      5  N   UNL     1      -0.343   0.323  -2.170  0.00  0.00    -0.296 N 
ATOM      6  H   UNL     1      -0.325   1.292  -2.127  0.00  0.00    +0.151 HD
ENDROOT
BRANCH   5   7
ATOM      7  C   UNL     1      -0.425  -0.351  -3.468  0.00  0.00    +0.077 C 
ATOM      8  C   UNL     1      -1.887  -0.676  -3.782  0.00  0.00    +0.041 C 
ATOM      9  C   UNL     1      -1.966  -1.411  -5.123  0.00  0.00    +0.108 C 
ATOM     10  N   UNL     1      -1.295  -0.599  -6.148  0.00  0.00    -0.315 N 
ATOM     11  C   UNL     1       0.084  -0.155  -5.906  0.00  0.00    +0.108 C 
ATOM     12  C   UNL     1       0.140   0.566  -4.555  0.00  0.00    +0.041 C 
ATOM     13  C   UNL     1      -1.951  -0.260  -7.320  0.00  0.00    +0.121 A 
ATOM     14  C   UNL     1      -3.319  -0.501  -7.438  0.00  0.00    +0.045 A 
ATOM     15  C   UNL     1      -3.963  -0.165  -8.597  0.00  0.00    +0.024 A 
ATOM     16  C   UNL     1      -3.217   0.417  -9.634  0.00  0.00    +0.070 A 
ATOM     17  C   UNL     1      -1.850   0.630  -9.447  0.00  0.00    +0.131 A 
ATOM     18  N   UNL     1      -1.270   0.296  -8.313  0.00  0.00    -0.239 NA
BRANCH  16  19
ATOM     19  C   UNL     1      -3.848   0.786 -10.865  0.00  0.00    +0.101 C 
ATOM     20  N   UNL     1      -4.349   1.078 -11.842  0.00  0.00    -0.191 NA
ENDBRANCH  16  19
ENDBRANCH   5   7
BRANCH   2  21
ATOM     21  C   UNL     1      -0.159  -0.572   1.391  0.00  0.00    +0.108 C 
ATOM     22  C   UNL     1      -1.379  -0.259   2.284  0.00  0.00    +0.032 C 
ATOM     23  C   UNL     1      -0.843   0.868   3.193  0.00  0.00    +0.037 C 
ATOM     24  C   UNL     1       0.654   0.652   3.250  0.00  0.00    -0.042 A 
ATOM     25  C   UNL     1       1.049  -0.177   2.214  0.00  0.00    -0.024 A 
ATOM     26  C   UNL     1       2.383  -0.515   2.067  0.00  0.00    +0.006 A 
ATOM     27  C   UNL     1       3.325  -0.028   2.953  0.00  0.00    +0.000 A 
ATOM     28  C   UNL     1       2.934   0.800   3.989  0.00  0.00    +0.000 A 
ATOM     29  C   UNL     1       1.598   1.142   4.138  0.00  0.00    +0.004 A 
ENDBRANCH   2  21
TORSDOF 3
