REMARK  Name = ZINC43563184
REMARK  6 active torsions:
REMARK  status: ('A' for Active; 'I' for Inactive)
REMARK    1  A    between atoms: C_1  and  C_2
REMARK    2  A    between atoms: C_2  and  C_4
REMARK    3  A    between atoms: C_2  and  N_16
REMARK    4  A    between atoms: N_9  and  C_10
REMARK    5  A    between atoms: C_10  and  C_11
REMARK    6  A    between atoms: N_19  and  C_22
REMARK                            x       y       z     vdW  Elec       q    Type
REMARK                         _______ _______ _______ _____ _____    ______ ____
ROOT
ATOM      1  C   UNL     1       0.590   1.321  -0.460  0.00  0.00    -0.004 C 
ATOM      2  C   UNL     1      -0.007  -0.015  -0.013  0.00  0.00    +0.017 C 
ENDROOT
BRANCH   2   3
ATOM      3  C   UNL     1       0.810  -0.576   1.121  0.00  0.00    +0.207 C 
ATOM      4  O   UNL     1       1.726  -1.336   0.891  0.00  0.00    -0.277 OA
ATOM      5  N   UNL     1       0.523  -0.233   2.393  0.00  0.00    -0.242 N 
ATOM      6  C   UNL     1       1.254  -0.735   3.408  0.00  0.00    +0.306 C 
ATOM      7  O   UNL     1       2.173  -1.497   3.176  0.00  0.00    -0.252 OA
ATOM      8  N   UNL     1       0.968  -0.392   4.679  0.00  0.00    -0.294 N 
ATOM      9  H   UNL     1      -0.210   0.375   2.577  0.00  0.00    +0.159 HD
ATOM     10  H   UNL     1       0.235   0.216   4.864  0.00  0.00    +0.151 HD
BRANCH   8  11
ATOM     11  C   UNL     1       1.762  -0.937   5.782  0.00  0.00    +0.148 C 
BRANCH  11  12
ATOM     12  C   UNL     1       1.241  -0.401   7.090  0.00  0.00    +0.007 A 
ATOM     13  C   UNL     1       0.289  -0.918   7.906  0.00  0.00    +0.013 A 
ATOM     14  C   UNL     1      -0.032  -0.247   9.071  0.00  0.00    +0.008 A 
ATOM     15  C   UNL     1       0.615   0.908   9.363  0.00  0.00    +0.045 A 
ATOM     16  S   UNL     1       1.721   1.075   7.972  0.00  0.00    -0.100 S 
ENDBRANCH  11  12
ENDBRANCH   8  11
ENDBRANCH   2   3
BRANCH   2  17
ATOM     17  N   UNL     1       0.005  -0.959  -1.139  0.00  0.00    +0.389 N 
ATOM     18  C   UNL     1      -0.728  -0.377  -2.271  0.00  0.00    -0.059 C 
ATOM     19  C   UNL     1      -0.619  -1.309  -3.482  0.00  0.00    +0.086 C 
ATOM     20  N   UNL     1      -1.079  -2.648  -3.084  0.00  0.00    -0.333 N 
ATOM     21  C   UNL     1      -0.512  -3.241  -1.862  0.00  0.00    +0.086 C 
ATOM     22  C   UNL     1      -0.627  -2.218  -0.727  0.00  0.00    -0.059 C 
ATOM     23  H   UNL     1       0.959  -1.137  -1.416  0.00  0.00    -0.081 HD
BRANCH  20  24
ATOM     24  C   UNL     1      -2.028  -3.338  -3.844  0.00  0.00    +0.030 A 
ATOM     25  C   UNL     1      -2.476  -2.806  -5.046  0.00  0.00    +0.026 A 
ATOM     26  C   UNL     1      -3.413  -3.490  -5.796  0.00  0.00    +0.040 A 
ATOM     27  C   UNL     1      -3.905  -4.705  -5.351  0.00  0.00    +0.124 A 
ATOM     28  C   UNL     1      -3.460  -5.237  -4.152  0.00  0.00    +0.040 A 
ATOM     29  C   UNL     1      -2.519  -4.560  -3.402  0.00  0.00    +0.026 A 
ATOM     30  F   UNL     1      -4.822  -5.372  -6.085  0.00  0.00    -0.205 F 
ENDBRANCH  20  24
ENDBRANCH   2  17
TORSDOF 5
