REMARK  Name = ZINC44458175
REMARK  3 active torsions:
REMARK  status: ('A' for Active; 'I' for Inactive)
REMARK    1  A    between atoms: C_1  and  C_2
REMARK    2  A    between atoms: C_8  and  C_10
REMARK    3  A    between atoms: N_19  and  C_20
REMARK                            x       y       z     vdW  Elec       q    Type
REMARK                         _______ _______ _______ _____ _____    ______ ____
ROOT
ATOM      1  C   UNL     1       2.964  -3.817   1.252  0.00  0.00    +0.093 C 
ATOM      2  C   UNL     1       4.162  -4.720   0.949  0.00  0.00    +0.016 C 
ATOM      3  C   UNL     1       4.850  -5.114   2.258  0.00  0.00    +0.020 C 
ATOM      4  C   UNL     1       3.866  -5.895   3.134  0.00  0.00    +0.109 C 
ATOM      5  N   UNL     1       2.649  -5.090   3.310  0.00  0.00    -0.285 N 
ATOM      6  C   UNL     1       1.958  -4.583   2.117  0.00  0.00    +0.122 C 
ATOM      7  C   UNL     1       2.175  -4.822   4.543  0.00  0.00    +0.302 C 
ATOM      8  O   UNL     1       1.119  -4.234   4.674  0.00  0.00    -0.253 OA
ATOM      9  N   UNL     1       2.872  -5.207   5.631  0.00  0.00    -0.296 N 
ATOM     10  H   UNL     1       3.677  -5.739   5.528  0.00  0.00    +0.151 HD
ENDROOT
BRANCH   1  18
ATOM     11  C   UNL     1       0.669   1.792  -0.227  0.00  0.00    +0.007 C 
ATOM     12  C   UNL     1       0.484   0.276  -0.140  0.00  0.00    -0.011 C 
ATOM     13  C   UNL     1       1.076  -0.382  -1.388  0.00  0.00    +0.022 C 
ATOM     14  C   UNL     1       0.858  -1.897  -1.314  0.00  0.00    +0.108 C 
ATOM     15  N   UNL     1       1.415  -2.393  -0.048  0.00  0.00    -0.301 N 
ATOM     16  C   UNL     1       0.980  -1.767   1.208  0.00  0.00    +0.108 C 
ATOM     17  C   UNL     1       1.197  -0.254   1.106  0.00  0.00    +0.022 C 
ATOM     18  C   UNL     1       2.306  -3.404  -0.039  0.00  0.00    +0.220 C 
ATOM     19  O   UNL     1       2.579  -3.981  -1.071  0.00  0.00    -0.275 OA
ENDBRANCH   1  18
BRANCH   9  20
ATOM     20  C   UNL     1       2.415  -4.821   6.968  0.00  0.00    +0.075 C 
ATOM     21  C   UNL     1       3.470  -4.325   7.959  0.00  0.00    +0.024 C 
ATOM     22  C   UNL     1       2.837  -5.706   8.142  0.00  0.00    +0.024 C 
ENDBRANCH   9  20
TORSDOF 2
