REMARK  Name = ZINC40824422
REMARK  7 active torsions:
REMARK  status: ('A' for Active; 'I' for Inactive)
REMARK    1  A    between atoms: C_1  and  C_2
REMARK    2  A    between atoms: C_4  and  O_10
REMARK    3  A    between atoms: C_6  and  C_9
REMARK    4  A    between atoms: O_10  and  C_11
REMARK    5  A    between atoms: C_11  and  C_13
REMARK    6  A    between atoms: C_14  and  C_27
REMARK    7  A    between atoms: N_22  and  N_23
REMARK                            x       y       z     vdW  Elec       q    Type
REMARK                         _______ _______ _______ _____ _____    ______ ____
ROOT
ATOM      1  C   UNL     1       0.269  -4.853  -3.594  0.00  0.00    +0.215 A 
ATOM      2  C   UNL     1       0.392  -6.212  -3.692  0.00  0.00    +0.011 A 
ATOM      3  C   UNL     1       0.474  -6.500  -5.059  0.00  0.00    +0.042 A 
ATOM      4  C   UNL     1       0.400  -5.306  -5.738  0.00  0.00    +0.115 A 
ATOM      5  O   UNL     1       0.269  -4.331  -4.841  0.00  0.00    -0.452 OA
ATOM      6  C   UNL     1       0.460  -5.212  -7.241  0.00  0.00    +0.075 C 
ATOM      7  C   UNL     1       1.109  -6.478  -7.804  0.00  0.00    +0.014 C 
ATOM      8  C   UNL     1       0.404  -7.730  -7.273  0.00  0.00    +0.058 C 
ATOM      9  C   UNL     1       0.614  -7.792  -5.767  0.00  0.00    +0.070 C 
ATOM     10  N   UNL     1       0.895  -8.897  -5.149  0.00  0.00    -0.183 NA
ATOM     11  C   UNL     1       0.432  -7.201  -2.556  0.00  0.00    +0.048 C 
ENDROOT
BRANCH  10  12
ATOM     12  N   UNL     1       1.016 -10.092  -5.870  0.00  0.00    -0.191 N 
ATOM     13  C   UNL     1       1.308 -11.240  -5.227  0.00  0.00    +0.317 C 
ATOM     14  O   UNL     1       1.412 -12.278  -5.853  0.00  0.00    -0.251 OA
ATOM     15  N   UNL     1       1.484 -11.239  -3.891  0.00  0.00    -0.312 N 
ATOM     16  H   UNL     1       0.888 -10.093  -6.831  0.00  0.00    +0.179 HD
ATOM     17  H   UNL     1       1.401 -10.411  -3.392  0.00  0.00    +0.147 HD
ATOM     18  H   UNL     1       1.694 -12.065  -3.429  0.00  0.00    +0.147 HD
ENDBRANCH  10  12
BRANCH   1  19
ATOM     19  C   UNL     1       0.150  -4.092  -2.347  0.00  0.00    +0.380 C 
ATOM     20  O   UNL     1       0.162  -4.671  -1.278  0.00  0.00    -0.241 OA
BRANCH  19  21
ATOM     21  O   UNL     1       0.028  -2.749  -2.385  0.00  0.00    -0.420 OA
BRANCH  21  25
ATOM     22  C   UNL     1       2.489  -1.221   1.542  0.00  0.00    +0.045 C 
ATOM     23  C   UNL     1       1.220  -1.307   0.735  0.00  0.00    -0.028 A 
ATOM     24  C   UNL     1       1.209  -1.995  -0.463  0.00  0.00    +0.051 A 
ATOM     25  C   UNL     1       0.040  -2.074  -1.206  0.00  0.00    +0.133 A 
ATOM     26  C   UNL     1      -1.116  -1.461  -0.744  0.00  0.00    +0.051 A 
ATOM     27  C   UNL     1      -1.101  -0.774   0.454  0.00  0.00    -0.028 A 
ATOM     28  C   UNL     1       0.064  -0.702   1.196  0.00  0.00    +0.047 A 
ATOM     29 CL   UNL     1       0.078   0.156   2.706  0.00  0.00    -0.083 Cl
ATOM     30  C   UNL     1      -2.357  -0.109   0.956  0.00  0.00    +0.045 C 
ENDBRANCH  21  25
ENDBRANCH  19  21
ENDBRANCH   1  19
TORSDOF 4
