REMARK  Name = ZINC53538385
REMARK  8 active torsions:
REMARK  status: ('A' for Active; 'I' for Inactive)
REMARK    1  A    between atoms: C_1  and  N_2
REMARK    2  A    between atoms: N_2  and  C_3
REMARK    3  A    between atoms: N_2  and  C_4
REMARK    4  A    between atoms: C_4  and  C_6
REMARK    5  A    between atoms: C_4  and  C_23
REMARK    6  A    between atoms: C_6  and  N_7
REMARK    7  A    between atoms: N_13  and  C_16
REMARK    8  A    between atoms: C_21  and  O_22
REMARK                            x       y       z     vdW  Elec       q    Type
REMARK                         _______ _______ _______ _____ _____    ______ ____
ROOT
ATOM      1  N   UNL     1       0.380  -2.157  -0.033  0.00  0.00    -0.300 N 
ATOM      2  C   UNL     1       0.890  -3.387  -0.247  0.00  0.00    +0.302 C 
ATOM      3  O   UNL     1       0.542  -4.028  -1.220  0.00  0.00    -0.253 OA
ATOM      4  N   UNL     1       1.785  -3.905   0.618  0.00  0.00    -0.283 N 
ATOM      5  C   UNL     1       2.438  -5.191   0.336  0.00  0.00    +0.128 C 
ATOM      6  C   UNL     1       3.958  -4.989   0.385  0.00  0.00    +0.124 C 
ATOM      7  N   UNL     1       4.298  -4.278   1.626  0.00  0.00    -0.324 N 
ATOM      8  C   UNL     1       3.644  -2.992   1.907  0.00  0.00    +0.124 C 
ATOM      9  C   UNL     1       2.129  -3.192   1.856  0.00  0.00    +0.128 C 
ATOM     10  H   UNL     1       0.708  -1.618   0.704  0.00  0.00    +0.150 HD
ENDROOT
BRANCH   7  11
ATOM     11  C   UNL     1       5.227  -4.816   2.523  0.00  0.00    +0.072 A 
ATOM     12  C   UNL     1       6.573  -4.505   2.401  0.00  0.00    +0.027 A 
ATOM     13  C   UNL     1       7.489  -5.037   3.289  0.00  0.00    +0.002 A 
ATOM     14  C   UNL     1       7.067  -5.881   4.300  0.00  0.00    +0.004 A 
ATOM     15  C   UNL     1       5.726  -6.196   4.428  0.00  0.00    +0.047 A 
ATOM     16  C   UNL     1       4.802  -5.662   3.545  0.00  0.00    +0.138 A 
BRANCH  16  17
ATOM     17  O   UNL     1       3.482  -5.967   3.673  0.00  0.00    -0.505 OA
ATOM     18  H   UNL     1       3.211  -6.753   3.179  0.00  0.00    +0.292 HD
ENDBRANCH  16  17
ENDBRANCH   7  11
BRANCH   1  19
ATOM     19  C   UNL     1      -0.668  -1.636  -0.913  0.00  0.00    +0.095 C 
BRANCH  19  20
ATOM     20  C   UNL     1      -1.160  -0.289  -0.378  0.00  0.00    -0.021 C 
BRANCH  20  21
ATOM     21  C   UNL     1      -1.814  -0.491   0.965  0.00  0.00    -0.057 A 
ATOM     22  C   UNL     1      -3.112  -0.962   1.038  0.00  0.00    +0.002 A 
ATOM     23  C   UNL     1      -3.712  -1.147   2.269  0.00  0.00    +0.003 A 
ATOM     24  C   UNL     1      -3.016  -0.862   3.429  0.00  0.00    +0.038 A 
ATOM     25  C   UNL     1      -1.716  -0.391   3.357  0.00  0.00    +0.124 A 
ATOM     26  C   UNL     1      -1.113  -0.211   2.123  0.00  0.00    +0.040 A 
ATOM     27  F   UNL     1      -1.035  -0.111   4.489  0.00  0.00    -0.205 F 
ENDBRANCH  20  21
BRANCH  20  29
ATOM     28  C   UNL     1      -2.660   1.542  -0.768  0.00  0.00    -0.096 C 
ATOM     29  N   UNL     1      -2.135   0.283  -1.316  0.00  0.00    +0.382 N 
ATOM     30  C   UNL     1      -1.480   0.546  -2.604  0.00  0.00    -0.096 C 
ATOM     31  H   UNL     1      -2.894  -0.367  -1.451  0.00  0.00    -0.082 HD
ENDBRANCH  20  29
ENDBRANCH  19  20
ENDBRANCH   1  19
TORSDOF 6
