REMARK  Name = ZINC03390166
REMARK  13 active torsions:
REMARK  status: ('A' for Active; 'I' for Inactive)
REMARK    1  A    between atoms: C_1  and  N_2
REMARK    2  A    between atoms: C_3  and  N_38
REMARK    3  A    between atoms: C_4  and  C_11
REMARK    4  A    between atoms: N_7  and  C_10
REMARK    5  A    between atoms: C_11  and  C_13
REMARK    6  A    between atoms: C_13  and  S_14
REMARK    7  A    between atoms: S_14  and  C_15
REMARK    8  A    between atoms: C_18  and  C_29
REMARK    9  A    between atoms: N_19  and  C_20
REMARK   10  A    between atoms: C_23  and  O_27
REMARK   11  A    between atoms: O_27  and  C_28
REMARK   12  A    between atoms: C_34  and  O_35
REMARK   13  A    between atoms: O_35  and  C_36
REMARK                            x       y       z     vdW  Elec       q    Type
REMARK                         _______ _______ _______ _____ _____    ______ ____
ROOT
ATOM      1  C   UNL     1      -3.248  -6.566   0.449  0.00  0.00    +0.197 A 
ATOM      2  N   UNL     1      -2.011  -6.996   0.554  0.00  0.00    -0.122 NA
ATOM      3  N   UNL     1      -1.986  -8.280   0.528  0.00  0.00    -0.128 NA
ATOM      4  C   UNL     1      -3.205  -8.752   0.404  0.00  0.00    +0.173 A 
ATOM      5  N   UNL     1      -4.054  -7.668   0.355  0.00  0.00    -0.270 N 
ENDROOT
BRANCH   5   6
ATOM      6  C   UNL     1      -5.452  -7.689   0.231  0.00  0.00    +0.052 A 
ATOM      7  C   UNL     1      -6.232  -8.195   1.262  0.00  0.00    +0.030 A 
ATOM      8  C   UNL     1      -7.607  -8.216   1.141  0.00  0.00    +0.049 A 
ATOM      9  C   UNL     1      -8.210  -7.731  -0.011  0.00  0.00    +0.138 A 
ATOM     10  C   UNL     1      -7.431  -7.224  -1.042  0.00  0.00    +0.084 A 
ATOM     11  C   UNL     1      -6.054  -7.198  -0.919  0.00  0.00    +0.050 A 
ATOM     12 CL   UNL     1      -8.185  -6.618  -2.483  0.00  0.00    -0.080 Cl
BRANCH   9  13
ATOM     13  O   UNL     1      -9.564  -7.752  -0.130  0.00  0.00    -0.494 OA
ATOM     14  C   UNL     1     -10.304  -8.287   0.970  0.00  0.00    +0.277 C 
ENDBRANCH   9  13
ENDBRANCH   5   6
BRANCH   4  15
ATOM     15  C   UNL     1      -3.594 -10.175   0.335  0.00  0.00    +0.063 A 
ATOM     16  C   UNL     1      -4.469 -10.616  -0.660  0.00  0.00    +0.035 A 
ATOM     17  C   UNL     1      -4.829 -11.947  -0.719  0.00  0.00    +0.042 A 
ATOM     18  C   UNL     1      -4.324 -12.848   0.205  0.00  0.00    +0.023 A 
ATOM     19  C   UNL     1      -3.457 -12.422   1.194  0.00  0.00    +0.048 A 
ATOM     20  C   UNL     1      -3.083 -11.090   1.263  0.00  0.00    +0.131 A 
ATOM     21 CL   UNL     1      -5.917 -12.495  -1.955  0.00  0.00    -0.084 Cl
BRANCH  20  22
ATOM     22  O   UNL     1      -2.226 -10.672   2.231  0.00  0.00    -0.494 OA
ATOM     23  C   UNL     1      -1.745 -11.662   3.143  0.00  0.00    +0.277 C 
ENDBRANCH  20  22
ENDBRANCH   4  15
BRANCH   1  24
ATOM     24  S   UNL     1      -3.772  -4.883   0.438  0.00  0.00    -0.078 S 
BRANCH  24  25
ATOM     25  C   UNL     1      -2.229  -3.942   0.593  0.00  0.00    +0.157 C 
BRANCH  25  26
ATOM     26  C   UNL     1      -2.539  -2.467   0.597  0.00  0.00    +0.182 C 
ATOM     27  O   UNL     1      -3.689  -2.088   0.503  0.00  0.00    -0.291 OA
BRANCH  26  31
ATOM     28  C   UNL     1      -0.987   2.153   1.061  0.00  0.00    +0.155 C 
ATOM     29  N   UNL     1      -0.716   0.719   0.935  0.00  0.00    -0.284 N 
ATOM     30  C   UNL     1      -1.762  -0.152   0.830  0.00  0.00    +0.116 A 
ATOM     31  C   UNL     1      -1.493  -1.527   0.708  0.00  0.00    +0.120 A 
ATOM     32  C   UNL     1      -0.087  -1.952   0.702  0.00  0.00    +0.269 A 
ATOM     33  O   UNL     1       0.205  -3.130   0.600  0.00  0.00    -0.267 OA
ATOM     34  N   UNL     1       0.873  -1.012   0.813  0.00  0.00    -0.263 N 
ATOM     35  C   UNL     1       0.555   0.288   0.920  0.00  0.00    +0.333 A 
ATOM     36  O   UNL     1       1.451   1.105   1.013  0.00  0.00    -0.246 OA
ATOM     37  C   UNL     1       2.282  -1.413   0.809  0.00  0.00    +0.157 C 
BRANCH  30  38
ATOM     38  N   UNL     1      -3.045   0.302   0.842  0.00  0.00    -0.344 N 
ATOM     39  H   UNL     1      -3.226   1.239   1.016  0.00  0.00    +0.144 HD
ATOM     40  H   UNL     1      -3.778  -0.311   0.676  0.00  0.00    +0.144 HD
ENDBRANCH  30  38
ENDBRANCH  26  31
ENDBRANCH  25  26
ENDBRANCH  24  25
ENDBRANCH   1  24
TORSDOF 9
