REMARK  Name = ZINC59409303
REMARK  8 active torsions:
REMARK  status: ('A' for Active; 'I' for Inactive)
REMARK    1  A    between atoms: C_5  and  N_7
REMARK    2  A    between atoms: C_8  and  C_10
REMARK    3  A    between atoms: C_10  and  N_11
REMARK    4  A    between atoms: C_12  and  C_14
REMARK    5  A    between atoms: C_14  and  N_15
REMARK    6  A    between atoms: N_15  and  C_16
REMARK    7  A    between atoms: N_15  and  C_23
REMARK    8  A    between atoms: C_16  and  C_17
REMARK                            x       y       z     vdW  Elec       q    Type
REMARK                         _______ _______ _______ _____ _____    ______ ____
ROOT
ATOM      1  N   UNL     1      -0.501  -5.295   0.613  0.00  0.00    -0.308 N 
ATOM      2  C   UNL     1      -1.052  -6.505   0.838  0.00  0.00    +0.197 C 
ATOM      3  O   UNL     1      -0.367  -7.415   1.254  0.00  0.00    -0.278 OA
ATOM      4  H   UNL     1      -1.049  -4.567   0.280  0.00  0.00    +0.149 HD
ENDROOT
BRANCH   1   5
ATOM      5  C   UNL     1       0.925  -5.080   0.872  0.00  0.00    +0.200 C 
BRANCH   5   7
ATOM      6  N   UNL     1       2.553  -3.226   0.703  0.00  0.00    -0.283 N 
ATOM      7  C   UNL     1       1.286  -3.655   0.542  0.00  0.00    +0.234 C 
ATOM      8  O   UNL     1       0.435  -2.893   0.131  0.00  0.00    -0.274 OA
ATOM      9  H   UNL     1       3.245  -3.849   0.975  0.00  0.00    +0.155 HD
BRANCH   6  14
ATOM     10  C   UNL     1       2.196   0.415   0.328  0.00  0.00    +0.002 A 
ATOM     11  C   UNL     1       3.498   0.778   0.035  0.00  0.00    +0.001 A 
ATOM     12  C   UNL     1       4.487  -0.185  -0.037  0.00  0.00    +0.017 A 
ATOM     13  C   UNL     1       4.178  -1.514   0.184  0.00  0.00    +0.039 A 
ATOM     14  C   UNL     1       2.870  -1.881   0.479  0.00  0.00    +0.047 A 
ATOM     15  C   UNL     1       1.880  -0.911   0.551  0.00  0.00    +0.024 A 
ATOM     16 BR   UNL     1       5.531  -2.831   0.083  0.00  0.00    -0.048 Br
ENDBRANCH   6  14
ENDBRANCH   5   7
ENDBRANCH   1   5
BRANCH   2  17
ATOM     17  C   UNL     1      -2.518  -6.726   0.572  0.00  0.00    +0.019 C 
BRANCH  17  18
ATOM     18  N   UNL     1      -2.877  -8.107   0.923  0.00  0.00    +0.387 N 
ATOM     19  H   UNL     1      -2.571  -8.304   1.864  0.00  0.00    -0.081 HD
BRANCH  18  20
ATOM     20  C   UNL     1      -2.223  -9.035  -0.009  0.00  0.00    -0.068 C 
ATOM     21  C   UNL     1      -1.275  -8.439  -1.051  0.00  0.00    -0.017 C 
ATOM     22  C   UNL     1      -2.643  -8.973  -1.479  0.00  0.00    -0.017 C 
ENDBRANCH  18  20
BRANCH  18  23
ATOM     23  C   UNL     1      -4.334  -8.271   0.837  0.00  0.00    -0.074 C 
BRANCH  23  24
ATOM     24  C   UNL     1      -4.714  -9.689   1.270  0.00  0.00    -0.028 C 
ATOM     25  C   UNL     1      -6.224  -9.882   1.117  0.00  0.00    +0.002 C 
ATOM     26  C   UNL     1      -6.603 -11.299   1.550  0.00  0.00    +0.000 C 
ATOM     27  C   UNL     1      -6.208 -11.508   3.013  0.00  0.00    +0.000 C 
ATOM     28  C   UNL     1      -4.699 -11.315   3.167  0.00  0.00    +0.000 C 
ATOM     29  C   UNL     1      -4.319  -9.898   2.734  0.00  0.00    +0.002 C 
ENDBRANCH  23  24
ENDBRANCH  18  23
ENDBRANCH  17  18
ENDBRANCH   2  17
TORSDOF 8
