REMARK  Name = ZINC19853967
REMARK  9 active torsions:
REMARK  status: ('A' for Active; 'I' for Inactive)
REMARK    1  A    between atoms: C_1  and  O_2
REMARK    2  A    between atoms: O_2  and  C_3
REMARK    3  A    between atoms: C_5  and  C_18
REMARK    4  A    between atoms: C_8  and  O_9
REMARK    5  A    between atoms: O_9  and  C_10
REMARK    6  A    between atoms: C_10  and  C_11
REMARK    7  A    between atoms: C_28  and  C_30
REMARK    8  A    between atoms: C_30  and  O_31
REMARK    9  A    between atoms: O_31  and  C_32
REMARK                            x       y       z     vdW  Elec       q    Type
REMARK                         _______ _______ _______ _____ _____    ______ ____
ROOT
ATOM      1  C   UNL     1       2.452   0.292   4.185  0.00  0.00    +0.024 C 
ATOM      2  C   UNL     1       2.991  -0.335   5.286  0.00  0.00    +0.079 C 
ATOM      3  C   UNL     1       3.518   0.435   6.449  0.00  0.00    +0.132 C 
ATOM      4  N   UNL     1       3.012   1.573   6.844  0.00  0.00    -0.385 N 
ATOM      5  N   UNL     1       4.615  -0.186   7.081  0.00  0.00    -0.154 N 
ATOM      6  C   UNL     1       4.752  -1.549   6.925  0.00  0.00    +0.181 C 
ATOM      7  N   UNL     1       4.032  -2.342   6.172  0.00  0.00    -0.152 NA
ATOM      8  C   UNL     1       3.074  -1.813   5.382  0.00  0.00    +0.273 C 
ATOM      9  O   UNL     1       2.301  -2.527   4.763  0.00  0.00    -0.268 OA
ATOM     10  S   UNL     1       6.139  -1.906   7.971  0.00  0.00    -0.035 S 
ATOM     11  C   UNL     1       6.502  -0.225   8.460  0.00  0.00    +0.137 C 
ATOM     12  N   UNL     1       5.564   0.447   7.857  0.00  0.00    -0.166 NA
ATOM     13  H   UNL     1       2.256   1.958   6.373  0.00  0.00    +0.157 HD
ATOM     14  H   UNL     1       3.393   2.034   7.607  0.00  0.00    +0.157 HD
ENDROOT
BRANCH   1  17
ATOM     15  C   UNL     1       0.663  -0.901   1.116  0.00  0.00    +0.162 A 
ATOM     16  C   UNL     1       0.976  -0.164   2.240  0.00  0.00    +0.057 A 
ATOM     17  C   UNL     1       2.114  -0.487   2.992  0.00  0.00    -0.021 A 
ATOM     18  C   UNL     1       2.928  -1.558   2.597  0.00  0.00    +0.012 A 
ATOM     19  C   UNL     1       2.607  -2.288   1.475  0.00  0.00    +0.050 A 
ATOM     20  C   UNL     1       1.476  -1.969   0.734  0.00  0.00    +0.162 A 
BRANCH  15  22
ATOM     21  C   UNL     1      -1.226   0.515   0.833  0.00  0.00    +0.277 C 
ATOM     22  O   UNL     1      -0.440  -0.591   0.384  0.00  0.00    -0.491 OA
ENDBRANCH  15  22
BRANCH  20  23
ATOM     23  O   UNL     1       1.163  -2.696  -0.369  0.00  0.00    -0.484 OA
BRANCH  23  24
ATOM     24  C   UNL     1       2.037  -3.776  -0.704  0.00  0.00    +0.267 C 
BRANCH  24  25
ATOM     25  C   UNL     1       1.534  -4.463  -1.948  0.00  0.00    +0.025 A 
ATOM     26  C   UNL     1       0.388  -4.008  -2.573  0.00  0.00    +0.010 A 
ATOM     27  C   UNL     1      -0.074  -4.638  -3.713  0.00  0.00    +0.001 A 
ATOM     28  C   UNL     1       0.609  -5.723  -4.230  0.00  0.00    +0.003 A 
ATOM     29  C   UNL     1       1.755  -6.179  -3.607  0.00  0.00    +0.039 A 
ATOM     30  C   UNL     1       2.222  -5.546  -2.467  0.00  0.00    +0.130 A 
ATOM     31  F   UNL     1       3.345  -5.988  -1.860  0.00  0.00    -0.205 F 
ENDBRANCH  24  25
ENDBRANCH  23  24
ENDBRANCH  20  23
ENDBRANCH   1  17
BRANCH  11  32
ATOM     32  C   UNL     1       7.611   0.284   9.344  0.00  0.00    +0.293 C 
BRANCH  32  33
ATOM     33  O   UNL     1       7.513   1.705   9.460  0.00  0.00    -0.485 OA
BRANCH  33  34
ATOM     34  C   UNL     1       8.445   2.327  10.229  0.00  0.00    +0.121 A 
ATOM     35  C   UNL     1       9.437   1.585  10.855  0.00  0.00    +0.045 A 
ATOM     36  C   UNL     1      10.383   2.220  11.636  0.00  0.00    +0.004 A 
ATOM     37  C   UNL     1      10.343   3.593  11.795  0.00  0.00    +0.000 A 
ATOM     38  C   UNL     1       9.355   4.334  11.173  0.00  0.00    +0.004 A 
ATOM     39  C   UNL     1       8.410   3.705  10.386  0.00  0.00    +0.045 A 
ENDBRANCH  33  34
ENDBRANCH  32  33
ENDBRANCH  11  32
TORSDOF 8
