REMARK  Name = ZINC36869539
REMARK  4 active torsions:
REMARK  status: ('A' for Active; 'I' for Inactive)
REMARK    1  A    between atoms: C_1  and  N_2
REMARK    2  A    between atoms: N_2  and  C_3
REMARK    3  A    between atoms: N_2  and  C_14
REMARK    4  A    between atoms: C_8  and  N_9
REMARK                            x       y       z     vdW  Elec       q    Type
REMARK                         _______ _______ _______ _____ _____    ______ ____
ROOT
ATOM      1  C   UNL     1       0.023  -0.712   1.213  0.00  0.00    +0.054 A 
ATOM      2  C   UNL     1      -1.166  -1.083   1.821  0.00  0.00    +0.074 A 
ATOM      3  C   UNL     1      -1.147  -1.784   3.018  0.00  0.00    +0.164 A 
ATOM      4  C   UNL     1       0.066  -2.116   3.608  0.00  0.00    +0.164 A 
ATOM      5  C   UNL     1       1.257  -1.743   3.003  0.00  0.00    +0.074 A 
ATOM      6  C   UNL     1       1.240  -1.048   1.804  0.00  0.00    +0.050 A 
ATOM      7  O   UNL     1       0.103  -2.811   4.780  0.00  0.00    -0.485 OA
ATOM      8  C   UNL     1      -1.104  -2.842   5.548  0.00  0.00    +0.270 C 
ATOM      9  C   UNL     1      -2.268  -3.161   4.601  0.00  0.00    +0.270 C 
ATOM     10  O   UNL     1      -2.326  -2.137   3.602  0.00  0.00    -0.485 OA
ENDROOT
BRANCH   6  11
ATOM     11  N   UNL     1       2.445  -0.677   1.189  0.00  0.00    -0.356 N 
ATOM     12  H   UNL     1       2.432  -0.187   0.352  0.00  0.00    +0.142 HD
ATOM     13  H   UNL     1       3.291  -0.911   1.601  0.00  0.00    +0.142 HD
ENDBRANCH   6  11
BRANCH   1  15
ATOM     14  C   UNL     1      -0.018   1.461   0.010  0.00  0.00    +0.129 C 
ATOM     15  N   UNL     1       0.002  -0.004   0.002  0.00  0.00    -0.327 N 
BRANCH  15  16
ATOM     16  C   UNL     1      -0.000  -0.730  -1.271  0.00  0.00    +0.096 C 
ATOM     17  C   UNL     1      -1.263  -0.360  -2.067  0.00  0.00    +0.046 C 
ATOM     18  C   UNL     1      -1.090  -0.886  -3.520  0.00  0.00    +0.168 C 
ATOM     19  S   UNL     1       0.681  -0.474  -3.820  0.00  0.00    -0.029 S 
ATOM     20  O   UNL     1       1.315  -1.582  -4.443  0.00  0.00    -0.174 OA
ATOM     21  O   UNL     1       0.760   0.809  -4.426  0.00  0.00    -0.174 OA
ATOM     22  C   UNL     1       1.263  -0.350  -2.081  0.00  0.00    +0.188 C 
ENDBRANCH  15  16
ENDBRANCH   1  15
TORSDOF 3
