REMARK  Name = ZINC08436332
REMARK  3 active torsions:
REMARK  status: ('A' for Active; 'I' for Inactive)
REMARK    1  A    between atoms: C_4  and  C_7
REMARK    2  A    between atoms: C_9  and  C_19
REMARK    3  A    between atoms: N_23  and  C_24
REMARK                            x       y       z     vdW  Elec       q    Type
REMARK                         _______ _______ _______ _____ _____    ______ ____
ROOT
ATOM      1  C   UNL     1       3.509  -0.252  -0.225  0.00  0.00    +0.252 C 
ATOM      2  C   UNL     1       3.892  -0.849   1.136  0.00  0.00    +0.286 C 
ATOM      3  O   UNL     1       5.066  -1.650   0.959  0.00  0.00    -0.473 OA
ATOM      4  C   UNL     1       5.070  -2.504  -0.101  0.00  0.00    +0.163 A 
ATOM      5  C   UNL     1       5.984  -3.546  -0.132  0.00  0.00    +0.049 A 
ATOM      6  C   UNL     1       6.003  -4.419  -1.203  0.00  0.00    +0.004 A 
ATOM      7  C   UNL     1       5.111  -4.255  -2.247  0.00  0.00    +0.004 A 
ATOM      8  C   UNL     1       4.197  -3.219  -2.222  0.00  0.00    +0.049 A 
ATOM      9  C   UNL     1       4.171  -2.341  -1.148  0.00  0.00    +0.163 A 
ATOM     10  O   UNL     1       3.260  -1.329  -1.135  0.00  0.00    -0.476 OA
ENDROOT
BRANCH   1  14
ATOM     11  C   UNL     1      -0.015   2.128   0.185  0.00  0.00    +0.000 A 
ATOM     12  C   UNL     1       1.228   2.732   0.161  0.00  0.00    +0.000 A 
ATOM     13  C   UNL     1       2.369   1.962   0.028  0.00  0.00    +0.007 A 
ATOM     14  C   UNL     1       2.266   0.588  -0.080  0.00  0.00    -0.003 A 
ATOM     15  C   UNL     1       1.023  -0.017  -0.055  0.00  0.00    +0.007 A 
ATOM     16  C   UNL     1      -0.117   0.754   0.076  0.00  0.00    +0.000 A 
ENDBRANCH   1  14
BRANCH   2  17
ATOM     17  C   UNL     1       4.175   0.260   2.116  0.00  0.00    +0.184 A 
ATOM     18  N   UNL     1       3.430   0.604   3.129  0.00  0.00    -0.129 NA
ATOM     19  N   UNL     1       3.967   1.589   3.757  0.00  0.00    -0.121 NA
ATOM     20  C   UNL     1       5.093   1.930   3.176  0.00  0.00    +0.207 A 
ATOM     21  N   UNL     1       5.266   1.088   2.112  0.00  0.00    -0.270 N 
ATOM     22  S   UNL     1       6.181   3.223   3.677  0.00  0.00    -0.009 SA
BRANCH  21  23
ATOM     23  C   UNL     1       6.334   1.078   1.204  0.00  0.00    +0.050 A 
ATOM     24  C   UNL     1       7.236   0.022   1.202  0.00  0.00    +0.026 A 
ATOM     25  C   UNL     1       8.287   0.015   0.307  0.00  0.00    +0.002 A 
ATOM     26  C   UNL     1       8.443   1.058  -0.587  0.00  0.00    +0.000 A 
ATOM     27  C   UNL     1       7.547   2.111  -0.588  0.00  0.00    +0.002 A 
ATOM     28  C   UNL     1       6.490   2.121   0.301  0.00  0.00    +0.026 A 
ENDBRANCH  21  23
ENDBRANCH   2  17
TORSDOF 3
