REMARK  Name = ZINC13065466
REMARK  13 active torsions:
REMARK  status: ('A' for Active; 'I' for Inactive)
REMARK    1  A    between atoms: C_1  and  C_2
REMARK    2  A    between atoms: C_2  and  O_3
REMARK    3  A    between atoms: O_3  and  C_4
REMARK    4  A    between atoms: C_11  and  C_16
REMARK    5  A    between atoms: C_16  and  N_70
REMARK    6  A    between atoms: C_17  and  C_18
REMARK    7  A    between atoms: C_17  and  N_70
REMARK    8  A    between atoms: C_21  and  C_24
REMARK    9  A    between atoms: C_25  and  C_26
REMARK   10  A    between atoms: C_25  and  N_70
REMARK   11  A    between atoms: N_30  and  C_31
REMARK   12  A    between atoms: C_31  and  C_32
REMARK   13  A    between atoms: C_32  and  C_33
REMARK                            x       y       z     vdW  Elec       q    Type
REMARK                         _______ _______ _______ _____ _____    ______ ____
ROOT
ATOM      1  N   UNL     1      -0.952  -2.040  -2.718  0.00  0.00    +0.390 N 
ATOM      2  H   UNL     1      -0.162  -2.487  -2.237  0.00  0.00    -0.080 HD
ENDROOT
BRANCH   1   3
ATOM      3  C   UNL     1      -0.437  -1.256  -3.860  0.00  0.00    -0.036 C 
BRANCH   3  11
ATOM      4  C   UNL     1       5.640  -0.360  -3.031  0.00  0.00    +0.121 A 
ATOM      5  C   UNL     1       5.526   0.887  -2.421  0.00  0.00    +0.047 A 
ATOM      6  C   UNL     1       4.289   1.458  -2.217  0.00  0.00    +0.030 A 
ATOM      7  C   UNL     1       3.139   0.787  -2.621  0.00  0.00    +0.049 A 
ATOM      8  C   UNL     1       3.250  -0.473  -3.238  0.00  0.00    +0.002 A 
ATOM      9  C   UNL     1       4.512  -1.042  -3.440  0.00  0.00    +0.055 A 
ATOM     10  C   UNL     1       2.032  -1.167  -3.659  0.00  0.00    +0.017 A 
ATOM     11  C   UNL     1       0.836  -0.568  -3.439  0.00  0.00    +0.001 A 
ATOM     12  C   UNL     1       0.778   0.700  -2.821  0.00  0.00    +0.251 A 
ATOM     13  O   UNL     1      -0.307   1.223  -2.637  0.00  0.00    -0.268 OA
ATOM     14  N   UNL     1       1.891   1.343  -2.425  0.00  0.00    -0.322 N 
ATOM     15  H   UNL     1       1.815   2.211  -2.000  0.00  0.00    +0.169 HD
BRANCH   4  16
ATOM     16  O   UNL     1       6.869  -0.908  -3.224  0.00  0.00    -0.492 OA
BRANCH  16  18
ATOM     17  C   UNL     1       9.282  -0.923  -3.079  0.00  0.00    +0.048 C 
ATOM     18  C   UNL     1       7.995  -0.150  -2.778  0.00  0.00    +0.225 C 
ENDBRANCH  16  18
ENDBRANCH   4  16
ENDBRANCH   3  11
ENDBRANCH   1   3
BRANCH   1  19
ATOM     19  C   UNL     1      -1.876  -3.088  -3.200  0.00  0.00    -0.042 C 
BRANCH  19  20
ATOM     20  C   UNL     1      -1.071  -4.176  -3.863  0.00  0.00    -0.064 A 
ATOM     21  C   UNL     1      -0.911  -4.178  -5.236  0.00  0.00    +0.002 A 
ATOM     22  C   UNL     1      -0.169  -5.173  -5.844  0.00  0.00    +0.003 A 
ATOM     23  C   UNL     1       0.406  -6.171  -5.079  0.00  0.00    -0.050 A 
ATOM     24  C   UNL     1       0.242  -6.172  -3.707  0.00  0.00    +0.003 A 
ATOM     25  C   UNL     1      -0.496  -5.174  -3.099  0.00  0.00    +0.002 A 
ATOM     26  C   UNL     1       1.212  -7.259  -5.742  0.00  0.00    +0.044 C 
ENDBRANCH  19  20
ENDBRANCH   1  19
BRANCH   1  27
ATOM     27  C   UNL     1      -1.650  -1.149  -1.767  0.00  0.00    +0.001 C 
BRANCH  27  28
ATOM     28  C   UNL     1      -1.969  -1.927  -0.517  0.00  0.00    +0.135 A 
ATOM     29  N   UNL     1      -3.066  -2.603  -0.274  0.00  0.00    -0.115 NA
ATOM     30  N   UNL     1      -2.958  -3.127   0.898  0.00  0.00    -0.023 NA
ATOM     31  N   UNL     1      -1.820  -2.808   1.407  0.00  0.00    -0.044 NA
ATOM     32  N   UNL     1      -1.183  -2.064   0.567  0.00  0.00    -0.231 N 
BRANCH  32  33
ATOM     33  C   UNL     1       0.148  -1.482   0.756  0.00  0.00    +0.152 C 
BRANCH  33  34
ATOM     34  C   UNL     1       0.015  -0.102   1.402  0.00  0.00    +0.058 C 
BRANCH  34  35
ATOM     35  C   UNL     1       1.384   0.497   1.596  0.00  0.00    -0.046 A 
ATOM     36  C   UNL     1       2.076   0.274   2.772  0.00  0.00    +0.004 A 
ATOM     37  C   UNL     1       3.334   0.819   2.948  0.00  0.00    +0.000 A 
ATOM     38  C   UNL     1       3.896   1.596   1.952  0.00  0.00    +0.000 A 
ATOM     39  C   UNL     1       3.202   1.823   0.778  0.00  0.00    +0.000 A 
ATOM     40  C   UNL     1       1.946   1.274   0.600  0.00  0.00    +0.004 A 
ENDBRANCH  34  35
ENDBRANCH  33  34
ENDBRANCH  32  33
ENDBRANCH  27  28
ENDBRANCH   1  27
TORSDOF 11
