REMARK  Name = ZINC04143144
REMARK  6 active torsions:
REMARK  status: ('A' for Active; 'I' for Inactive)
REMARK    1  A    between atoms: C_1  and  C_2
REMARK    2  A    between atoms: C_2  and  O_3
REMARK    3  A    between atoms: O_3  and  C_4
REMARK    4  A    between atoms: C_7  and  C_10
REMARK    5  A    between atoms: C_13  and  C_16
REMARK    6  A    between atoms: C_25  and  O_26
REMARK                            x       y       z     vdW  Elec       q    Type
REMARK                         _______ _______ _______ _____ _____    ______ ____
ROOT
ATOM      1  C   UNL     1      -0.013   1.086   0.008  0.00  0.00    +0.125 C 
ATOM      2  C   UNL     1      -0.623   1.627  -1.300  0.00  0.00    +0.086 C 
ATOM      3  C   UNL     1       0.498   2.430  -1.920  0.00  0.00    +0.072 C 
ATOM      4  N   UNL     1       1.536   2.379  -1.158  0.00  0.00    -0.190 NA
ATOM      5  N   UNL     1       1.357   1.622  -0.002  0.00  0.00    -0.261 N 
ATOM      6  H   UNL     1       2.027   1.473   0.684  0.00  0.00    +0.169 HD
ENDROOT
BRANCH   3   7
ATOM      7  C   UNL     1       0.417   3.158  -3.199  0.00  0.00    +0.040 A 
ATOM      8  C   UNL     1      -0.778   3.136  -3.941  0.00  0.00    +0.014 A 
ATOM      9  C   UNL     1      -0.878   3.799  -5.121  0.00  0.00    +0.009 A 
ATOM     10  C   UNL     1       0.221   4.522  -5.621  0.00  0.00    -0.014 A 
ATOM     11  C   UNL     1       0.137   5.215  -6.840  0.00  0.00    +0.008 A 
ATOM     12  C   UNL     1       1.216   5.907  -7.299  0.00  0.00    +0.001 A 
ATOM     13  C   UNL     1       2.407   5.939  -6.578  0.00  0.00    +0.001 A 
ATOM     14  C   UNL     1       2.526   5.280  -5.393  0.00  0.00    +0.012 A 
ATOM     15  C   UNL     1       1.433   4.556  -4.887  0.00  0.00    +0.024 A 
ATOM     16  C   UNL     1       1.520   3.868  -3.662  0.00  0.00    +0.133 A 
BRANCH  16  17
ATOM     17  O   UNL     1       2.671   3.893  -2.942  0.00  0.00    -0.506 OA
ATOM     18  H   UNL     1       3.288   3.181  -3.161  0.00  0.00    +0.292 HD
ENDBRANCH  16  17
ENDBRANCH   3   7
BRANCH   1  22
ATOM     19  C   UNL     1      -2.171   2.537   3.399  0.00  0.00    +0.121 A 
ATOM     20  C   UNL     1      -2.375   1.241   2.948  0.00  0.00    +0.046 A 
ATOM     21  C   UNL     1      -1.676   0.774   1.852  0.00  0.00    +0.009 A 
ATOM     22  C   UNL     1      -0.774   1.598   1.204  0.00  0.00    -0.025 A 
ATOM     23  C   UNL     1      -0.564   2.888   1.655  0.00  0.00    +0.009 A 
ATOM     24  C   UNL     1      -1.265   3.361   2.747  0.00  0.00    +0.046 A 
BRANCH  19  25
ATOM     25  O   UNL     1      -2.856   2.999   4.478  0.00  0.00    -0.492 OA
BRANCH  25  27
ATOM     26  C   UNL     1      -3.453   4.681   6.107  0.00  0.00    +0.048 C 
ATOM     27  C   UNL     1      -2.595   4.343   4.886  0.00  0.00    +0.225 C 
ENDBRANCH  25  27
ENDBRANCH  19  25
ENDBRANCH   1  22
TORSDOF 5
