REMARK  Name = ZINC32188746
REMARK  6 active torsions:
REMARK  status: ('A' for Active; 'I' for Inactive)
REMARK    1  A    between atoms: C_3  and  N_11
REMARK    2  A    between atoms: C_6  and  C_7
REMARK    3  A    between atoms: N_12  and  N_13
REMARK    4  A    between atoms: N_13  and  C_14
REMARK    5  A    between atoms: N_13  and  C_17
REMARK    6  A    between atoms: C_14  and  C_15
REMARK                            x       y       z     vdW  Elec       q    Type
REMARK                         _______ _______ _______ _____ _____    ______ ____
ROOT
ATOM      1  N   UNL     1      -1.901  -0.432   1.377  0.00  0.00    -0.133 NA
ATOM      2  N   UNL     1      -1.639   0.739   1.851  0.00  0.00    -0.073 NA
ENDROOT
BRANCH   1   5
ATOM      3  C   UNL     1      -4.035  -3.303   2.123  0.00  0.00    +0.014 A 
ATOM      4  C   UNL     1      -3.108  -2.501   1.490  0.00  0.00    +0.030 A 
ATOM      5  C   UNL     1      -2.822  -1.234   2.001  0.00  0.00    +0.088 A 
ATOM      6  C   UNL     1      -3.473  -0.789   3.153  0.00  0.00    +0.030 A 
ATOM      7  C   UNL     1      -4.402  -1.599   3.773  0.00  0.00    +0.014 A 
ATOM      8  C   UNL     1      -4.681  -2.854   3.261  0.00  0.00    +0.055 A 
BRANCH   8   9
ATOM      9  C   UNL     1      -5.692  -3.736   3.947  0.00  0.00    +0.417 C 
ATOM     10  F   UNL     1      -5.049  -4.525   4.906  0.00  0.00    -0.166 F 
ATOM     11  F   UNL     1      -6.658  -2.939   4.571  0.00  0.00    -0.166 F 
ATOM     12  F   UNL     1      -6.309  -4.561   3.001  0.00  0.00    -0.166 F 
ENDBRANCH   8   9
ENDBRANCH   1   5
BRANCH   2  13
ATOM     13  N   UNL     1      -0.698   1.558   1.213  0.00  0.00    -0.192 N 
BRANCH  13  14
ATOM     14  C   UNL     1      -0.414   2.827   1.727  0.00  0.00    +0.054 A 
ATOM     15  C   UNL     1       0.522   3.638   1.099  0.00  0.00    +0.028 A 
ATOM     16  C   UNL     1       0.797   4.893   1.606  0.00  0.00    +0.040 A 
ATOM     17  C   UNL     1       0.149   5.338   2.745  0.00  0.00    +0.124 A 
ATOM     18  C   UNL     1      -0.781   4.529   3.376  0.00  0.00    +0.040 A 
ATOM     19  C   UNL     1      -1.064   3.276   2.870  0.00  0.00    +0.028 A 
ATOM     20  F   UNL     1       0.424   6.564   3.242  0.00  0.00    -0.205 F 
ENDBRANCH  13  14
BRANCH  13  21
ATOM     21  C   UNL     1      -0.013   1.086   0.008  0.00  0.00    +0.251 C 
BRANCH  21  22
ATOM     22  C   UNL     1      -0.725   1.573  -1.185  0.00  0.00    +0.084 C 
ATOM     23  N   UNL     1      -1.274   1.950  -2.105  0.00  0.00    -0.195 NA
ENDBRANCH  21  22
ENDBRANCH  13  21
ENDBRANCH   2  13
TORSDOF 6
