REMARK  Name = ZINC34774712
REMARK  10 active torsions:
REMARK  status: ('A' for Active; 'I' for Inactive)
REMARK    1  A    between atoms: C_1  and  C_2
REMARK    2  A    between atoms: C_2  and  N_3
REMARK    3  A    between atoms: N_3  and  C_4
REMARK    4  A    between atoms: C_4  and  C_5
REMARK    5  A    between atoms: C_6  and  C_8
REMARK    6  A    between atoms: C_8  and  N_9
REMARK    7  A    between atoms: C_17  and  C_29
REMARK    8  A    between atoms: C_22  and  S_24
REMARK    9  A    between atoms: S_24  and  C_25
REMARK   10  A    between atoms: C_25  and  C_26
REMARK                            x       y       z     vdW  Elec       q    Type
REMARK                         _______ _______ _______ _____ _____    ______ ____
ROOT
ATOM      1  N   UNL     1      -2.988  -0.485   3.287  0.00  0.00    +0.387 N 
ATOM      2  C   UNL     1      -2.907   0.332   4.505  0.00  0.00    -0.059 C 
ATOM      3  C   UNL     1      -3.697  -0.348   5.628  0.00  0.00    +0.088 C 
ATOM      4  N   UNL     1      -5.067  -0.594   5.151  0.00  0.00    -0.318 N 
ATOM      5  C   UNL     1      -5.240  -1.265   3.853  0.00  0.00    +0.088 C 
ATOM      6  C   UNL     1      -4.377  -0.542   2.814  0.00  0.00    -0.059 C 
ATOM      7  C   UNL     1      -6.162  -0.205   5.902  0.00  0.00    +0.134 A 
ATOM      8  C   UNL     1      -6.525  -0.929   7.069  0.00  0.00    +0.055 A 
ATOM      9  C   UNL     1      -5.899  -2.105   7.666  0.00  0.00    +0.002 A 
ATOM     10  C   UNL     1      -6.432  -2.625   8.796  0.00  0.00    +0.056 A 
ATOM     11  S   UNL     1      -7.820  -1.557   9.130  0.00  0.00    -0.076 S 
ATOM     12  C   UNL     1      -7.656  -0.446   7.758  0.00  0.00    +0.115 A 
ATOM     13  N   UNL     1      -8.322   0.611   7.332  0.00  0.00    -0.214 NA
ATOM     14  C   UNL     1      -7.938   1.248   6.235  0.00  0.00    +0.191 A 
ATOM     15  N   UNL     1      -6.878   0.848   5.543  0.00  0.00    -0.206 NA
ATOM     16  H   UNL     1      -2.664  -1.419   3.489  0.00  0.00    -0.081 HD
ENDROOT
BRANCH   9  17
ATOM     17  C   UNL     1      -4.701  -2.719   7.045  0.00  0.00    -0.017 A 
ATOM     18  C   UNL     1      -4.762  -3.212   5.743  0.00  0.00    +0.008 A 
ATOM     19  C   UNL     1      -3.644  -3.782   5.170  0.00  0.00    +0.001 A 
ATOM     20  C   UNL     1      -2.463  -3.865   5.886  0.00  0.00    +0.000 A 
ATOM     21  C   UNL     1      -2.396  -3.377   7.179  0.00  0.00    +0.001 A 
ATOM     22  C   UNL     1      -3.506  -2.800   7.760  0.00  0.00    +0.008 A 
ENDBRANCH   9  17
BRANCH   1  23
ATOM     23  C   UNL     1      -2.141   0.110   2.244  0.00  0.00    +0.019 C 
BRANCH  23  25
ATOM     24  N   UNL     1       0.265   0.549   1.873  0.00  0.00    -0.304 N 
ATOM     25  C   UNL     1      -0.699   0.057   2.677  0.00  0.00    +0.199 C 
ATOM     26  O   UNL     1      -0.405  -0.427   3.749  0.00  0.00    -0.278 OA
BRANCH  24  28
ATOM     27  C   UNL     1       2.015   1.774   3.064  0.00  0.00    +0.024 C 
ATOM     28  C   UNL     1       1.667   0.498   2.294  0.00  0.00    +0.104 C 
ENDBRANCH  24  28
BRANCH  24  29
ATOM     29  C   UNL     1      -0.090   1.135   0.578  0.00  0.00    +0.104 C 
ATOM     30  C   UNL     1      -0.074   0.046  -0.496  0.00  0.00    +0.024 C 
ENDBRANCH  24  29
ENDBRANCH  23  25
ENDBRANCH   1  23
BRANCH  14  31
ATOM     31  S   UNL     1      -8.845   2.656   5.689  0.00  0.00    -0.077 S 
BRANCH  31  32
ATOM     32  C   UNL     1     -10.169   2.828   6.918  0.00  0.00    +0.172 C 
BRANCH  32  33
ATOM     33  C   UNL     1     -11.032   4.012   6.564  0.00  0.00    +0.221 C 
ATOM     34  O   UNL     1     -10.778   4.675   5.581  0.00  0.00    -0.275 OA
ATOM     35  N   UNL     1     -12.084   4.335   7.342  0.00  0.00    -0.329 N 
ATOM     36  H   UNL     1     -12.287   3.805   8.128  0.00  0.00    +0.145 HD
ATOM     37  H   UNL     1     -12.640   5.097   7.114  0.00  0.00    +0.145 HD
ENDBRANCH  32  33
ENDBRANCH  31  32
ENDBRANCH  14  31
TORSDOF 8
