REMARK  Name = ZINC13502568
REMARK  4 active torsions:
REMARK  status: ('A' for Active; 'I' for Inactive)
REMARK    1  A    between atoms: C_10  and  S_19
REMARK    2  A    between atoms: C_12  and  C_16
REMARK    3  A    between atoms: S_19  and  C_20
REMARK    4  A    between atoms: C_20  and  C_21
REMARK                            x       y       z     vdW  Elec       q    Type
REMARK                         _______ _______ _______ _____ _____    ______ ____
ROOT
ATOM      1  C   UNL     1       1.877  -4.462   0.427  0.00  0.00    +0.005 C 
ATOM      2  C   UNL     1       0.685  -4.948  -0.401  0.00  0.00    +0.005 C 
ATOM      3  C   UNL     1      -0.552  -4.124  -0.014  0.00  0.00    +0.043 C 
ATOM      4  C   UNL     1      -0.171  -2.676  -0.010  0.00  0.00    -0.004 A 
ATOM      5  C   UNL     1       1.076  -2.152  -0.019  0.00  0.00    -0.024 A 
ATOM      6  C   UNL     1       1.196  -0.740  -0.014  0.00  0.00    +0.056 A 
ATOM      7  C   UNL     1       2.429   0.079  -0.022  0.00  0.00    +0.173 A 
ATOM      8  N   UNL     1       3.709  -0.202  -0.038  0.00  0.00    -0.128 NA
ATOM      9  N   UNL     1       4.391   0.891  -0.038  0.00  0.00    -0.122 NA
ATOM     10  C   UNL     1       3.587   1.930  -0.023  0.00  0.00    +0.198 A 
ATOM     11  N   UNL     1       2.307   1.451  -0.013  0.00  0.00    -0.257 N 
ATOM     12  C   UNL     1       1.075   2.038   0.003  0.00  0.00    +0.122 A 
ATOM     13  N   UNL     1      -0.016   1.326   0.009  0.00  0.00    -0.226 NA
ATOM     14  C   UNL     1       0.002  -0.004   0.002  0.00  0.00    +0.114 A 
ATOM     15  S   UNL     1      -1.247  -1.267   0.008  0.00  0.00    -0.073 S 
ATOM     16  C   UNL     1       2.299  -3.067  -0.035  0.00  0.00    +0.037 C 
ENDROOT
BRANCH  12  17
ATOM     17  C   UNL     1       0.974   3.541   0.012  0.00  0.00    +0.056 C 
ATOM     18  C   UNL     1      -0.409   4.155   0.235  0.00  0.00    +0.012 C 
ATOM     19  C   UNL     1       0.237   4.207  -1.152  0.00  0.00    +0.012 C 
ENDBRANCH  12  17
BRANCH  10  20
ATOM     20  S   UNL     1       4.070   3.624  -0.016  0.00  0.00    -0.076 S 
BRANCH  20  21
ATOM     21  C   UNL     1       5.883   3.565  -0.034  0.00  0.00    +0.173 C 
BRANCH  21  22
ATOM     22  C   UNL     1       6.432   4.968  -0.029  0.00  0.00    +0.229 C 
ATOM     23  O   UNL     1       5.675   5.915  -0.016  0.00  0.00    -0.275 OA
ATOM     24  N   UNL     1       7.764   5.171  -0.041  0.00  0.00    -0.264 N 
ATOM     25  C   UNL     1       8.271   6.465  -0.037  0.00  0.00    +0.165 A 
ATOM     26  N   UNL     1       7.618   7.609  -0.029  0.00  0.00    -0.229 NA
ATOM     27  C   UNL     1       8.245   8.783  -0.022  0.00  0.00    +0.054 A 
ATOM     28  C   UNL     1       9.603   8.733  -0.035  0.00  0.00    +0.014 A 
ATOM     29  S   UNL     1       9.928   6.990  -0.049  0.00  0.00    -0.057 S 
ATOM     30  C   UNL     1      10.560   9.876  -0.038  0.00  0.00    +0.044 C 
ATOM     31  C   UNL     1       9.783  11.154  -0.391  0.00  0.00    +0.006 C 
ATOM     32  C   UNL     1       8.509  11.205   0.457  0.00  0.00    +0.006 C 
ATOM     33  C   UNL     1       7.526  10.127  -0.005  0.00  0.00    +0.056 C 
ATOM     34  H   UNL     1       8.370   4.413  -0.051  0.00  0.00    +0.157 HD
ENDBRANCH  21  22
ENDBRANCH  20  21
ENDBRANCH  10  20
TORSDOF 4
