REMARK  Name = ZINC09812760
REMARK  7 active torsions:
REMARK  status: ('A' for Active; 'I' for Inactive)
REMARK    1  A    between atoms: C_4  and  C_7
REMARK    2  A    between atoms: C_16  and  C_18
REMARK    3  A    between atoms: C_18  and  O_19
REMARK    4  A    between atoms: O_19  and  C_20
REMARK    5  A    between atoms: C_20  and  C_22
REMARK    6  A    between atoms: C_25  and  S_28
REMARK    7  A    between atoms: S_28  and  N_31
REMARK                            x       y       z     vdW  Elec       q    Type
REMARK                         _______ _______ _______ _____ _____    ______ ____
ROOT
ATOM      1  C   UNL     1       5.296  -4.932   3.415  0.00  0.00    +0.306 C 
ENDROOT
BRANCH   1  11
ATOM      2  C   UNL     1       3.698  -0.688  -0.038  0.00  0.00    +0.004 A 
ATOM      3  C   UNL     1       4.658  -0.360  -0.936  0.00  0.00    +0.056 A 
ATOM      4  S   UNL     1       5.984  -1.488  -0.553  0.00  0.00    -0.076 S 
ATOM      5  C   UNL     1       5.225  -2.365   0.790  0.00  0.00    +0.116 A 
ATOM      6  C   UNL     1       3.965  -1.759   0.914  0.00  0.00    +0.080 A 
ATOM      7  C   UNL     1       3.125  -2.280   1.950  0.00  0.00    +0.260 A 
ATOM      8  O   UNL     1       2.010  -1.822   2.132  0.00  0.00    -0.267 OA
ATOM      9  N   UNL     1       3.585  -3.284   2.719  0.00  0.00    -0.308 N 
ATOM     10  H   UNL     1       3.020  -3.642   3.422  0.00  0.00    +0.170 HD
ATOM     11  C   UNL     1       4.823  -3.807   2.529  0.00  0.00    +0.149 A 
ATOM     12  N   UNL     1       5.609  -3.360   1.586  0.00  0.00    -0.223 NA
BRANCH   2  16
ATOM     13  C   UNL     1      -0.017   1.379   0.010  0.00  0.00    +0.000 A 
ATOM     14  C   UNL     1       1.169   2.092   0.002  0.00  0.00    +0.001 A 
ATOM     15  C   UNL     1       2.377   1.427  -0.013  0.00  0.00    +0.008 A 
ATOM     16  C   UNL     1       2.403   0.033  -0.021  0.00  0.00    -0.017 A 
ATOM     17  C   UNL     1       1.205  -0.680  -0.013  0.00  0.00    +0.008 A 
ATOM     18  C   UNL     1       0.002  -0.004   0.002  0.00  0.00    +0.001 A 
ENDBRANCH   2  16
ENDBRANCH   1  11
BRANCH   1  19
ATOM     19  O   UNL     1       6.618  -5.316   3.032  0.00  0.00    -0.453 OA
BRANCH  19  20
ATOM     20  C   UNL     1       7.190  -6.316   3.730  0.00  0.00    +0.340 C 
ATOM     21  O   UNL     1       6.583  -6.848   4.638  0.00  0.00    -0.245 OA
BRANCH  20  22
ATOM     22  C   UNL     1       8.555  -6.766   3.391  0.00  0.00    +0.059 A 
ATOM     23  C   UNL     1       9.258  -6.154   2.351  0.00  0.00    +0.017 A 
ATOM     24  C   UNL     1      10.532  -6.580   2.039  0.00  0.00    +0.029 A 
ATOM     25  C   UNL     1      11.115  -7.611   2.754  0.00  0.00    +0.106 A 
ATOM     26  C   UNL     1      10.424  -8.223   3.786  0.00  0.00    +0.029 A 
ATOM     27  C   UNL     1       9.152  -7.803   4.112  0.00  0.00    +0.017 A 
BRANCH  25  28
ATOM     28  S   UNL     1      12.743  -8.148   2.350  0.00  0.00    +0.061 S 
ATOM     29  O   UNL     1      12.854  -9.489   2.807  0.00  0.00    -0.153 OA
ATOM     30  O   UNL     1      12.966  -7.785   0.994  0.00  0.00    -0.153 OA
BRANCH  28  31
ATOM     31  N   UNL     1      13.796  -7.250   3.260  0.00  0.00    -0.177 NA
ATOM     32  C   UNL     1      14.389  -5.964   2.864  0.00  0.00    +0.109 C 
ATOM     33  C   UNL     1      15.320  -5.517   4.010  0.00  0.00    +0.018 C 
ATOM     34  C   UNL     1      15.636  -6.849   4.741  0.00  0.00    +0.018 C 
ATOM     35  C   UNL     1      14.288  -7.604   4.603  0.00  0.00    +0.109 C 
ENDBRANCH  28  31
ENDBRANCH  25  28
ENDBRANCH  20  22
ENDBRANCH  19  20
ENDBRANCH   1  19
TORSDOF 7
