REMARK  Name = ZINC59021933
REMARK  10 active torsions:
REMARK  status: ('A' for Active; 'I' for Inactive)
REMARK    1  A    between atoms: C_1  and  C_2
REMARK    2  A    between atoms: N_8  and  S_9
REMARK    3  A    between atoms: S_9  and  C_12
REMARK    4  A    between atoms: C_15  and  C_18
REMARK    5  A    between atoms: C_23  and  N_26
REMARK    6  A    between atoms: C_27  and  O_29
REMARK    7  A    between atoms: O_29  and  C_30
REMARK    8  A    between atoms: C_30  and  C_31
REMARK    9  A    between atoms: C_30  and  C_32
REMARK   10  A    between atoms: C_30  and  C_33
REMARK                            x       y       z     vdW  Elec       q    Type
REMARK                         _______ _______ _______ _____ _____    ______ ____
ROOT
ATOM      1  C   UNL     1      -2.674   0.208   6.648  0.00  0.00    +0.247 C 
ATOM      2  O   UNL     1      -3.678   0.890   6.595  0.00  0.00    -0.270 OA
ATOM      3  N   UNL     1      -2.477  -0.622   7.691  0.00  0.00    -0.297 N 
ATOM      4  C   UNL     1      -3.415  -0.638   8.823  0.00  0.00    +0.110 C 
ATOM      5  C   UNL     1      -2.626  -0.432  10.120  0.00  0.00    +0.041 C 
ATOM      6  C   UNL     1      -1.516  -1.481  10.209  0.00  0.00    +0.079 C 
ATOM      7  C   UNL     1      -0.556  -1.313   9.029  0.00  0.00    +0.041 C 
ATOM      8  C   UNL     1      -1.325  -1.533   7.716  0.00  0.00    +0.110 C 
ENDROOT
BRANCH   1  12
ATOM      9  C   UNL     1       0.218   0.441   3.546  0.00  0.00    +0.106 A 
ATOM     10  C   UNL     1      -0.294   1.601   4.098  0.00  0.00    +0.029 A 
ATOM     11  C   UNL     1      -1.233   1.533   5.106  0.00  0.00    +0.015 A 
ATOM     12  C   UNL     1      -1.667   0.289   5.568  0.00  0.00    +0.037 A 
ATOM     13  C   UNL     1      -1.147  -0.878   5.006  0.00  0.00    +0.015 A 
ATOM     14  C   UNL     1      -0.211  -0.795   3.995  0.00  0.00    +0.029 A 
BRANCH   9  15
ATOM     15  S   UNL     1       1.418   0.537   2.259  0.00  0.00    +0.061 S 
ATOM     16  O   UNL     1       2.138  -0.688   2.282  0.00  0.00    -0.153 OA
ATOM     17  O   UNL     1       2.057   1.799   2.393  0.00  0.00    -0.153 OA
BRANCH  15  24
ATOM     18  C   UNL     1       0.543   3.000   1.172  0.00  0.00    +0.026 C 
ATOM     19  C   UNL     1       0.064   1.839   0.297  0.00  0.00    +0.077 C 
ATOM     20  C   UNL     1       0.571   2.033  -1.135  0.00  0.00    +0.020 C 
ATOM     21  C   UNL     1       0.208   0.803  -1.971  0.00  0.00    +0.003 C 
ATOM     22  C   UNL     1       0.887  -0.435  -1.381  0.00  0.00    +0.017 C 
ATOM     23  C   UNL     1       0.383  -0.656   0.048  0.00  0.00    +0.110 C 
ATOM     24  N   UNL     1       0.594   0.574   0.823  0.00  0.00    -0.174 NA
ENDBRANCH  15  24
ENDBRANCH   9  15
ENDBRANCH   1  12
BRANCH   6  25
ATOM     25  N   UNL     1      -0.780  -1.308  11.464  0.00  0.00    -0.278 N 
ATOM     26  C   UNL     1      -0.127  -2.352  12.012  0.00  0.00    +0.401 C 
ATOM     27  O   UNL     1      -0.147  -3.436  11.464  0.00  0.00    -0.226 OA
ATOM     28  H   UNL     1      -0.764  -0.442  11.901  0.00  0.00    +0.152 HD
BRANCH  26  29
ATOM     29  O   UNL     1       0.549  -2.192  13.165  0.00  0.00    -0.445 OA
BRANCH  29  30
ATOM     30  C   UNL     1       1.219  -3.341  13.689  0.00  0.00    +0.107 C 
ATOM     31  C   UNL     1       2.250  -3.837  12.673  0.00  0.00    +0.055 C 
ATOM     32  C   UNL     1       1.926  -2.969  14.993  0.00  0.00    +0.055 C 
ATOM     33  C   UNL     1       0.198  -4.447  13.960  0.00  0.00    +0.055 C 
ENDBRANCH  29  30
ENDBRANCH  26  29
ENDBRANCH   6  25
TORSDOF 6
