REMARK  Name = ZINC39850560
REMARK  5 active torsions:
REMARK  status: ('A' for Active; 'I' for Inactive)
REMARK    1  A    between atoms: C_1  and  C_2
REMARK    2  A    between atoms: C_5  and  C_13
REMARK    3  A    between atoms: C_6  and  C_7
REMARK    4  A    between atoms: C_6  and  C_8
REMARK    5  A    between atoms: N_11  and  O_12
REMARK                            x       y       z     vdW  Elec       q    Type
REMARK                         _______ _______ _______ _____ _____    ______ ____
ROOT
ATOM      1  C   UNL     1      -0.019   1.526   0.010  0.00  0.00    +0.018 C 
ATOM      2  C   UNL     1       0.002  -0.004   0.002  0.00  0.00    +0.015 C 
ATOM      3  C   UNL     1       0.746  -0.667  -1.197  0.00  0.00    +0.014 C 
ATOM      4  C   UNL     1       1.065  -2.101  -0.713  0.00  0.00    +0.018 C 
ATOM      5  C   UNL     1       0.474  -2.165   0.729  0.00  0.00    +0.058 C 
ATOM      6  C   UNL     1       0.727  -0.692   1.212  0.00  0.00    -0.010 C 
ATOM      7  C   UNL     1       0.034  -0.396   2.543  0.00  0.00    +0.013 C 
ATOM      8  C   UNL     1       2.218  -0.351   1.258  0.00  0.00    +0.013 C 
ATOM      9  C   UNL     1      -1.070  -2.124   0.515  0.00  0.00    +0.071 C 
ATOM     10  C   UNL     1      -1.369  -0.692   0.058  0.00  0.00    +0.065 C 
ATOM     11  N   UNL     1      -2.506  -0.182  -0.233  0.00  0.00    -0.096 NA
ENDROOT
BRANCH   5  12
ATOM     12  C   UNL     1       1.007  -3.261   1.615  0.00  0.00    +0.226 C 
ATOM     13  O   UNL     1       1.582  -2.983   2.646  0.00  0.00    -0.275 OA
ATOM     14  N   UNL     1       0.845  -4.552   1.262  0.00  0.00    -0.264 N 
ATOM     15  C   UNL     1       1.334  -5.560   2.076  0.00  0.00    +0.165 A 
ATOM     16  N   UNL     1       1.971  -5.458   3.220  0.00  0.00    -0.225 NA
ATOM     17  C   UNL     1       2.395  -6.537   3.913  0.00  0.00    +0.080 A 
ATOM     18  C   UNL     1       3.087  -6.566   5.146  0.00  0.00    +0.029 A 
ATOM     19  C   UNL     1       3.448  -7.757   5.718  0.00  0.00    +0.002 A 
ATOM     20  C   UNL     1       3.151  -8.971   5.116  0.00  0.00    +0.001 A 
ATOM     21  C   UNL     1       2.475  -8.980   3.910  0.00  0.00    +0.017 A 
ATOM     22  C   UNL     1       2.109  -7.792   3.328  0.00  0.00    +0.041 A 
ATOM     23  S   UNL     1       1.253  -7.330   1.842  0.00  0.00    -0.052 S 
ATOM     24  H   UNL     1       0.385  -4.775   0.438  0.00  0.00    +0.157 HD
ENDBRANCH   5  12
BRANCH  11  25
ATOM     25  O   UNL     1      -3.681  -0.964  -0.125  0.00  0.00    -0.409 OA
ATOM     26  H   UNL     1      -4.491  -0.493  -0.366  0.00  0.00    +0.328 HD
ENDBRANCH  11  25
TORSDOF 2
