REMARK  Name = ZINC47145753
REMARK  7 active torsions:
REMARK  status: ('A' for Active; 'I' for Inactive)
REMARK    1  A    between atoms: C_1  and  C_2
REMARK    2  A    between atoms: C_2  and  N_3
REMARK    3  A    between atoms: N_3  and  C_4
REMARK    4  A    between atoms: N_3  and  C_6
REMARK    5  A    between atoms: C_4  and  C_5
REMARK    6  A    between atoms: C_9  and  C_12
REMARK    7  A    between atoms: N_28  and  C_31
REMARK                            x       y       z     vdW  Elec       q    Type
REMARK                         _______ _______ _______ _____ _____    ______ ____
ROOT
ATOM      1  C   UNL     1      -2.261  -1.436  -5.951  0.00  0.00    +0.072 C 
ATOM      2  C   UNL     1      -1.816  -0.482  -7.024  0.00  0.00    +0.033 A 
ATOM      3  C   UNL     1      -0.962  -0.683  -8.052  0.00  0.00    +0.088 A 
ATOM      4  N   UNL     1      -0.780   0.400  -8.876  0.00  0.00    -0.311 N 
ATOM      5  H   UNL     1      -0.191   0.331  -9.643  0.00  0.00    +0.170 HD
ATOM      6  C   UNL     1      -1.420   1.556  -8.618  0.00  0.00    +0.289 A 
ATOM      7  O   UNL     1      -1.367   2.603  -9.240  0.00  0.00    -0.260 OA
ATOM      8  S   UNL     1      -2.309   1.209  -7.233  0.00  0.00    -0.030 S 
ATOM      9  S   UNL     1      -0.141  -2.255  -8.275  0.00  0.00    -0.093 S 
ATOM     10  C   UNL     1      -0.479  -3.022  -6.669  0.00  0.00    +0.152 C 
ATOM     11  C   UNL     1      -2.013  -2.846  -6.425  0.00  0.00    +0.110 C 
ATOM     12  C   UNL     1      -2.282  -3.987  -5.497  0.00  0.00    +0.232 C 
ATOM     13  O   UNL     1      -3.127  -4.037  -4.629  0.00  0.00    -0.274 OA
ATOM     14  N   UNL     1      -1.389  -4.957  -5.823  0.00  0.00    -0.209 N 
ATOM     15  C   UNL     1      -0.366  -4.522  -6.652  0.00  0.00    +0.240 C 
ATOM     16  O   UNL     1       0.443  -5.197  -7.251  0.00  0.00    -0.274 OA
ENDROOT
BRANCH  14  17
ATOM     17  C   UNL     1      -1.477  -6.274  -5.349  0.00  0.00    +0.044 A 
ATOM     18  C   UNL     1      -2.519  -6.642  -4.508  0.00  0.00    +0.025 A 
ATOM     19  C   UNL     1      -2.605  -7.939  -4.043  0.00  0.00    +0.022 A 
ATOM     20  C   UNL     1      -1.653  -8.873  -4.414  0.00  0.00    +0.041 A 
ATOM     21  C   UNL     1      -0.613  -8.508  -5.251  0.00  0.00    +0.022 A 
ATOM     22  C   UNL     1      -0.527  -7.214  -5.724  0.00  0.00    +0.025 A 
ATOM     23 CL   UNL     1      -1.763 -10.503  -3.827  0.00  0.00    -0.084 Cl
ENDBRANCH  14  17
BRANCH   1  27
ATOM     24  C   UNL     1      -0.038  -0.713  -2.373  0.00  0.00    +0.030 A 
ATOM     25  C   UNL     1      -1.353  -1.152  -2.298  0.00  0.00    +0.023 A 
ATOM     26  C   UNL     1      -2.069  -1.384  -3.457  0.00  0.00    +0.006 A 
ATOM     27  C   UNL     1      -1.477  -1.180  -4.690  0.00  0.00    -0.038 A 
ATOM     28  C   UNL     1      -0.168  -0.743  -4.768  0.00  0.00    +0.006 A 
ATOM     29  C   UNL     1       0.552  -0.503  -3.613  0.00  0.00    +0.023 A 
BRANCH  24  30
ATOM     30  N   UNL     1       0.689  -0.476  -1.204  0.00  0.00    -0.330 N 
BRANCH  30  32
ATOM     31  C   UNL     1      -0.614   0.591   0.569  0.00  0.00    +0.024 C 
ATOM     32  C   UNL     1       0.065  -0.698   0.103  0.00  0.00    +0.102 C 
ENDBRANCH  30  32
BRANCH  30  33
ATOM     33  C   UNL     1       2.074  -0.007  -1.284  0.00  0.00    +0.102 C 
ATOM     34  C   UNL     1       3.019  -1.210  -1.324  0.00  0.00    +0.024 C 
ENDBRANCH  30  33
ENDBRANCH  24  30
ENDBRANCH   1  27
TORSDOF 5
