REMARK  Name = ZINC36205293
REMARK  16 active torsions:
REMARK  status: ('A' for Active; 'I' for Inactive)
REMARK    1  A    between atoms: C_1  and  C_2
REMARK    2  A    between atoms: C_5  and  C_9
REMARK    3  A    between atoms: C_7  and  C_8
REMARK    4  A    between atoms: C_18  and  C_20
REMARK    5  A    between atoms: C_20  and  N_21
REMARK    6  A    between atoms: N_21  and  C_22
REMARK    7  A    between atoms: N_21  and  C_29
REMARK    8  A    between atoms: C_22  and  C_23
REMARK    9  A    between atoms: C_29  and  C_30
REMARK   10  A    between atoms: C_30  and  C_32
REMARK   11  A    between atoms: C_30  and  O_38
REMARK   12  A    between atoms: C_32  and  O_33
REMARK   13  A    between atoms: O_33  and  C_34
REMARK   14  A    between atoms: C_34  and  C_35
REMARK   15  A    between atoms: C_34  and  C_36
REMARK   16  A    between atoms: C_34  and  C_37
REMARK                            x       y       z     vdW  Elec       q    Type
REMARK                         _______ _______ _______ _____ _____    ______ ____
ROOT
ATOM      1  C   UNL     1      -2.791  -7.941  -3.518  0.00  0.00    -0.003 C 
ENDROOT
BRANCH   1  11
ATOM      2  C   UNL     1       1.473  -4.801  -1.409  0.00  0.00    +0.004 A 
ATOM      3  C   UNL     1       2.193  -5.466  -0.473  0.00  0.00    +0.056 A 
ATOM      4  S   UNL     1       1.395  -7.057  -0.391  0.00  0.00    -0.076 S 
ATOM      5  C   UNL     1       0.125  -6.795  -1.603  0.00  0.00    +0.116 A 
ATOM      6  C   UNL     1       0.346  -5.479  -2.038  0.00  0.00    +0.080 A 
ATOM      7  C   UNL     1      -0.559  -4.995  -3.036  0.00  0.00    +0.260 A 
ATOM      8  O   UNL     1      -0.445  -3.866  -3.480  0.00  0.00    -0.267 OA
ATOM      9  N   UNL     1      -1.538  -5.807  -3.477  0.00  0.00    -0.312 N 
ATOM     10  H   UNL     1      -2.154  -5.485  -4.153  0.00  0.00    +0.170 HD
ATOM     11  C   UNL     1      -1.680  -7.068  -2.994  0.00  0.00    +0.094 A 
ATOM     12  N   UNL     1      -0.863  -7.541  -2.091  0.00  0.00    -0.229 NA
BRANCH   2  17
ATOM     13  C   UNL     1       2.821   0.608  -2.853  0.00  0.00    +0.044 C 
ATOM     14  C   UNL     1       2.469  -0.808  -2.475  0.00  0.00    -0.048 A 
ATOM     15  C   UNL     1       2.280  -1.758  -3.463  0.00  0.00    +0.004 A 
ATOM     16  C   UNL     1       1.956  -3.056  -3.123  0.00  0.00    +0.009 A 
ATOM     17  C   UNL     1       1.821  -3.409  -1.780  0.00  0.00    -0.016 A 
ATOM     18  C   UNL     1       2.012  -2.447  -0.790  0.00  0.00    +0.012 A 
ATOM     19  C   UNL     1       2.341  -1.153  -1.142  0.00  0.00    -0.047 A 
ATOM     20  C   UNL     1       2.555  -0.114  -0.072  0.00  0.00    +0.044 C 
ENDBRANCH   2  17
ENDBRANCH   1  11
BRANCH   1  21
ATOM     21  N   UNL     1      -2.741  -9.249  -2.851  0.00  0.00    +0.389 N 
ATOM     22  H   UNL     1      -1.824  -9.652  -2.968  0.00  0.00    -0.081 HD
BRANCH  21  23
ATOM     23  C   UNL     1      -3.022  -9.079  -1.419  0.00  0.00    -0.042 C 
BRANCH  23  24
ATOM     24  C   UNL     1      -4.334  -8.357  -1.247  0.00  0.00    -0.064 A 
ATOM     25  C   UNL     1      -4.357  -6.978  -1.162  0.00  0.00    +0.002 A 
ATOM     26  C   UNL     1      -5.560  -6.315  -1.004  0.00  0.00    +0.000 A 
ATOM     27  C   UNL     1      -6.740  -7.032  -0.931  0.00  0.00    +0.000 A 
ATOM     28  C   UNL     1      -6.716  -8.412  -1.017  0.00  0.00    +0.000 A 
ATOM     29  C   UNL     1      -5.514  -9.074  -1.180  0.00  0.00    +0.002 A 
ENDBRANCH  23  24
ENDBRANCH  21  23
BRANCH  21  30
ATOM     30  C   UNL     1      -3.747 -10.140  -3.445  0.00  0.00    -0.044 C 
BRANCH  30  31
ATOM     31  C   UNL     1      -3.460 -11.584  -3.027  0.00  0.00    +0.124 C 
BRANCH  31  32
ATOM     32  O   UNL     1      -3.682 -11.726  -1.623  0.00  0.00    -0.391 OA
ATOM     33  H   UNL     1      -4.609 -11.642  -1.361  0.00  0.00    +0.210 HD
ENDBRANCH  31  32
BRANCH  31  34
ATOM     34  C   UNL     1      -4.390 -12.530  -3.789  0.00  0.00    +0.189 C 
BRANCH  34  35
ATOM     35  O   UNL     1      -4.045 -13.883  -3.487  0.00  0.00    -0.372 OA
BRANCH  35  36
ATOM     36  C   UNL     1      -4.858 -14.852  -4.151  0.00  0.00    +0.061 C 
ATOM     37  C   UNL     1      -4.723 -14.680  -5.665  0.00  0.00    +0.041 C 
ATOM     38  C   UNL     1      -4.401 -16.258  -3.756  0.00  0.00    +0.041 C 
ATOM     39  C   UNL     1      -6.319 -14.658  -3.743  0.00  0.00    +0.041 C 
ENDBRANCH  35  36
ENDBRANCH  34  35
ENDBRANCH  31  34
ENDBRANCH  30  31
ENDBRANCH  21  30
ENDBRANCH   1  21
TORSDOF 11
