REMARK  Name = ZINC06752717
REMARK  8 active torsions:
REMARK  status: ('A' for Active; 'I' for Inactive)
REMARK    1  A    between atoms: C_1  and  C_2
REMARK    2  A    between atoms: C_2  and  O_31
REMARK    3  A    between atoms: C_6  and  O_10
REMARK    4  A    between atoms: C_11  and  C_25
REMARK    5  A    between atoms: C_13  and  C_15
REMARK    6  A    between atoms: C_15  and  O_17
REMARK    7  A    between atoms: O_17  and  C_18
REMARK    8  A    between atoms: C_18  and  C_19
REMARK                            x       y       z     vdW  Elec       q    Type
REMARK                         _______ _______ _______ _____ _____    ______ ____
ROOT
ATOM      1  C   UNL     1      -0.151   1.491   0.239  0.00  0.00    +0.042 C 
ATOM      2  C   UNL     1      -0.091  -0.034   0.124  0.00  0.00    +0.082 C 
ATOM      3  C   UNL     1      -1.515  -0.604   0.143  0.00  0.00    +0.090 C 
ATOM      4  C   UNL     1      -1.425  -2.103   0.279  0.00  0.00    +0.046 A 
ATOM      5  C   UNL     1      -0.311  -2.765   0.684  0.00  0.00    +0.044 A 
ATOM      6  C   UNL     1      -0.599  -4.132   0.686  0.00  0.00    +0.235 A 
ATOM      7  N   UNL     1      -1.844  -4.284   0.296  0.00  0.00    -0.136 NA
ATOM      8  H   UNL     1      -3.284  -2.828  -0.266  0.00  0.00    +0.189 HD
ATOM      9  N   UNL     1      -2.381  -3.015   0.036  0.00  0.00    -0.278 N 
ATOM     10  C   UNL     1       0.985  -2.091   1.058  0.00  0.00    +0.072 C 
ATOM     11  C   UNL     1       0.704  -0.603   1.302  0.00  0.00    +0.141 C 
ENDROOT
BRANCH  10  12
ATOM     12  C   UNL     1       1.539  -2.716   2.313  0.00  0.00    -0.039 A 
ATOM     13  C   UNL     1       2.903  -2.890   2.454  0.00  0.00    +0.004 A 
ATOM     14  C   UNL     1       3.411  -3.463   3.605  0.00  0.00    +0.000 A 
ATOM     15  C   UNL     1       2.555  -3.862   4.614  0.00  0.00    +0.000 A 
ATOM     16  C   UNL     1       1.191  -3.686   4.474  0.00  0.00    +0.000 A 
ATOM     17  C   UNL     1       0.684  -3.109   3.325  0.00  0.00    +0.004 A 
ENDBRANCH  10  12
BRANCH   6  18
ATOM     18  O   UNL     1       0.259  -5.130   1.030  0.00  0.00    -0.491 OA
ATOM     19  H   UNL     1       0.238  -5.361   1.968  0.00  0.00    +0.294 HD
ENDBRANCH   6  18
BRANCH  11  20
ATOM     20  C   UNL     1      -0.094  -0.444   2.570  0.00  0.00    +0.314 C 
ATOM     21  O   UNL     1      -1.128  -1.053   2.714  0.00  0.00    -0.250 OA
BRANCH  20  22
ATOM     22  O   UNL     1       0.343   0.374   3.541  0.00  0.00    -0.460 OA
BRANCH  22  23
ATOM     23  C   UNL     1      -0.402   0.391   4.760  0.00  0.00    +0.267 C 
BRANCH  23  24
ATOM     24  C   UNL     1       0.300   1.267   5.765  0.00  0.00    -0.010 A 
ATOM     25  C   UNL     1       1.317   0.747   6.544  0.00  0.00    +0.007 A 
ATOM     26  C   UNL     1       1.961   1.551   7.466  0.00  0.00    +0.000 A 
ATOM     27  C   UNL     1       1.588   2.874   7.610  0.00  0.00    +0.000 A 
ATOM     28  C   UNL     1       0.571   3.394   6.830  0.00  0.00    +0.000 A 
ATOM     29  C   UNL     1      -0.070   2.591   5.905  0.00  0.00    +0.007 A 
ENDBRANCH  23  24
ENDBRANCH  22  23
ENDBRANCH  20  22
ENDBRANCH  11  20
BRANCH   2  30
ATOM     30  O   UNL     1       0.549  -0.394  -1.102  0.00  0.00    -0.388 OA
ATOM     31  H   UNL     1       0.099  -0.066  -1.892  0.00  0.00    +0.210 HD
ENDBRANCH   2  30
TORSDOF 7
