REMARK  Name = ZINC28052996
REMARK  5 active torsions:
REMARK  status: ('A' for Active; 'I' for Inactive)
REMARK    1  A    between atoms: C_1  and  C_2
REMARK    2  A    between atoms: C_6  and  C_8
REMARK    3  A    between atoms: C_11  and  C_31
REMARK    4  A    between atoms: C_21  and  C_24
REMARK    5  A    between atoms: C_27  and  O_30
REMARK                            x       y       z     vdW  Elec       q    Type
REMARK                         _______ _______ _______ _____ _____    ______ ____
ROOT
ATOM      1  C   UNL     1       2.451   3.937   0.000  0.00  0.00    +0.091 C 
ATOM      2  C   UNL     1       3.252   3.578   1.211  0.00  0.00    +0.049 A 
ATOM      3  C   UNL     1       3.109   3.893   2.559  0.00  0.00    +0.087 A 
ATOM      4  N   UNL     1       4.102   3.305   3.178  0.00  0.00    -0.081 NA
ATOM      5  O   UNL     1       4.815   2.689   2.409  0.00  0.00    -0.339 OA
ATOM      6  C   UNL     1       4.376   2.795   1.159  0.00  0.00    +0.226 A 
ATOM      7  N   UNL     1       4.839   2.288  -0.038  0.00  0.00    -0.286 N 
ATOM      8  C   UNL     1       4.340   2.807  -1.209  0.00  0.00    +0.019 C 
ATOM      9  C   UNL     1       3.240   3.588  -1.246  0.00  0.00    +0.024 C 
ATOM     10  C   UNL     1       2.772   4.122  -2.461  0.00  0.00    +0.162 C 
ATOM     11  O   UNL     1       1.769   4.807  -2.461  0.00  0.00    -0.292 OA
ATOM     12  C   UNL     1       3.486   3.864  -3.759  0.00  0.00    +0.088 C 
ATOM     13  C   UNL     1       4.971   3.626  -3.470  0.00  0.00    +0.032 C 
ATOM     14  C   UNL     1       5.088   2.467  -2.478  0.00  0.00    +0.059 C 
ATOM     15  C   UNL     1       2.028   4.740   3.181  0.00  0.00    +0.069 C 
ATOM     16  H   UNL     1       5.592   1.486  -0.041  0.00  0.00    +0.155 HD
ENDROOT
BRANCH   1  22
ATOM     17  C   UNL     1      -2.553   3.869   0.044  0.00  0.00    +0.044 C 
ATOM     18  C   UNL     1      -1.238   3.133   0.029  0.00  0.00    -0.050 A 
ATOM     19  C   UNL     1      -1.219   1.750   0.017  0.00  0.00    +0.003 A 
ATOM     20  C   UNL     1      -0.013   1.076   0.008  0.00  0.00    +0.001 A 
ATOM     21  C   UNL     1       1.175   1.783   0.000  0.00  0.00    +0.004 A 
ATOM     22  C   UNL     1       1.157   3.165   0.008  0.00  0.00    -0.035 A 
ATOM     23  C   UNL     1      -0.050   3.840   0.022  0.00  0.00    +0.008 A 
ENDBRANCH   1  22
BRANCH  13  24
ATOM     24  C   UNL     1       5.687   3.274  -4.748  0.00  0.00    -0.043 A 
ATOM     25  C   UNL     1       5.310   2.153  -5.465  0.00  0.00    +0.007 A 
ATOM     26  C   UNL     1       5.961   1.831  -6.640  0.00  0.00    +0.045 A 
ATOM     27  C   UNL     1       7.002   2.627  -7.095  0.00  0.00    +0.117 A 
ATOM     28  C   UNL     1       7.382   3.748  -6.372  0.00  0.00    +0.045 A 
ATOM     29  C   UNL     1       6.724   4.069  -5.200  0.00  0.00    +0.007 A 
BRANCH  27  30
ATOM     30  O   UNL     1       7.648   2.309  -8.248  0.00  0.00    -0.507 OA
ATOM     31  H   UNL     1       8.473   2.941  -8.608  0.00  0.00    +0.292 HD
ENDBRANCH  27  30
ENDBRANCH  13  24
TORSDOF 3
