REMARK  Name = ZINC21257500
REMARK  8 active torsions:
REMARK  status: ('A' for Active; 'I' for Inactive)
REMARK    1  A    between atoms: C_1  and  C_2
REMARK    2  A    between atoms: C_2  and  C_3
REMARK    3  A    between atoms: C_2  and  C_4
REMARK    4  A    between atoms: C_4  and  O_5
REMARK    5  A    between atoms: O_5  and  C_6
REMARK    6  A    between atoms: C_9  and  C_12
REMARK    7  A    between atoms: C_17  and  C_27
REMARK    8  A    between atoms: C_32  and  N_33
REMARK                            x       y       z     vdW  Elec       q    Type
REMARK                         _______ _______ _______ _____ _____    ______ ____
ROOT
ATOM      1  C   UNL     1       4.604   3.176  -3.947  0.00  0.00    +0.032 C 
ATOM      2  C   UNL     1       3.689   4.393  -3.817  0.00  0.00    +0.059 C 
ATOM      3  C   UNL     1       3.269   4.571  -2.367  0.00  0.00    +0.017 C 
ATOM      4  C   UNL     1       3.096   3.504  -1.573  0.00  0.00    +0.036 C 
ATOM      5  C   UNL     1       2.648   3.529  -0.131  0.00  0.00    +0.138 C 
ATOM      6  N   UNL     1       2.650   4.846   0.470  0.00  0.00    -0.331 N 
ATOM      7  C   UNL     1       1.799   5.849   0.010  0.00  0.00    +0.049 A 
ATOM      8  C   UNL     1       0.789   6.364   0.807  0.00  0.00    +0.025 A 
ATOM      9  C   UNL     1      -0.060   7.328   0.291  0.00  0.00    +0.002 A 
ATOM     10  C   UNL     1       0.094   7.772  -1.009  0.00  0.00    +0.002 A 
ATOM     11  C   UNL     1       1.112   7.271  -1.803  0.00  0.00    +0.025 A 
ATOM     12  C   UNL     1       1.975   6.324  -1.281  0.00  0.00    +0.052 A 
ATOM     13  N   UNL     1       3.080   5.859  -1.985  0.00  0.00    -0.316 N 
ATOM     14  C   UNL     1       3.347   2.199  -2.068  0.00  0.00    +0.163 C 
ATOM     15  O   UNL     1       3.171   1.249  -1.331  0.00  0.00    -0.292 OA
ATOM     16  C   UNL     1       3.819   1.949  -3.469  0.00  0.00    +0.088 C 
ATOM     17  H   UNL     1       3.331   5.068   1.305  0.00  0.00    +0.147 HD
ATOM     18  H   UNL     1       3.833   6.622  -2.232  0.00  0.00    +0.152 HD
ENDROOT
BRANCH   1  22
ATOM     19  C   UNL     1       5.757   2.662  -8.030  0.00  0.00    +0.121 A 
ATOM     20  C   UNL     1       6.723   2.870  -7.056  0.00  0.00    +0.046 A 
ATOM     21  C   UNL     1       6.348   3.036  -5.737  0.00  0.00    +0.007 A 
ATOM     22  C   UNL     1       5.011   2.995  -5.387  0.00  0.00    -0.043 A 
ATOM     23  C   UNL     1       4.046   2.782  -6.354  0.00  0.00    +0.007 A 
ATOM     24  C   UNL     1       4.416   2.621  -7.676  0.00  0.00    +0.046 A 
BRANCH  19  25
ATOM     25  O   UNL     1       6.123   2.499  -9.328  0.00  0.00    -0.492 OA
BRANCH  25  26
ATOM     26  C   UNL     1       5.075   2.289 -10.277  0.00  0.00    +0.232 C 
BRANCH  26  28
ATOM     27  C   UNL     1       6.526   0.856 -11.720  0.00  0.00    +0.010 C 
ATOM     28  C   UNL     1       5.677   2.128 -11.674  0.00  0.00    +0.020 C 
ATOM     29  C   UNL     1       4.552   2.027 -12.706  0.00  0.00    +0.010 C 
ENDBRANCH  26  28
ENDBRANCH  25  26
ENDBRANCH  19  25
ENDBRANCH   1  22
BRANCH   5  30
ATOM     30  C   UNL     1       1.251   2.970  -0.054  0.00  0.00    +0.007 A 
ATOM     31  C   UNL     1       0.461   2.927  -1.188  0.00  0.00    +0.008 A 
ATOM     32  C   UNL     1      -0.821   2.414  -1.118  0.00  0.00    +0.000 A 
ATOM     33  C   UNL     1      -1.311   1.940   0.084  0.00  0.00    +0.002 A 
ATOM     34  C   UNL     1      -0.523   1.988   1.219  0.00  0.00    +0.033 A 
ATOM     35  C   UNL     1       0.759   2.501   1.149  0.00  0.00    +0.131 A 
BRANCH  35  36
ATOM     36  N   UNL     1       1.605   2.547   2.363  0.00  0.00    +0.057 N 
ATOM     37  O   UNL     1       1.214   2.037   3.397  0.00  0.00    -0.126 OA
ATOM     38  O   UNL     1       2.692   3.096   2.327  0.00  0.00    -0.126 OA
ENDBRANCH  35  36
ENDBRANCH   5  30
TORSDOF 6
