REMARK  Name = ZINC25378386
REMARK  12 active torsions:
REMARK  status: ('A' for Active; 'I' for Inactive)
REMARK    1  A    between atoms: C_1  and  C_2
REMARK    2  A    between atoms: C_2  and  C_3
REMARK    3  A    between atoms: C_8  and  N_9
REMARK    4  A    between atoms: C_10  and  C_12
REMARK    5  A    between atoms: C_12  and  N_13
REMARK    6  A    between atoms: N_13  and  C_14
REMARK    7  A    between atoms: C_15  and  C_17
REMARK    8  A    between atoms: C_17  and  C_19
REMARK    9  A    between atoms: C_17  and  N_20
REMARK   10  A    between atoms: N_20  and  C_21
REMARK   11  A    between atoms: C_21  and  C_22
REMARK   12  A    between atoms: C_21  and  C_28
REMARK                            x       y       z     vdW  Elec       q    Type
REMARK                         _______ _______ _______ _____ _____    ______ ____
ROOT
ATOM      1  C   UNL     1       5.279  -1.169   0.951  0.00  0.00    +0.014 C 
ATOM      2  C   UNL     1       4.515  -2.017   1.970  0.00  0.00    -0.004 C 
ENDROOT
BRANCH   1   5
ATOM      3  N   UNL     1       7.468  -1.225   2.100  0.00  0.00    -0.297 N 
ATOM      4  C   UNL     1       7.505  -2.670   1.863  0.00  0.00    +0.132 C 
ATOM      5  C   UNL     1       6.440  -0.491   1.631  0.00  0.00    +0.202 C 
ATOM      6  O   UNL     1       6.449   0.716   1.756  0.00  0.00    -0.277 OA
BRANCH   3   7
ATOM      7  C   UNL     1       8.549  -0.577   2.848  0.00  0.00    +0.203 C 
BRANCH   7   9
ATOM      8  N   UNL     1       9.067  -0.025   5.202  0.00  0.00    -0.284 N 
ATOM      9  C   UNL     1       8.212  -0.573   4.316  0.00  0.00    +0.235 C 
ATOM     10  O   UNL     1       7.171  -1.062   4.701  0.00  0.00    -0.274 OA
ATOM     11  H   UNL     1       9.982   0.472   4.848  0.00  0.00    +0.155 HD
BRANCH   8  17
ATOM     12  C   UNL     1       9.828  -0.043   7.495  0.00  0.00    -0.026 A 
ATOM     13  C   UNL     1       9.551  -0.106   8.847  0.00  0.00    +0.005 A 
ATOM     14  C   UNL     1       8.243  -0.212   9.282  0.00  0.00    +0.000 A 
ATOM     15  C   UNL     1       7.208  -0.256   8.366  0.00  0.00    +0.002 A 
ATOM     16  C   UNL     1       7.477  -0.189   7.013  0.00  0.00    +0.023 A 
ATOM     17  C   UNL     1       8.790  -0.088   6.573  0.00  0.00    +0.037 A 
BRANCH  12  19
ATOM     18  C   UNL     1      11.594   1.547   6.787  0.00  0.00    +0.009 C 
ATOM     19  C   UNL     1      11.253   0.073   7.021  0.00  0.00    +0.033 C 
ENDBRANCH  12  19
ENDBRANCH   8  17
ENDBRANCH   7   9
ENDBRANCH   3   7
ENDBRANCH   1   5
BRANCH   1  20
ATOM     20  N   UNL     1       4.380  -0.153   0.388  0.00  0.00    +0.394 N 
ATOM     21  H   UNL     1       3.678   0.187   1.164  0.00  0.00    -0.083 HD
ATOM     22  H   UNL     1       4.971   0.702   0.029  0.00  0.00    -0.083 HD
BRANCH  20  23
ATOM     23  C   UNL     1       3.608  -0.698  -0.737  0.00  0.00    -0.009 C 
BRANCH  23  24
ATOM     24  C   UNL     1       2.328   0.081  -0.893  0.00  0.00    -0.057 A 
ATOM     25  C   UNL     1       1.151  -0.577  -1.197  0.00  0.00    +0.002 A 
ATOM     26  C   UNL     1      -0.024   0.137  -1.340  0.00  0.00    +0.000 A 
ATOM     27  C   UNL     1      -0.022   1.510  -1.178  0.00  0.00    +0.000 A 
ATOM     28  C   UNL     1       1.155   2.168  -0.874  0.00  0.00    +0.000 A 
ATOM     29  C   UNL     1       2.330   1.454  -0.731  0.00  0.00    +0.002 A 
ENDBRANCH  23  24
BRANCH  23  30
ATOM     30  C   UNL     1       4.420  -0.588  -2.002  0.00  0.00    -0.057 A 
ATOM     31  C   UNL     1       5.173   0.546  -2.244  0.00  0.00    +0.002 A 
ATOM     32  C   UNL     1       5.922   0.644  -3.402  0.00  0.00    +0.000 A 
ATOM     33  C   UNL     1       5.909  -0.386  -4.324  0.00  0.00    +0.000 A 
ATOM     34  C   UNL     1       5.151  -1.518  -4.084  0.00  0.00    +0.000 A 
ATOM     35  C   UNL     1       4.407  -1.619  -2.924  0.00  0.00    +0.002 A 
ENDBRANCH  23  30
ENDBRANCH  20  23
ENDBRANCH   1  20
TORSDOF 9
