REMARK  Name = ZINC44707861
REMARK  8 active torsions:
REMARK  status: ('A' for Active; 'I' for Inactive)
REMARK    1  A    between atoms: C_1  and  C_2
REMARK    2  A    between atoms: C_8  and  C_12
REMARK    3  A    between atoms: C_12  and  C_13
REMARK    4  A    between atoms: C_13  and  N_14
REMARK    5  A    between atoms: C_15  and  C_17
REMARK    6  A    between atoms: C_28  and  C_30
REMARK    7  A    between atoms: C_31  and  C_41
REMARK    8  A    between atoms: C_34  and  C_35
REMARK                            x       y       z     vdW  Elec       q    Type
REMARK                         _______ _______ _______ _____ _____    ______ ____
ROOT
ATOM      1  C   UNL     1      -2.531  -2.013   7.793  0.00  0.00    +0.100 C 
ATOM      2  C   UNL     1      -1.673  -0.774   8.135  0.00  0.00    +0.121 C 
ATOM      3  N   UNL     1      -2.642   0.344   8.209  0.00  0.00    -0.296 N 
ATOM      4  C   UNL     1      -3.830  -0.241   8.874  0.00  0.00    +0.115 C 
ATOM      5  C   UNL     1      -3.945  -1.661   8.283  0.00  0.00    -0.004 C 
ATOM      6  C   UNL     1      -4.393  -2.646   9.358  0.00  0.00    -0.010 C 
ATOM      7  C   UNL     1      -5.824  -2.311   9.787  0.00  0.00    -0.082 C 
ATOM      8  N   UNL     1      -6.716  -2.386   8.624  0.00  0.00    +0.379 N 
ATOM      9  C   UNL     1      -6.335  -1.371   7.635  0.00  0.00    -0.082 C 
ATOM     10  C   UNL     1      -4.926  -1.667   7.114  0.00  0.00    -0.010 C 
ATOM     11  C   UNL     1      -2.479   1.608   7.771  0.00  0.00    +0.252 C 
ATOM     12  O   UNL     1      -3.376   2.418   7.905  0.00  0.00    -0.270 OA
ATOM     13  H   UNL     1      -6.647  -3.303   8.208  0.00  0.00    -0.086 HD
ATOM     14  H   UNL     1      -7.667  -2.225   8.921  0.00  0.00    -0.086 HD
ENDROOT
BRANCH  11  15
ATOM     15  C   UNL     1      -1.216   2.008   7.129  0.00  0.00    +0.106 A 
ATOM     16  C   UNL     1      -0.925   1.949   5.798  0.00  0.00    +0.147 A 
ATOM     17  O   UNL     1       0.319   2.401   5.620  0.00  0.00    -0.359 OA
ATOM     18  N   UNL     1       0.869   2.772   6.868  0.00  0.00    -0.077 NA
ATOM     19  C   UNL     1      -0.026   2.555   7.799  0.00  0.00    +0.126 A 
ATOM     20  C   UNL     1      -1.849   1.456   4.713  0.00  0.00    +0.090 C 
BRANCH  19  21
ATOM     21  C   UNL     1       0.131   2.810   9.252  0.00  0.00    +0.004 A 
ATOM     22  C   UNL     1      -0.960   3.233  10.009  0.00  0.00    +0.010 A 
ATOM     23  C   UNL     1      -0.808   3.468  11.361  0.00  0.00    +0.001 A 
ATOM     24  C   UNL     1       0.423   3.285  11.963  0.00  0.00    +0.000 A 
ATOM     25  C   UNL     1       1.509   2.865  11.216  0.00  0.00    +0.001 A 
ATOM     26  C   UNL     1       1.368   2.621   9.865  0.00  0.00    +0.010 A 
ENDBRANCH  19  21
ENDBRANCH  11  15
BRANCH   1  28
ATOM     27  N   UNL     1      -2.792  -3.485   5.823  0.00  0.00    -0.315 N 
ATOM     28  C   UNL     1      -2.535  -2.253   6.305  0.00  0.00    +0.218 C 
ATOM     29  O   UNL     1      -2.308  -1.339   5.543  0.00  0.00    -0.275 OA
ATOM     30  H   UNL     1      -2.974  -4.217   6.433  0.00  0.00    +0.149 HD
BRANCH  27  31
ATOM     31  C   UNL     1      -2.796  -3.719   4.377  0.00  0.00    +0.109 C 
BRANCH  31  32
ATOM     32  C   UNL     1      -3.112  -5.190   4.099  0.00  0.00    +0.056 C 
BRANCH  32  40
ATOM     33  C   UNL     1       1.741  -6.303   1.267  0.00  0.00    +0.044 C 
ATOM     34  C   UNL     1       0.267  -6.149   0.995  0.00  0.00    -0.050 A 
ATOM     35  C   UNL     1      -0.213  -6.295  -0.300  0.00  0.00    +0.005 A 
ATOM     36  C   UNL     1      -1.557  -6.158  -0.570  0.00  0.00    +0.026 A 
ATOM     37  C   UNL     1      -2.444  -5.870   0.462  0.00  0.00    +0.047 A 
ATOM     38  C   UNL     1      -1.952  -5.724   1.772  0.00  0.00    +0.003 A 
ATOM     39  C   UNL     1      -0.587  -5.872   2.025  0.00  0.00    +0.013 A 
ATOM     40  C   UNL     1      -3.117  -5.431   2.611  0.00  0.00    -0.021 A 
ATOM     41  C   UNL     1      -4.189  -5.418   1.803  0.00  0.00    +0.087 A 
ATOM     42  N   UNL     1      -3.806  -5.678   0.516  0.00  0.00    -0.360 N 
ATOM     43  H   UNL     1      -4.405  -5.721  -0.246  0.00  0.00    +0.165 HD
ENDBRANCH  32  40
ENDBRANCH  31  32
ENDBRANCH  27  31
ENDBRANCH   1  28
TORSDOF 6
