REMARK  Name = ZINC00868122
REMARK  8 active torsions:
REMARK  status: ('A' for Active; 'I' for Inactive)
REMARK    1  A    between atoms: C_1  and  C_2
REMARK    2  A    between atoms: C_2  and  O_3
REMARK    3  A    between atoms: O_3  and  C_4
REMARK    4  A    between atoms: C_9  and  C_10
REMARK    5  A    between atoms: C_12  and  C_16
REMARK    6  A    between atoms: N_18  and  N_19
REMARK    7  A    between atoms: C_20  and  C_21
REMARK    8  A    between atoms: C_22  and  C_31
REMARK                            x       y       z     vdW  Elec       q    Type
REMARK                         _______ _______ _______ _____ _____    ______ ____
ROOT
ATOM      1  C   UNL     1      -4.760   4.385   4.881  0.00  0.00    +0.281 C 
ATOM      2  O   UNL     1      -4.741   4.377   6.098  0.00  0.00    -0.267 OA
ATOM      3  N   UNL     1      -5.729   5.053   4.226  0.00  0.00    -0.202 N 
ATOM      4  H   UNL     1      -5.744   5.060   3.257  0.00  0.00    +0.178 HD
ENDROOT
BRANCH   1   7
ATOM      5  C   UNL     1      -1.967   2.446   3.535  0.00  0.00    +0.097 A 
ATOM      6  C   UNL     1      -2.674   2.934   4.650  0.00  0.00    +0.062 A 
ATOM      7  C   UNL     1      -3.723   3.664   4.125  0.00  0.00    +0.122 A 
ATOM      8  N   UNL     1      -3.611   3.581   2.766  0.00  0.00    -0.272 N 
ATOM      9  H   UNL     1      -4.234   4.009   2.111  0.00  0.00    +0.189 HD
ATOM     10  N   UNL     1      -2.588   2.871   2.454  0.00  0.00    -0.173 NA
BRANCH   5  16
ATOM     11  C   UNL     1      -0.149   1.182   2.379  0.00  0.00    +0.130 A 
ATOM     12  C   UNL     1       0.993   0.398   2.422  0.00  0.00    +0.046 A 
ATOM     13  C   UNL     1       1.534   0.028   3.638  0.00  0.00    +0.004 A 
ATOM     14  C   UNL     1       0.941   0.438   4.819  0.00  0.00    +0.001 A 
ATOM     15  C   UNL     1      -0.197   1.219   4.791  0.00  0.00    +0.014 A 
ATOM     16  C   UNL     1      -0.747   1.602   3.571  0.00  0.00    +0.044 A 
BRANCH  11  17
ATOM     17  O   UNL     1      -0.682   1.547   1.184  0.00  0.00    -0.492 OA
BRANCH  17  19
ATOM     18  C   UNL     1      -0.753   1.593  -1.232  0.00  0.00    +0.048 C 
ATOM     19  C   UNL     1      -0.013   1.086   0.008  0.00  0.00    +0.226 C 
ENDBRANCH  17  19
ENDBRANCH  11  17
ENDBRANCH   5  16
ENDBRANCH   1   7
BRANCH   3  20
ATOM     20  N   UNL     1      -6.716   5.739   4.947  0.00  0.00    -0.187 NA
ATOM     21  C   UNL     1      -7.651   6.384   4.315  0.00  0.00    +0.140 C 
BRANCH  21  22
ATOM     22  C   UNL     1      -8.688   7.104   5.071  0.00  0.00    +0.023 A 
ATOM     23  C   UNL     1      -8.802   7.181   6.425  0.00  0.00    +0.023 A 
ATOM     24  N   UNL     1      -9.886   7.939   6.753  0.00  0.00    -0.358 N 
ATOM     25  H   UNL     1     -10.170   8.138   7.659  0.00  0.00    +0.166 HD
ATOM     26  C   UNL     1     -10.525   8.377   5.612  0.00  0.00    +0.047 A 
ATOM     27  C   UNL     1      -9.809   7.879   4.511  0.00  0.00    +0.009 A 
ATOM     28  C   UNL     1     -10.233   8.167   3.215  0.00  0.00    +0.010 A 
ATOM     29  C   UNL     1     -11.354   8.943   3.021  0.00  0.00    +0.001 A 
ATOM     30  C   UNL     1     -12.062   9.436   4.108  0.00  0.00    +0.002 A 
ATOM     31  C   UNL     1     -11.655   9.159   5.395  0.00  0.00    +0.026 A 
ATOM     32  C   UNL     1      -7.868   6.530   7.412  0.00  0.00    +0.064 C 
ENDBRANCH  21  22
ENDBRANCH   3  20
TORSDOF 6
