REMARK  Name = ZINC08891830
REMARK  8 active torsions:
REMARK  status: ('A' for Active; 'I' for Inactive)
REMARK    1  A    between atoms: C_1  and  C_2
REMARK    2  A    between atoms: C_2  and  C_3
REMARK    3  A    between atoms: C_3  and  C_25
REMARK    4  A    between atoms: N_6  and  C_10
REMARK    5  A    between atoms: C_10  and  C_11
REMARK    6  A    between atoms: N_13  and  C_14
REMARK    7  A    between atoms: C_14  and  C_15
REMARK    8  A    between atoms: N_17  and  C_18
REMARK                            x       y       z     vdW  Elec       q    Type
REMARK                         _______ _______ _______ _____ _____    ______ ____
ROOT
ATOM      1  C   UNL     1      -0.096   5.614   0.046  0.00  0.00    +0.138 C 
ATOM      2  C   UNL     1      -0.066   6.146   1.465  0.00  0.00    +0.251 C 
ATOM      3  O   UNL     1      -0.893   5.965   2.332  0.00  0.00    -0.272 OA
ATOM      4  N   UNL     1       1.071   6.863   1.561  0.00  0.00    -0.215 N 
ATOM      5  C   UNL     1       1.756   6.858   0.412  0.00  0.00    +0.310 C 
ATOM      6  O   UNL     1       2.814   7.435   0.254  0.00  0.00    -0.252 OA
ATOM      7  N   UNL     1       1.144   6.142  -0.548  0.00  0.00    -0.281 N 
ATOM      8  H   UNL     1       1.458   6.002  -1.455  0.00  0.00    +0.152 HD
ENDROOT
BRANCH   1   9
ATOM      9  C   UNL     1      -0.084   4.107   0.045  0.00  0.00    -0.015 A 
ATOM     10  C   UNL     1       1.119   3.425   0.030  0.00  0.00    +0.009 A 
ATOM     11  C   UNL     1       1.131   2.044   0.029  0.00  0.00    +0.039 A 
ATOM     12  C   UNL     1      -0.062   1.341   0.042  0.00  0.00    +0.123 A 
ATOM     13  C   UNL     1      -1.266   2.025   0.051  0.00  0.00    +0.039 A 
ATOM     14  C   UNL     1      -1.276   3.406   0.058  0.00  0.00    +0.009 A 
ATOM     15  F   UNL     1      -0.051  -0.010   0.041  0.00  0.00    -0.205 F 
ENDBRANCH   1   9
BRANCH   1  17
ATOM     16  C   UNL     1      -1.246   7.667  -0.793  0.00  0.00    +0.007 C 
ATOM     17  C   UNL     1      -1.322   6.141  -0.701  0.00  0.00    +0.037 C 
ENDBRANCH   1  17
BRANCH   4  18
ATOM     18  C   UNL     1       1.503   7.561   2.774  0.00  0.00    +0.213 C 
BRANCH  18  19
ATOM     19  C   UNL     1       2.349   6.637   3.611  0.00  0.00    +0.231 C 
ATOM     20  O   UNL     1       2.570   5.507   3.232  0.00  0.00    -0.274 OA
ATOM     21  N   UNL     1       2.861   7.067   4.782  0.00  0.00    -0.305 N 
ATOM     22  H   UNL     1       2.685   7.971   5.085  0.00  0.00    +0.149 HD
BRANCH  21  23
ATOM     23  C   UNL     1       3.684   6.169   5.595  0.00  0.00    +0.200 C 
BRANCH  23  24
ATOM     24  C   UNL     1       4.129   6.887   6.843  0.00  0.00    +0.234 C 
ATOM     25  O   UNL     1       3.792   8.037   7.034  0.00  0.00    -0.274 OA
ATOM     26  N   UNL     1       4.901   6.253   7.747  0.00  0.00    -0.284 N 
ATOM     27  H   UNL     1       5.116   5.314   7.628  0.00  0.00    +0.155 HD
BRANCH  26  28
ATOM     28  C   UNL     1       5.394   6.948   8.858  0.00  0.00    +0.034 A 
ATOM     29  C   UNL     1       6.652   6.647   9.365  0.00  0.00    +0.026 A 
ATOM     30  C   UNL     1       7.139   7.339  10.456  0.00  0.00    +0.040 A 
ATOM     31  C   UNL     1       6.369   8.323  11.053  0.00  0.00    +0.124 A 
ATOM     32  C   UNL     1       5.113   8.621  10.553  0.00  0.00    +0.040 A 
ATOM     33  C   UNL     1       4.625   7.936   9.458  0.00  0.00    +0.026 A 
ATOM     34  F   UNL     1       6.845   8.994  12.125  0.00  0.00    -0.205 F 
ENDBRANCH  26  28
ENDBRANCH  23  24
ENDBRANCH  21  23
ENDBRANCH  18  19
ENDBRANCH   4  18
TORSDOF 7
