REMARK  Name = ZINC08834867
REMARK  9 active torsions:
REMARK  status: ('A' for Active; 'I' for Inactive)
REMARK    1  A    between atoms: C_1  and  C_2
REMARK    2  A    between atoms: C_2  and  N_55
REMARK    3  A    between atoms: C_3  and  C_4
REMARK    4  A    between atoms: C_3  and  N_55
REMARK    5  A    between atoms: C_5  and  C_6
REMARK    6  A    between atoms: C_5  and  N_55
REMARK    7  A    between atoms: C_6  and  C_7
REMARK    8  A    between atoms: C_7  and  N_8
REMARK    9  A    between atoms: C_9  and  C_25
REMARK                            x       y       z     vdW  Elec       q    Type
REMARK                         _______ _______ _______ _____ _____    ______ ____
ROOT
ATOM      1  N   UNL     1      -0.234   5.454  -0.694  0.00  0.00    -0.284 N 
ATOM      2  C   UNL     1       0.705   4.606   0.052  0.00  0.00    +0.144 C 
ATOM      3  C   UNL     1       0.575   5.013   1.496  0.00  0.00    +0.072 A 
ATOM      4  C   UNL     1       1.233   4.551   2.721  0.00  0.00    +0.199 A 
ATOM      5  O   UNL     1       2.072   3.667   2.702  0.00  0.00    -0.287 OA
ATOM      6  C   UNL     1       0.830   5.210   3.979  0.00  0.00    +0.065 A 
ATOM      7  C   UNL     1       1.392   4.847   5.202  0.00  0.00    +0.030 A 
ATOM      8  C   UNL     1       0.987   5.488   6.353  0.00  0.00    +0.019 A 
ATOM      9  C   UNL     1       0.025   6.488   6.293  0.00  0.00    +0.019 A 
ATOM     10  C   UNL     1      -0.537   6.854   5.090  0.00  0.00    +0.048 A 
ATOM     11  C   UNL     1      -0.143   6.221   3.914  0.00  0.00    +0.140 A 
ATOM     12  O   UNL     1      -0.685   6.571   2.734  0.00  0.00    -0.450 OA
ATOM     13  C   UNL     1      -0.352   6.000   1.560  0.00  0.00    +0.199 A 
ATOM     14  C   UNL     1      -0.848   6.264   0.186  0.00  0.00    +0.283 C 
ATOM     15  O   UNL     1      -1.688   7.093  -0.102  0.00  0.00    -0.267 OA
ATOM     16 BR   UNL     1       1.742   5.005   8.018  0.00  0.00    -0.050 Br
ENDROOT
BRANCH   2  17
ATOM     17  C   UNL     1       0.337   3.154  -0.114  0.00  0.00    -0.022 A 
ATOM     18  C   UNL     1       1.329   2.205  -0.277  0.00  0.00    +0.007 A 
ATOM     19  C   UNL     1       0.992   0.873  -0.429  0.00  0.00    +0.020 A 
ATOM     20  C   UNL     1      -0.338   0.490  -0.417  0.00  0.00    +0.041 A 
ATOM     21  C   UNL     1      -1.330   1.442  -0.259  0.00  0.00    +0.020 A 
ATOM     22  C   UNL     1      -0.991   2.773  -0.102  0.00  0.00    +0.007 A 
ATOM     23 CL   UNL     1      -0.762  -1.182  -0.608  0.00  0.00    -0.084 Cl
ENDBRANCH   2  17
BRANCH   1  24
ATOM     24  C   UNL     1      -0.461   5.423  -2.140  0.00  0.00    +0.107 C 
BRANCH  24  25
ATOM     25  C   UNL     1      -1.576   4.425  -2.460  0.00  0.00    +0.000 C 
BRANCH  25  26
ATOM     26  C   UNL     1      -1.814   4.393  -3.971  0.00  0.00    -0.077 C 
BRANCH  26  27
ATOM     27  N   UNL     1      -2.878   3.410  -4.266  0.00  0.00    +0.379 N 
ATOM     28  H   UNL     1      -2.642   2.518  -3.815  0.00  0.00    -0.082 HD
BRANCH  27  30
ATOM     29  C   UNL     1      -4.545   5.234  -4.362  0.00  0.00    -0.017 C 
ATOM     30  C   UNL     1      -4.170   3.891  -3.732  0.00  0.00    -0.082 C 
ENDBRANCH  27  30
BRANCH  27  31
ATOM     31  C   UNL     1      -2.981   3.199  -5.725  0.00  0.00    -0.082 C 
ATOM     32  C   UNL     1      -3.809   1.939  -5.982  0.00  0.00    -0.017 C 
ENDBRANCH  27  31
ENDBRANCH  26  27
ENDBRANCH  25  26
ENDBRANCH  24  25
ENDBRANCH   1  24
TORSDOF 7
