REMARK  Name = ZINC09280833
REMARK  15 active torsions:
REMARK  status: ('A' for Active; 'I' for Inactive)
REMARK    1  A    between atoms: C_1  and  C_2
REMARK    2  A    between atoms: C_2  and  C_3
REMARK    3  A    between atoms: C_3  and  C_4
REMARK    4  A    between atoms: C_4  and  C_5
REMARK    5  A    between atoms: C_5  and  N_6
REMARK    6  A    between atoms: C_10  and  C_27
REMARK    7  A    between atoms: N_12  and  C_13
REMARK    8  A    between atoms: C_13  and  C_15
REMARK    9  A    between atoms: C_17  and  O_25
REMARK   10  A    between atoms: C_18  and  O_23
REMARK   11  A    between atoms: C_19  and  O_21
REMARK   12  A    between atoms: O_21  and  C_22
REMARK   13  A    between atoms: O_23  and  C_24
REMARK   14  A    between atoms: O_25  and  C_26
REMARK   15  A    between atoms: C_35  and  C_38
REMARK                            x       y       z     vdW  Elec       q    Type
REMARK                         _______ _______ _______ _____ _____    ______ ____
ROOT
ATOM      1  N   UNL     1      -1.141   2.098  -0.408  0.00  0.00    -0.311 N 
ATOM      2  C   UNL     1       0.061   1.442  -0.477  0.00  0.00    +0.150 A 
ATOM      3  C   UNL     1       1.259   2.127  -0.158  0.00  0.00    +0.084 A 
ATOM      4  C   UNL     1       1.220   3.468   0.234  0.00  0.00    +0.039 A 
ATOM      5  C   UNL     1      -0.012   4.116   0.304  0.00  0.00    +0.093 A 
ATOM      6  C   UNL     1      -1.196   3.409  -0.021  0.00  0.00    +0.146 A 
ATOM      7  N   UNL     1      -2.372   4.028   0.046  0.00  0.00    -0.158 NA
ATOM      8  C   UNL     1       2.522   1.394  -0.251  0.00  0.00    +0.268 A 
ATOM      9  O   UNL     1       3.582   1.934   0.012  0.00  0.00    -0.267 OA
ATOM     10  N   UNL     1       2.475   0.098  -0.637  0.00  0.00    -0.267 N 
ATOM     11  C   UNL     1       3.637  -0.608  -0.731  0.00  0.00    +0.096 A 
ATOM     12  C   UNL     1       3.630  -1.905  -1.114  0.00  0.00    +0.019 A 
ATOM     13  C   UNL     1       2.418  -2.539  -1.420  0.00  0.00    +0.008 A 
ATOM     14  C   UNL     1       1.251  -1.842  -1.329  0.00  0.00    -0.007 A 
ATOM     15  C   UNL     1       1.276  -0.492  -0.928  0.00  0.00    +0.145 A 
ATOM     16  N   UNL     1       0.123   0.171  -0.846  0.00  0.00    -0.211 NA
ATOM     17  C   UNL     1      -0.059  -2.511  -1.654  0.00  0.00    +0.047 C 
ENDROOT
BRANCH   7  18
ATOM     18  C   UNL     1      -2.485   5.179   0.717  0.00  0.00    +0.269 C 
ATOM     19  O   UNL     1      -2.107   5.250   1.874  0.00  0.00    -0.268 OA
BRANCH  18  20
ATOM     20  C   UNL     1      -3.069   6.366   0.056  0.00  0.00    +0.046 A 
ATOM     21  C   UNL     1      -3.497   6.288  -1.271  0.00  0.00    +0.062 A 
ATOM     22  C   UNL     1      -4.048   7.397  -1.885  0.00  0.00    +0.166 A 
ATOM     23  C   UNL     1      -4.165   8.595  -1.186  0.00  0.00    +0.204 A 
ATOM     24  C   UNL     1      -3.734   8.677   0.135  0.00  0.00    +0.166 A 
ATOM     25  C   UNL     1      -3.188   7.568   0.755  0.00  0.00    +0.062 A 
BRANCH  24  26
ATOM     26  O   UNL     1      -3.850   9.848   0.816  0.00  0.00    -0.491 OA
ATOM     27  C   UNL     1      -3.387   9.861   2.168  0.00  0.00    +0.277 C 
ENDBRANCH  24  26
BRANCH  23  28
ATOM     28  O   UNL     1      -4.702   9.686  -1.794  0.00  0.00    -0.488 OA
ATOM     29  C   UNL     1      -3.800  10.554  -2.483  0.00  0.00    +0.277 C 
ENDBRANCH  23  28
BRANCH  22  30
ATOM     30  O   UNL     1      -4.469   7.320  -3.176  0.00  0.00    -0.491 OA
ATOM     31  C   UNL     1      -4.319   6.060  -3.833  0.00  0.00    +0.277 C 
ENDBRANCH  22  30
ENDBRANCH  18  20
ENDBRANCH   7  18
BRANCH   5  32
ATOM     32  C   UNL     1      -0.080   5.490   0.702  0.00  0.00    +0.103 C 
ATOM     33  N   UNL     1      -0.134   6.580   1.017  0.00  0.00    -0.191 NA
ENDBRANCH   5  32
BRANCH   1  34
ATOM     34  C   UNL     1      -2.377   1.388  -0.744  0.00  0.00    +0.125 C 
BRANCH  34  35
ATOM     35  C   UNL     1      -2.949   0.735   0.516  0.00  0.00    +0.022 C 
BRANCH  35  36
ATOM     36  C   UNL     1      -4.240  -0.007   0.164  0.00  0.00    +0.001 C 
BRANCH  36  38
ATOM     37  C   UNL     1      -6.103  -1.402   1.073  0.00  0.00    +0.004 C 
ATOM     38  C   UNL     1      -4.812  -0.660   1.424  0.00  0.00    -0.003 C 
ENDBRANCH  36  38
ENDBRANCH  35  36
ENDBRANCH  34  35
ENDBRANCH   1  34
TORSDOF 10
