REMARK  Name = ZINC01784708
REMARK  8 active torsions:
REMARK  status: ('A' for Active; 'I' for Inactive)
REMARK    1  A    between atoms: C_1  and  C_2
REMARK    2  A    between atoms: C_2  and  C_3
REMARK    3  A    between atoms: C_3  and  N_4
REMARK    4  A    between atoms: N_12  and  N_13
REMARK    5  A    between atoms: C_14  and  C_16
REMARK    6  A    between atoms: C_16  and  N_17
REMARK    7  A    between atoms: C_24  and  C_27
REMARK    8  A    between atoms: C_30  and  C_33
REMARK                            x       y       z     vdW  Elec       q    Type
REMARK                         _______ _______ _______ _____ _____    ______ ____
ROOT
ATOM      1  N   UNL     1      -1.357  -5.099   2.846  0.00  0.00    -0.205 N 
ATOM      2  C   UNL     1      -1.338  -6.192   3.634  0.00  0.00    +0.252 C 
ATOM      3  O   UNL     1      -1.325  -7.298   3.136  0.00  0.00    -0.272 OA
ATOM      4  H   UNL     1      -1.368  -4.214   3.244  0.00  0.00    +0.177 HD
ENDROOT
BRANCH   1  13
ATOM      5  N   UNL     1      -1.413  -1.998   0.005  0.00  0.00    -0.266 N 
ATOM      6  C   UNL     1      -1.408  -2.775  -1.149  0.00  0.00    +0.046 A 
ATOM      7  C   UNL     1      -1.420  -2.429  -2.495  0.00  0.00    +0.024 A 
ATOM      8  C   UNL     1      -1.412  -3.413  -3.464  0.00  0.00    +0.002 A 
ATOM      9  C   UNL     1      -1.392  -4.751  -3.109  0.00  0.00    +0.001 A 
ATOM     10  C   UNL     1      -1.380  -5.114  -1.777  0.00  0.00    +0.012 A 
ATOM     11  C   UNL     1      -1.388  -4.130  -0.795  0.00  0.00    +0.028 A 
ATOM     12  C   UNL     1      -1.381  -4.176   0.686  0.00  0.00    +0.153 C 
ATOM     13  N   UNL     1      -1.362  -5.239   1.452  0.00  0.00    -0.174 NA
ATOM     14  C   UNL     1      -1.392  -2.761   1.111  0.00  0.00    +0.271 C 
ATOM     15  O   UNL     1      -1.386  -2.358   2.259  0.00  0.00    -0.268 OA
BRANCH   5  16
ATOM     16  C   UNL     1      -1.433  -0.534   0.013  0.00  0.00    +0.114 C 
BRANCH  16  18
ATOM     17  C   UNL     1      -0.019   1.526   0.010  0.00  0.00    +0.005 C 
ATOM     18  C   UNL     1       0.002  -0.004   0.002  0.00  0.00    +0.016 C 
ENDBRANCH  16  18
ENDBRANCH   5  16
ENDBRANCH   1  13
BRANCH   2  19
ATOM     19  C   UNL     1      -1.333  -6.041   5.133  0.00  0.00    +0.223 C 
BRANCH  19  20
ATOM     20  N   UNL     1      -1.312  -7.366   5.758  0.00  0.00    -0.290 N 
ATOM     21  C   UNL     1      -2.485  -7.987   6.042  0.00  0.00    +0.203 A 
ATOM     22  N   UNL     1      -2.506  -9.168   6.598  0.00  0.00    -0.230 NA
ATOM     23  C   UNL     1      -1.377  -9.802   6.905  0.00  0.00    +0.116 A 
ATOM     24  C   UNL     1      -0.117  -9.239   6.648  0.00  0.00    +0.080 A 
ATOM     25  C   UNL     1      -0.129  -7.946   6.033  0.00  0.00    +0.263 A 
ATOM     26  O   UNL     1       0.916  -7.377   5.767  0.00  0.00    -0.267 OA
ATOM     27  C   UNL     1       1.020 -10.061   7.045  0.00  0.00    +0.004 A 
ATOM     28  C   UNL     1       0.784 -11.269   7.612  0.00  0.00    +0.056 A 
ATOM     29  S   UNL     1      -0.995 -11.368   7.646  0.00  0.00    -0.076 S 
BRANCH  27  30
ATOM     30  C   UNL     1       2.408  -9.585   6.830  0.00  0.00    -0.017 A 
ATOM     31  C   UNL     1       2.794  -9.095   5.584  0.00  0.00    +0.009 A 
ATOM     32  C   UNL     1       4.087  -8.653   5.390  0.00  0.00    +0.004 A 
ATOM     33  C   UNL     1       4.999  -8.698   6.429  0.00  0.00    -0.050 A 
ATOM     34  C   UNL     1       4.622  -9.184   7.668  0.00  0.00    +0.004 A 
ATOM     35  C   UNL     1       3.329  -9.622   7.875  0.00  0.00    +0.009 A 
ATOM     36  C   UNL     1       6.410  -8.215   6.211  0.00  0.00    +0.044 C 
ENDBRANCH  27  30
ENDBRANCH  19  20
ENDBRANCH   2  19
TORSDOF 6
