REMARK  Name = ZINC06015020
REMARK  13 active torsions:
REMARK  status: ('A' for Active; 'I' for Inactive)
REMARK    1  A    between atoms: C_1  and  C_2
REMARK    2  A    between atoms: C_2  and  C_3
REMARK    3  A    between atoms: C_2  and  C_4
REMARK    4  A    between atoms: C_2  and  N_5
REMARK    5  A    between atoms: C_6  and  C_10
REMARK    6  A    between atoms: C_10  and  C_12
REMARK    7  A    between atoms: C_10  and  N_70
REMARK    8  A    between atoms: C_16  and  O_24
REMARK    9  A    between atoms: O_24  and  C_25
REMARK   10  A    between atoms: C_26  and  C_27
REMARK   11  A    between atoms: C_26  and  N_70
REMARK   12  A    between atoms: C_33  and  C_34
REMARK   13  A    between atoms: C_33  and  N_70
REMARK                            x       y       z     vdW  Elec       q    Type
REMARK                         _______ _______ _______ _____ _____    ______ ____
ROOT
ATOM      1  C   UNL     1      -2.774  -0.018  -0.720  0.00  0.00    +0.040 C 
ENDROOT
BRANCH   1   2
ATOM      2  C   UNL     1      -1.394   0.523  -0.447  0.00  0.00    +0.011 A 
ATOM      3  C   UNL     1      -1.009   0.779   0.828  0.00  0.00    +0.017 A 
ATOM      4  C   UNL     1       0.340   1.298   1.061  0.00  0.00    +0.002 A 
ATOM      5  C   UNL     1       0.794   1.574   2.355  0.00  0.00    +0.055 A 
ATOM      6  C   UNL     1       2.072   2.062   2.539  0.00  0.00    +0.121 A 
ATOM      7  C   UNL     1       2.906   2.279   1.445  0.00  0.00    +0.047 A 
ATOM      8  C   UNL     1       2.470   2.011   0.166  0.00  0.00    +0.030 A 
ATOM      9  C   UNL     1       1.187   1.518  -0.042  0.00  0.00    +0.049 A 
ATOM     10  N   UNL     1       0.732   1.243  -1.315  0.00  0.00    -0.322 N 
ATOM     11  H   UNL     1       1.334   1.400  -2.098  0.00  0.00    +0.169 HD
ATOM     12  C   UNL     1      -0.509   0.766  -1.519  0.00  0.00    +0.251 A 
ATOM     13  O   UNL     1      -0.877   0.534  -2.657  0.00  0.00    -0.268 OA
BRANCH   6  14
ATOM     14  O   UNL     1       2.518   2.333   3.795  0.00  0.00    -0.495 OA
ATOM     15  C   UNL     1       3.851   2.835   3.915  0.00  0.00    +0.277 C 
ENDBRANCH   6  14
ENDBRANCH   1   2
BRANCH   1  17
ATOM     16  N   UNL     1      -3.784  -1.363   1.197  0.00  0.00    -0.225 N 
ATOM     17  C   UNL     1      -3.510  -0.197   0.583  0.00  0.00    +0.143 A 
ATOM     18  N   UNL     1      -4.013   0.752   1.334  0.00  0.00    -0.115 NA
ATOM     19  N   UNL     1      -4.563   0.198   2.359  0.00  0.00    -0.023 NA
ATOM     20  N   UNL     1      -4.423  -1.079   2.281  0.00  0.00    -0.043 NA
BRANCH  16  22
ATOM     21  C   UNL     1      -1.911  -2.767   0.488  0.00  0.00    +0.036 C 
ATOM     22  C   UNL     1      -3.421  -2.701   0.725  0.00  0.00    +0.059 C 
ATOM     23  C   UNL     1      -3.817  -3.738   1.779  0.00  0.00    +0.036 C 
ATOM     24  C   UNL     1      -4.157  -2.998  -0.583  0.00  0.00    +0.036 C 
ENDBRANCH  16  22
ENDBRANCH   1  17
BRANCH   1  25
ATOM     25  N   UNL     1      -3.495   0.928  -1.597  0.00  0.00    +0.395 N 
ATOM     26  H   UNL     1      -2.983   1.019  -2.482  0.00  0.00    -0.079 HD
BRANCH  25  27
ATOM     27  C   UNL     1      -3.575   2.255  -0.951  0.00  0.00    -0.041 C 
BRANCH  27  28
ATOM     28  C   UNL     1      -2.367   3.059  -1.355  0.00  0.00    -0.064 A 
ATOM     29  C   UNL     1      -1.361   3.304  -0.439  0.00  0.00    +0.002 A 
ATOM     30  C   UNL     1      -0.250   4.037  -0.811  0.00  0.00    +0.000 A 
ATOM     31  C   UNL     1      -0.149   4.535  -2.097  0.00  0.00    +0.000 A 
ATOM     32  C   UNL     1      -1.157   4.295  -3.012  0.00  0.00    +0.000 A 
ATOM     33  C   UNL     1      -2.266   3.557  -2.641  0.00  0.00    +0.002 A 
ENDBRANCH  27  28
ENDBRANCH  25  27
BRANCH  25  34
ATOM     34  C   UNL     1      -4.854   0.420  -1.879  0.00  0.00    -0.041 C 
BRANCH  34  35
ATOM     35  C   UNL     1      -5.430   1.194  -3.037  0.00  0.00    -0.064 A 
ATOM     36  C   UNL     1      -6.174   2.335  -2.804  0.00  0.00    +0.004 A 
ATOM     37  C   UNL     1      -6.699   3.048  -3.865  0.00  0.00    +0.038 A 
ATOM     38  C   UNL     1      -6.487   2.613  -5.162  0.00  0.00    +0.123 A 
ATOM     39  C   UNL     1      -5.746   1.466  -5.395  0.00  0.00    +0.038 A 
ATOM     40  C   UNL     1      -5.218   0.758  -4.332  0.00  0.00    +0.004 A 
ATOM     41  F   UNL     1      -7.003   3.306  -6.201  0.00  0.00    -0.205 F 
ENDBRANCH  34  35
ENDBRANCH  25  34
ENDBRANCH   1  25
TORSDOF 9
