REMARK  Name = ZINC39535124
REMARK  8 active torsions:
REMARK  status: ('A' for Active; 'I' for Inactive)
REMARK    1  A    between atoms: C_1  and  C_2
REMARK    2  A    between atoms: C_2  and  C_4
REMARK    3  A    between atoms: C_2  and  S_19
REMARK    4  A    between atoms: N_6  and  C_7
REMARK    5  A    between atoms: C_10  and  N_13
REMARK    6  A    between atoms: S_19  and  C_20
REMARK    7  A    between atoms: C_23  and  C_26
REMARK    8  A    between atoms: N_24  and  N_25
REMARK                            x       y       z     vdW  Elec       q    Type
REMARK                         _______ _______ _______ _____ _____    ______ ____
ROOT
ATOM      1  C   UNL     1      -0.006   1.528   0.038  0.00  0.00    +0.029 C 
ATOM      2  C   UNL     1       0.002  -0.002   0.004  0.00  0.00    +0.137 C 
ENDROOT
BRANCH   2   3
ATOM      3  C   UNL     1      -1.416  -0.512   0.011  0.00  0.00    +0.230 C 
ATOM      4  O   UNL     1      -1.938  -0.865  -1.025  0.00  0.00    -0.274 OA
ATOM      5  N   UNL     1      -2.103  -0.575   1.169  0.00  0.00    -0.285 N 
ATOM      6  H   UNL     1      -1.665  -0.354   2.005  0.00  0.00    +0.155 HD
BRANCH   5   7
ATOM      7  C   UNL     1      -3.450  -0.961   1.163  0.00  0.00    +0.034 A 
ATOM      8  C   UNL     1      -4.341  -0.383   2.058  0.00  0.00    +0.025 A 
ATOM      9  C   UNL     1      -5.669  -0.762   2.053  0.00  0.00    +0.025 A 
ATOM     10  C   UNL     1      -6.113  -1.722   1.152  0.00  0.00    +0.030 A 
ATOM     11  C   UNL     1      -5.222  -2.299   0.257  0.00  0.00    +0.025 A 
ATOM     12  C   UNL     1      -3.896  -1.916   0.259  0.00  0.00    +0.025 A 
BRANCH  10  13
ATOM     13  N   UNL     1      -7.458  -2.106   1.147  0.00  0.00    -0.330 N 
ATOM     14  C   UNL     1      -7.918  -3.208   0.291  0.00  0.00    +0.105 C 
ATOM     15  C   UNL     1      -8.661  -4.229   1.158  0.00  0.00    +0.019 C 
ATOM     16  C   UNL     1      -9.779  -3.522   1.927  0.00  0.00    +0.003 C 
ATOM     17  C   UNL     1      -9.175  -2.457   2.845  0.00  0.00    +0.019 C 
ATOM     18  C   UNL     1      -8.436  -1.420   2.002  0.00  0.00    +0.105 C 
ENDBRANCH  10  13
ENDBRANCH   5   7
ENDBRANCH   2   3
BRANCH   2  19
ATOM     19  S   UNL     1       0.841  -0.568  -1.502  0.00  0.00    -0.072 S 
BRANCH  19  20
ATOM     20  C   UNL     1       2.504  -0.025  -1.294  0.00  0.00    +0.209 A 
ATOM     21  N   UNL     1       2.986   0.632  -0.263  0.00  0.00    -0.121 NA
ATOM     22  N   UNL     1       4.236   0.871  -0.435  0.00  0.00    -0.126 NA
ATOM     23  C   UNL     1       4.632   0.381  -1.590  0.00  0.00    +0.188 A 
ATOM     24  N   UNL     1       3.535  -0.214  -2.172  0.00  0.00    -0.223 N 
BRANCH  23  25
ATOM     25  C   UNL     1       5.991   0.449  -2.150  0.00  0.00    +0.058 A 
ATOM     26  C   UNL     1       7.171   0.756  -1.521  0.00  0.00    +0.019 A 
ATOM     27  C   UNL     1       8.333   0.756  -2.259  0.00  0.00    +0.008 A 
ATOM     28  C   UNL     1       8.277   0.452  -3.582  0.00  0.00    +0.046 A 
ATOM     29  S   UNL     1       6.535   0.144  -3.823  0.00  0.00    -0.093 S 
ENDBRANCH  23  25
BRANCH  24  30
ATOM     30  N   UNL     1       3.486  -0.856  -3.377  0.00  0.00    -0.295 N 
ATOM     31  H   UNL     1       3.260  -0.212  -4.121  0.00  0.00    +0.163 HD
ATOM     32  H   UNL     1       4.352  -1.337  -3.566  0.00  0.00    +0.163 HD
ENDBRANCH  24  30
ENDBRANCH  19  20
ENDBRANCH   2  19
TORSDOF 7
