REMARK  Name = ZINC39729464
REMARK  9 active torsions:
REMARK  status: ('A' for Active; 'I' for Inactive)
REMARK    1  A    between atoms: C_1  and  C_2
REMARK    2  A    between atoms: C_2  and  O_3
REMARK    3  A    between atoms: O_3  and  C_4
REMARK    4  A    between atoms: C_6  and  C_11
REMARK    5  A    between atoms: C_9  and  O_10
REMARK    6  A    between atoms: N_12  and  N_13
REMARK    7  A    between atoms: C_16  and  C_19
REMARK    8  A    between atoms: C_22  and  O_25
REMARK    9  A    between atoms: O_25  and  C_26
REMARK                            x       y       z     vdW  Elec       q    Type
REMARK                         _______ _______ _______ _____ _____    ______ ____
ROOT
ATOM      1  N   UNL     1       1.485  -7.024  -0.033  0.00  0.00    -0.124 NA
ATOM      2  C   UNL     1       1.323  -8.338  -0.038  0.00  0.00    +0.192 A 
ATOM      3  N   UNL     1       2.275  -9.331  -0.042  0.00  0.00    -0.332 N 
ATOM      4  C   UNL     1       1.864 -10.634  -0.047  0.00  0.00    +0.055 A 
ATOM      5  C   UNL     1       0.544 -10.918  -0.048  0.00  0.00    +0.075 A 
ATOM      6  S   UNL     1      -0.188  -9.289  -0.033  0.00  0.00    -0.056 S 
ATOM      7  H   UNL     1       3.219  -9.110  -0.041  0.00  0.00    +0.168 HD
ENDROOT
BRANCH   4   8
ATOM      8  C   UNL     1       2.860 -11.727  -0.052  0.00  0.00    -0.001 A 
ATOM      9  C   UNL     1       4.224 -11.431  -0.045  0.00  0.00    +0.013 A 
ATOM     10  C   UNL     1       5.149 -12.453  -0.049  0.00  0.00    +0.046 A 
ATOM     11  C   UNL     1       4.726 -13.775  -0.060  0.00  0.00    +0.120 A 
ATOM     12  C   UNL     1       3.370 -14.074  -0.066  0.00  0.00    +0.046 A 
ATOM     13  C   UNL     1       2.438 -13.058  -0.057  0.00  0.00    +0.013 A 
BRANCH  11  14
ATOM     14  O   UNL     1       5.641 -14.780  -0.064  0.00  0.00    -0.495 OA
ATOM     15  C   UNL     1       5.137 -16.117  -0.075  0.00  0.00    +0.277 C 
ENDBRANCH  11  14
ENDBRANCH   4   8
BRANCH   1  17
ATOM     16  C   UNL     1       0.615  -4.950  -0.018  0.00  0.00    +0.143 C 
ATOM     17  N   UNL     1       0.455  -6.247  -0.024  0.00  0.00    -0.155 NA
BRANCH  16  20
ATOM     18  C   UNL     1      -1.498  -1.849   0.006  0.00  0.00    +0.162 A 
ATOM     19  C   UNL     1      -0.391  -2.676  -0.003  0.00  0.00    +0.059 A 
ATOM     20  C   UNL     1      -0.559  -4.065  -0.008  0.00  0.00    -0.002 A 
ATOM     21  C   UNL     1      -1.848  -4.609  -0.004  0.00  0.00    +0.013 A 
ATOM     22  C   UNL     1      -2.947  -3.776   0.005  0.00  0.00    +0.050 A 
ATOM     23  C   UNL     1      -2.779  -2.399   0.016  0.00  0.00    +0.158 A 
BRANCH  23  24
ATOM     24  O   UNL     1      -3.866  -1.583   0.030  0.00  0.00    -0.503 OA
ATOM     25  H   UNL     1      -4.189  -1.343  -0.849  0.00  0.00    +0.292 HD
ENDBRANCH  23  24
BRANCH  18  26
ATOM     26  O   UNL     1      -1.339  -0.499   0.012  0.00  0.00    -0.489 OA
BRANCH  26  28
ATOM     27  C   UNL     1      -0.019   1.526   0.010  0.00  0.00    +0.048 C 
ATOM     28  C   UNL     1       0.002  -0.004   0.002  0.00  0.00    +0.226 C 
ENDBRANCH  26  28
ENDBRANCH  18  26
ENDBRANCH  16  20
ENDBRANCH   1  17
TORSDOF 7
