REMARK  Name = ZINC37428706
REMARK  4 active torsions:
REMARK  status: ('A' for Active; 'I' for Inactive)
REMARK    1  A    between atoms: C_9  and  C_11
REMARK    2  A    between atoms: C_11  and  O_12
REMARK    3  A    between atoms: O_12  and  C_13
REMARK    4  A    between atoms: C_16  and  N_20
REMARK                            x       y       z     vdW  Elec       q    Type
REMARK                         _______ _______ _______ _____ _____    ______ ____
ROOT
ATOM      1  O   UNL     1      -0.176  -2.670  -0.012  0.00  0.00    -0.485 OA
ENDROOT
BRANCH   1   2
ATOM      2  C   UNL     1      -0.358  -4.018  -0.019  0.00  0.00    +0.149 A 
ATOM      3  C   UNL     1      -0.456  -4.699  -1.224  0.00  0.00    +0.062 A 
ATOM      4  C   UNL     1      -0.641  -6.068  -1.231  0.00  0.00    +0.041 A 
ATOM      5  C   UNL     1      -0.729  -6.763  -0.032  0.00  0.00    +0.027 A 
ATOM      6  C   UNL     1      -0.630  -6.081   1.174  0.00  0.00    +0.041 A 
ATOM      7  C   UNL     1      -0.439  -4.713   1.180  0.00  0.00    +0.062 A 
ATOM      8 BR   UNL     1      -0.297  -3.785   2.821  0.00  0.00    -0.046 Br
ATOM      9 BR   UNL     1      -0.338  -3.752  -2.857  0.00  0.00    -0.046 Br
BRANCH   5  10
ATOM     10  N   UNL     1      -0.916  -8.150  -0.038  0.00  0.00    -0.358 N 
ATOM     11  H   UNL     1      -0.986  -8.626  -0.880  0.00  0.00    +0.142 HD
ATOM     12  H   UNL     1      -0.977  -8.635   0.800  0.00  0.00    +0.142 HD
ENDBRANCH   5  10
ENDBRANCH   1   2
BRANCH   1  13
ATOM     13  C   UNL     1       1.173  -2.197  -0.022  0.00  0.00    +0.266 C 
BRANCH  13  22
ATOM     14  C   UNL     1      -0.017   1.389   0.010  0.00  0.00    +0.001 A 
ATOM     15  C   UNL     1       1.142   2.103   0.002  0.00  0.00    +0.010 A 
ATOM     16  C   UNL     1       2.373   1.428  -0.013  0.00  0.00    +0.001 A 
ATOM     17  C   UNL     1       3.594   2.130  -0.020  0.00  0.00    +0.011 A 
ATOM     18  C   UNL     1       4.752   1.407  -0.035  0.00  0.00    +0.020 A 
ATOM     19  C   UNL     1       4.703   0.014  -0.042  0.00  0.00    +0.111 A 
ATOM     20  N   UNL     1       3.565  -0.636  -0.035  0.00  0.00    -0.255 NA
ATOM     21  C   UNL     1       2.395   0.011  -0.021  0.00  0.00    +0.077 A 
ATOM     22  C   UNL     1       1.177  -0.691  -0.013  0.00  0.00    +0.016 A 
ATOM     23  C   UNL     1       0.002  -0.004   0.002  0.00  0.00    +0.009 A 
ENDBRANCH  13  22
ENDBRANCH   1  13
TORSDOF 4
