REMARK  Name = ZINC06282866
REMARK  7 active torsions:
REMARK  status: ('A' for Active; 'I' for Inactive)
REMARK    1  A    between atoms: C_1  and  O_2
REMARK    2  A    between atoms: O_2  and  C_3
REMARK    3  A    between atoms: C_8  and  C_15
REMARK    4  A    between atoms: C_15  and  C_17
REMARK    5  A    between atoms: C_15  and  N_71
REMARK    6  A    between atoms: N_21  and  C_22
REMARK    7  A    between atoms: C_22  and  C_23
REMARK                            x       y       z     vdW  Elec       q    Type
REMARK                         _______ _______ _______ _____ _____    ______ ____
ROOT
ATOM      1  C   UNL     1       1.425   0.140   8.613  0.00  0.00    +0.039 C 
ENDROOT
BRANCH   1   7
ATOM      2  C   UNL     1       2.636  -0.183   2.242  0.00  0.00    +0.122 A 
ATOM      3  C   UNL     1       3.298  -1.233   2.878  0.00  0.00    +0.046 A 
ATOM      4  C   UNL     1       3.211  -1.388   4.231  0.00  0.00    +0.013 A 
ATOM      5  C   UNL     1       2.442  -0.493   4.986  0.00  0.00    -0.001 A 
ATOM      6  C   UNL     1       2.325  -0.637   6.436  0.00  0.00    +0.017 A 
ATOM      7  C   UNL     1       1.566   0.260   7.117  0.00  0.00    +0.011 A 
ATOM      8  C   UNL     1       0.911   1.303   6.431  0.00  0.00    +0.251 A 
ATOM      9  O   UNL     1       0.235   2.096   7.062  0.00  0.00    -0.268 OA
ATOM     10  N   UNL     1       1.013   1.443   5.098  0.00  0.00    -0.322 N 
ATOM     11  H   UNL     1       0.548   2.172   4.657  0.00  0.00    +0.169 HD
ATOM     12  C   UNL     1       1.767   0.566   4.348  0.00  0.00    +0.053 A 
ATOM     13  C   UNL     1       1.872   0.712   2.970  0.00  0.00    +0.072 A 
BRANCH   2  15
ATOM     14  C   UNL     1       3.542  -0.997   0.201  0.00  0.00    +0.277 C 
ATOM     15  O   UNL     1       2.738  -0.041   0.895  0.00  0.00    -0.495 OA
ENDBRANCH   2  15
ENDBRANCH   1   7
BRANCH   1  26
ATOM     16  C   UNL     1      -0.683  -0.966   8.171  0.00  0.00    -0.077 C 
ATOM     17  C   UNL     1      -2.186  -0.920   8.458  0.00  0.00    -0.018 C 
ATOM     18  C   UNL     1      -2.422  -1.160   9.952  0.00  0.00    +0.003 C 
ATOM     19  C   UNL     1      -1.661  -0.104  10.757  0.00  0.00    -0.044 C 
ATOM     20  C   UNL     1      -0.173  -0.173  10.404  0.00  0.00    -0.071 C 
ATOM     21  C   UNL     1      -2.203   1.286  10.416  0.00  0.00    +0.005 C 
ATOM     22  C   UNL     1      -1.444   2.342  11.221  0.00  0.00    +0.000 C 
ATOM     23  C   UNL     1      -1.630   2.074  12.716  0.00  0.00    +0.000 C 
ATOM     24  C   UNL     1      -1.087   0.685  13.057  0.00  0.00    +0.000 C 
ATOM     25  C   UNL     1      -1.845  -0.371  12.252  0.00  0.00    +0.005 C 
ATOM     26  N   UNL     1      -0.011   0.090   8.958  0.00  0.00    +0.390 N 
ATOM     27  H   UNL     1      -0.440   0.996   8.734  0.00  0.00    -0.080 HD
ENDBRANCH   1  26
BRANCH   1  28
ATOM     28  C   UNL     1       2.041   1.346   9.274  0.00  0.00    +0.143 A 
ATOM     29  N   UNL     1       1.616   2.583   9.197  0.00  0.00    -0.115 NA
ATOM     30  N   UNL     1       2.406   3.320   9.899  0.00  0.00    -0.023 NA
ATOM     31  N   UNL     1       3.329   2.586  10.415  0.00  0.00    -0.044 NA
ATOM     32  N   UNL     1       3.139   1.362  10.053  0.00  0.00    -0.226 N 
BRANCH  32  33
ATOM     33  C   UNL     1       3.963   0.208  10.419  0.00  0.00    +0.182 C 
BRANCH  33  34
ATOM     34  C   UNL     1       5.143   0.116   9.487  0.00  0.00    -0.026 A 
ATOM     35  C   UNL     1       5.093  -0.722   8.389  0.00  0.00    +0.008 A 
ATOM     36  C   UNL     1       6.173  -0.803   7.531  0.00  0.00    +0.038 A 
ATOM     37  C   UNL     1       7.310  -0.051   7.777  0.00  0.00    +0.123 A 
ATOM     38  C   UNL     1       7.361   0.784   8.880  0.00  0.00    +0.038 A 
ATOM     39  C   UNL     1       6.278   0.867   9.734  0.00  0.00    +0.008 A 
ATOM     40  F   UNL     1       8.368  -0.133   6.941  0.00  0.00    -0.205 F 
ENDBRANCH  33  34
ENDBRANCH  32  33
ENDBRANCH   1  28
TORSDOF 6
