REMARK  Name = ZINC36690283
REMARK  12 active torsions:
REMARK  status: ('A' for Active; 'I' for Inactive)
REMARK    1  A    between atoms: C_1  and  C_2
REMARK    2  A    between atoms: C_2  and  N_3
REMARK    3  A    between atoms: N_3  and  C_4
REMARK    4  A    between atoms: N_3  and  C_6
REMARK    5  A    between atoms: C_4  and  C_5
REMARK    6  A    between atoms: C_6  and  C_7
REMARK    7  A    between atoms: C_7  and  N_8
REMARK    8  A    between atoms: C_18  and  C_20
REMARK    9  A    between atoms: C_23  and  S_26
REMARK   10  A    between atoms: S_26  and  N_29
REMARK   11  A    between atoms: C_31  and  C_38
REMARK   12  A    between atoms: C_34  and  C_37
REMARK                            x       y       z     vdW  Elec       q    Type
REMARK                         _______ _______ _______ _____ _____    ______ ____
ROOT
ATOM      1  N   UNL     1      -2.352  -4.153   0.276  0.00  0.00    -0.248 N 
ATOM      2  C   UNL     1      -2.143  -2.788   0.178  0.00  0.00    +0.168 A 
ATOM      3  N   UNL     1      -1.444  -2.003   0.966  0.00  0.00    -0.224 NA
ATOM      4  C   UNL     1      -1.325  -0.676   0.748  0.00  0.00    +0.080 A 
ATOM      5  C   UNL     1      -0.609   0.274   1.513  0.00  0.00    +0.029 A 
ATOM      6  C   UNL     1      -0.592   1.595   1.150  0.00  0.00    +0.002 A 
ATOM      7  C   UNL     1      -1.270   2.048   0.027  0.00  0.00    +0.001 A 
ATOM      8  C   UNL     1      -1.980   1.147  -0.744  0.00  0.00    +0.017 A 
ATOM      9  C   UNL     1      -2.004  -0.179  -0.388  0.00  0.00    +0.041 A 
ATOM     10  S   UNL     1      -2.749  -1.647  -1.056  0.00  0.00    -0.052 S 
ATOM     11  C   UNL     1      -3.016  -4.804  -0.699  0.00  0.00    +0.252 C 
ATOM     12  O   UNL     1      -3.355  -4.211  -1.704  0.00  0.00    -0.270 OA
ENDROOT
BRANCH  11  13
ATOM     13  C   UNL     1      -3.332  -6.240  -0.545  0.00  0.00    +0.037 A 
ATOM     14  C   UNL     1      -3.459  -6.798   0.728  0.00  0.00    +0.015 A 
ATOM     15  C   UNL     1      -3.754  -8.139   0.864  0.00  0.00    +0.029 A 
ATOM     16  C   UNL     1      -3.924  -8.930  -0.258  0.00  0.00    +0.106 A 
ATOM     17  C   UNL     1      -3.800  -8.383  -1.523  0.00  0.00    +0.029 A 
ATOM     18  C   UNL     1      -3.511  -7.043  -1.673  0.00  0.00    +0.015 A 
BRANCH  16  19
ATOM     19  S   UNL     1      -4.300 -10.642  -0.075  0.00  0.00    +0.061 S 
ATOM     20  O   UNL     1      -3.872 -11.281  -1.270  0.00  0.00    -0.153 OA
ATOM     21  O   UNL     1      -3.824 -11.027   1.207  0.00  0.00    -0.153 OA
BRANCH  19  22
ATOM     22  N   UNL     1      -5.949 -10.779  -0.030  0.00  0.00    -0.176 NA
ATOM     23  C   UNL     1      -6.671 -10.706   1.248  0.00  0.00    +0.112 C 
ATOM     24  C   UNL     1      -7.759  -9.633   1.139  0.00  0.00    +0.002 C 
ATOM     25  C   UNL     1      -8.649  -9.934  -0.070  0.00  0.00    +0.009 C 
ATOM     26  C   UNL     1      -7.806  -9.900  -1.347  0.00  0.00    +0.002 C 
ATOM     27  C   UNL     1      -6.719 -10.970  -1.266  0.00  0.00    +0.112 C 
ATOM     28  C   UNL     1      -7.153  -8.523  -1.490  0.00  0.00    +0.009 C 
ATOM     29  C   UNL     1      -8.608  -9.634   2.412  0.00  0.00    +0.009 C 
ENDBRANCH  19  22
ENDBRANCH  16  19
ENDBRANCH  11  13
BRANCH   1  30
ATOM     30  C   UNL     1      -1.851  -4.889   1.439  0.00  0.00    +0.097 C 
BRANCH  30  31
ATOM     31  C   UNL     1      -2.699  -4.545   2.665  0.00  0.00    -0.059 C 
BRANCH  31  32
ATOM     32  N   UNL     1      -2.276  -5.374   3.802  0.00  0.00    +0.380 N 
ATOM     33  H   UNL     1      -2.346  -6.349   3.552  0.00  0.00    -0.082 HD
BRANCH  32  35
ATOM     34  C   UNL     1      -0.403  -6.003   5.248  0.00  0.00    -0.017 C 
ATOM     35  C   UNL     1      -0.884  -5.056   4.148  0.00  0.00    -0.082 C 
ENDBRANCH  32  35
BRANCH  32  36
ATOM     36  C   UNL     1      -3.142  -5.101   4.956  0.00  0.00    -0.082 C 
ATOM     37  C   UNL     1      -4.572  -5.542   4.637  0.00  0.00    -0.017 C 
ENDBRANCH  32  36
ENDBRANCH  31  32
ENDBRANCH  30  31
ENDBRANCH   1  30
TORSDOF 8
