REMARK  Name = ZINC63666677
REMARK  6 active torsions:
REMARK  status: ('A' for Active; 'I' for Inactive)
REMARK    1  A    between atoms: C_3  and  N_22
REMARK    2  A    between atoms: C_6  and  C_7
REMARK    3  A    between atoms: N_9  and  C_10
REMARK    4  A    between atoms: C_10  and  C_11
REMARK    5  A    between atoms: C_11  and  C_12
REMARK    6  A    between atoms: C_23  and  C_25
REMARK                            x       y       z     vdW  Elec       q    Type
REMARK                         _______ _______ _______ _____ _____    ______ ____
ROOT
ATOM      1  C   UNL     1      -1.281  -0.705   0.308  0.00  0.00    +0.244 C 
ATOM      2  O   UNL     1      -2.300  -0.126   0.630  0.00  0.00    -0.270 OA
ATOM      3  N   UNL     1      -1.312  -2.026   0.040  0.00  0.00    -0.311 N 
ATOM      4  H   UNL     1      -0.499  -2.488  -0.217  0.00  0.00    +0.149 HD
ENDROOT
BRANCH   1  10
ATOM      5  C   UNL     1       0.026   1.406   0.490  0.00  0.00    +0.015 A 
ATOM      6  C   UNL     1       1.214   2.095   0.399  0.00  0.00    +0.024 A 
ATOM      7  C   UNL     1       2.380   1.431   0.031  0.00  0.00    +0.034 A 
ATOM      8  C   UNL     1       2.349   0.067  -0.247  0.00  0.00    +0.024 A 
ATOM      9  C   UNL     1       1.164  -0.628  -0.158  0.00  0.00    +0.015 A 
ATOM     10  C   UNL     1      -0.009   0.037   0.212  0.00  0.00    +0.037 A 
BRANCH   7  11
ATOM     11  N   UNL     1       3.580   2.131  -0.060  0.00  0.00    -0.279 N 
ATOM     12  C   UNL     1       4.753   1.478   0.066  0.00  0.00    +0.283 C 
ATOM     13  O   UNL     1       4.772   0.260   0.095  0.00  0.00    -0.266 OA
ATOM     14  H   UNL     1       3.573   3.089  -0.214  0.00  0.00    +0.155 HD
BRANCH  12  15
ATOM     15  C   UNL     1       5.962   2.207   0.165  0.00  0.00    +0.188 C 
ATOM     16  C   UNL     1       5.865   3.542   0.277  0.00  0.00    +0.091 C 
ATOM     17  S   UNL     1       7.322   4.538   0.368  0.00  0.00    -0.126 S 
ATOM     18  C   UNL     1       8.619   3.301   0.693  0.00  0.00    +0.115 C 
ATOM     19  C   UNL     1       8.344   2.103  -0.231  0.00  0.00    +0.240 C 
ATOM     20  O   UNL     1       7.109   1.502   0.145  0.00  0.00    -0.486 OA
ENDBRANCH  12  15
ENDBRANCH   7  11
ENDBRANCH   1  10
BRANCH   3  21
ATOM     21  C   UNL     1      -2.575  -2.762   0.136  0.00  0.00    +0.109 C 
BRANCH  21  22
ATOM     22  C   UNL     1      -2.336  -4.232  -0.218  0.00  0.00    +0.052 C 
BRANCH  22  23
ATOM     23  C   UNL     1      -3.635  -4.990  -0.119  0.00  0.00    -0.040 C 
ATOM     24  C   UNL     1      -4.493  -5.267  -1.127  0.00  0.00    +0.000 A 
ATOM     25  C   UNL     1      -4.475  -4.957  -2.562  0.00  0.00    +0.030 A 
ATOM     26  C   UNL     1      -5.502  -5.378  -3.337  0.00  0.00    +0.042 A 
ATOM     27  C   UNL     1      -6.580  -6.100  -2.804  0.00  0.00    +0.022 A 
ATOM     28  C   UNL     1      -6.666  -6.422  -1.496  0.00  0.00    +0.027 A 
ATOM     29  C   UNL     1      -5.642  -6.031  -0.590  0.00  0.00    +0.043 A 
ATOM     30  N   UNL     1      -5.499  -6.219   0.700  0.00  0.00    -0.380 N 
ATOM     31  C   UNL     1      -4.239  -5.600   1.126  0.00  0.00    +0.144 C 
ATOM     32 CL   UNL     1      -5.484  -5.013  -5.034  0.00  0.00    -0.084 Cl
ATOM     33  H   UNL     1      -6.121  -6.691   1.275  0.00  0.00    +0.160 HD
ENDBRANCH  22  23
ENDBRANCH  21  22
ENDBRANCH   3  21
TORSDOF 6
