REMARK  Name = ZINC15865770
REMARK  1 active torsions:
REMARK  status: ('A' for Active; 'I' for Inactive)
REMARK    1  A    between atoms: C_11  and  C_13
REMARK                            x       y       z     vdW  Elec       q    Type
REMARK                         _______ _______ _______ _____ _____    ______ ____
ROOT
ATOM      1  C   UNL     1      -4.307   8.614  -3.664  0.00  0.00    +0.033 C 
ATOM      2  C   UNL     1      -3.396   7.527  -3.105  0.00  0.00    +0.128 C 
ATOM      3  N   UNL     1      -2.705   7.986  -1.899  0.00  0.00    -0.290 N 
ATOM      4  C   UNL     1      -2.131   7.186  -0.950  0.00  0.00    +0.224 A 
ATOM      5  N   UNL     1      -1.607   7.956  -0.029  0.00  0.00    -0.112 NA
ATOM      6  N   UNL     1      -1.843   9.290  -0.394  0.00  0.00    -0.121 NA
ATOM      7  C   UNL     1      -2.510   9.284  -1.518  0.00  0.00    +0.193 A 
ATOM      8  S   UNL     1      -3.080  10.694  -2.414  0.00  0.00    -0.086 S 
ATOM      9  C   UNL     1      -3.494   9.874  -3.980  0.00  0.00    +0.079 C 
ATOM     10  N   UNL     1      -2.112   5.794  -0.958  0.00  0.00    -0.254 N 
ATOM     11  C   UNL     1      -1.510   5.123   0.044  0.00  0.00    +0.226 C 
ATOM     12  O   UNL     1      -0.984   5.731   0.952  0.00  0.00    -0.275 OA
ATOM     13  H   UNL     1      -2.533   5.307  -1.684  0.00  0.00    +0.158 HD
ENDROOT
BRANCH  11  14
ATOM     14  C   UNL     1      -1.490   3.616   0.036  0.00  0.00    +0.048 C 
ATOM     15  C   UNL     1      -0.773   3.123  -1.223  0.00  0.00    +0.019 C 
ATOM     16  C   UNL     1      -0.753   1.593  -1.232  0.00  0.00    -0.009 C 
ATOM     17  C   UNL     1      -0.013   1.086   0.008  0.00  0.00    +0.007 C 
ATOM     18  C   UNL     1      -0.729   1.579   1.267  0.00  0.00    -0.009 C 
ATOM     19  C   UNL     1      -0.750   3.109   1.275  0.00  0.00    +0.019 C 
ATOM     20  C   UNL     1      -2.164   1.050   1.278  0.00  0.00    +0.007 C 
ATOM     21  C   UNL     1      -2.904   1.556   0.038  0.00  0.00    -0.009 C 
ATOM     22  C   UNL     1      -2.188   1.063  -1.221  0.00  0.00    +0.007 C 
ATOM     23  C   UNL     1      -2.925   3.086   0.047  0.00  0.00    +0.019 C 
ENDBRANCH  11  14
TORSDOF 1
