REMARK  Name = ZINC03018660
REMARK  9 active torsions:
REMARK  status: ('A' for Active; 'I' for Inactive)
REMARK    1  A    between atoms: C_1  and  C_2
REMARK    2  A    between atoms: C_2  and  O_3
REMARK    3  A    between atoms: O_3  and  C_4
REMARK    4  A    between atoms: C_4  and  C_6
REMARK    5  A    between atoms: C_9  and  N_12
REMARK    6  A    between atoms: C_13  and  N_31
REMARK    7  A    between atoms: C_14  and  C_18
REMARK    8  A    between atoms: N_20  and  C_21
REMARK    9  A    between atoms: C_21  and  C_22
REMARK                            x       y       z     vdW  Elec       q    Type
REMARK                         _______ _______ _______ _____ _____    ______ ____
ROOT
ATOM      1  N   UNL     1      10.270  -2.242  -0.501  0.00  0.00    -0.285 N 
ATOM      2  C   UNL     1       9.617  -1.858   0.618  0.00  0.00    +0.121 A 
ATOM      3  C   UNL     1       8.265  -1.637   0.525  0.00  0.00    +0.114 A 
ATOM      4  S   UNL     1       7.962  -2.001  -1.196  0.00  0.00    -0.055 S 
ATOM      5  C   UNL     1       9.588  -2.395  -1.656  0.00  0.00    +0.132 A 
ATOM      6  S   UNL     1      10.179  -2.867  -3.192  0.00  0.00    -0.024 S 
ENDROOT
BRANCH   1  10
ATOM      7  C   UNL     1      14.375  -2.952  -0.388  0.00  0.00    +0.059 A 
ATOM      8  C   UNL     1      13.490  -4.000  -0.653  0.00  0.00    +0.017 A 
ATOM      9  C   UNL     1      12.134  -3.763  -0.690  0.00  0.00    +0.027 A 
ATOM     10  C   UNL     1      11.646  -2.480  -0.462  0.00  0.00    +0.049 A 
ATOM     11  C   UNL     1      12.524  -1.433  -0.203  0.00  0.00    +0.027 A 
ATOM     12  C   UNL     1      13.880  -1.665  -0.160  0.00  0.00    +0.017 A 
BRANCH   7  13
ATOM     13  C   UNL     1      15.828  -3.203  -0.349  0.00  0.00    +0.339 C 
ATOM     14  O   UNL     1      16.257  -4.322  -0.548  0.00  0.00    -0.245 OA
BRANCH  13  15
ATOM     15  O   UNL     1      16.680  -2.190  -0.092  0.00  0.00    -0.461 OA
BRANCH  15  17
ATOM     16  C   UNL     1      18.900  -1.245   0.235  0.00  0.00    +0.048 C 
ATOM     17  C   UNL     1      18.096  -2.510  -0.070  0.00  0.00    +0.229 C 
ENDBRANCH  15  17
ENDBRANCH  13  15
ENDBRANCH   7  13
ENDBRANCH   1  10
BRANCH   3  18
ATOM     18  C   UNL     1       7.355  -1.236   1.526  0.00  0.00    +0.254 C 
ATOM     19  O   UNL     1       7.748  -1.036   2.662  0.00  0.00    -0.270 OA
ATOM     20  N   UNL     1       6.051  -1.073   1.226  0.00  0.00    -0.307 N 
ATOM     21  H   UNL     1       5.738  -1.231   0.322  0.00  0.00    +0.149 HD
BRANCH  20  22
ATOM     22  C   UNL     1       5.107  -0.655   2.265  0.00  0.00    +0.140 C 
BRANCH  22  23
ATOM     23  C   UNL     1       3.725  -0.548   1.674  0.00  0.00    -0.027 A 
ATOM     24  C   UNL     1       2.885  -1.646   1.677  0.00  0.00    +0.009 A 
ATOM     25  C   UNL     1       1.617  -1.553   1.135  0.00  0.00    +0.050 A 
ATOM     26  C   UNL     1       1.183  -0.356   0.589  0.00  0.00    +0.166 A 
ATOM     27  C   UNL     1       2.028   0.751   0.586  0.00  0.00    +0.167 A 
ATOM     28  C   UNL     1       3.298   0.650   1.131  0.00  0.00    +0.054 A 
ATOM     29  O   UNL     1       1.376   1.797  -0.001  0.00  0.00    -0.453 OA
ATOM     30  C   UNL     1      -0.018   1.436   0.010  0.00  0.00    +0.466 C 
ATOM     31  O   UNL     1       0.002  -0.004   0.002  0.00  0.00    -0.453 OA
ENDBRANCH  22  23
ENDBRANCH  20  22
ENDBRANCH   3  18
BRANCH   2  32
ATOM     32  N   UNL     1      10.285  -1.694   1.812  0.00  0.00    -0.343 N 
ATOM     33  H   UNL     1       9.800  -1.418   2.605  0.00  0.00    +0.144 HD
ATOM     34  H   UNL     1      11.240  -1.855   1.859  0.00  0.00    +0.144 HD
ENDBRANCH   2  32
TORSDOF 8
