REMARK  Name = ZINC34946789
REMARK  10 active torsions:
REMARK  status: ('A' for Active; 'I' for Inactive)
REMARK    1  A    between atoms: C_4  and  C_7
REMARK    2  A    between atoms: C_7  and  C_8
REMARK    3  A    between atoms: C_7  and  C_14
REMARK    4  A    between atoms: N_16  and  C_17
REMARK    5  A    between atoms: C_17  and  C_18
REMARK    6  A    between atoms: C_18  and  C_19
REMARK    7  A    between atoms: C_19  and  N_20
REMARK    8  A    between atoms: N_20  and  C_21
REMARK    9  A    between atoms: N_29  and  C_30
REMARK   10  A    between atoms: C_33  and  N_36
REMARK                            x       y       z     vdW  Elec       q    Type
REMARK                         _______ _______ _______ _____ _____    ______ ____
ROOT
ATOM      1  C   UNL     1       4.061  -3.125  -6.898  0.00  0.00    +0.117 C 
ENDROOT
BRANCH   1   2
ATOM      2  N   UNL     1       3.779  -1.962  -7.743  0.00  0.00    -0.255 N 
ATOM      3  C   UNL     1       2.591  -1.858  -8.370  0.00  0.00    +0.311 C 
ATOM      4  O   UNL     1       1.792  -2.773  -8.315  0.00  0.00    -0.252 OA
ATOM      5  N   UNL     1       2.288  -0.739  -9.057  0.00  0.00    -0.269 N 
ATOM      6  H   UNL     1       2.961  -0.052  -9.187  0.00  0.00    +0.156 HD
BRANCH   2   7
ATOM      7  C   UNL     1       4.743  -0.961  -7.899  0.00  0.00    +0.038 A 
ATOM      8  C   UNL     1       4.536   0.297  -7.348  0.00  0.00    +0.023 A 
ATOM      9  C   UNL     1       5.490   1.283  -7.504  0.00  0.00    +0.002 A 
ATOM     10  C   UNL     1       6.651   1.020  -8.208  0.00  0.00    +0.000 A 
ATOM     11  C   UNL     1       6.860  -0.231  -8.759  0.00  0.00    +0.002 A 
ATOM     12  C   UNL     1       5.912  -1.224  -8.601  0.00  0.00    +0.023 A 
ENDBRANCH   2   7
BRANCH   5  13
ATOM     13  C   UNL     1       1.002  -0.567  -9.582  0.00  0.00    +0.035 A 
ATOM     14  C   UNL     1      -0.103  -1.041  -8.887  0.00  0.00    +0.025 A 
ATOM     15  C   UNL     1      -1.370  -0.870  -9.408  0.00  0.00    +0.034 A 
ATOM     16  C   UNL     1      -1.540  -0.226 -10.620  0.00  0.00    +0.126 A 
ATOM     17  C   UNL     1      -0.442   0.248 -11.314  0.00  0.00    +0.034 A 
ATOM     18  C   UNL     1       0.828   0.085 -10.796  0.00  0.00    +0.025 A 
BRANCH  16  19
ATOM     19  N   UNL     1      -2.900  -0.043 -11.175  0.00  0.00    +0.056 N 
ATOM     20  O   UNL     1      -3.861  -0.458 -10.570  0.00  0.00    -0.126 OA
ATOM     21  O   UNL     1      -3.050   0.519 -12.235  0.00  0.00    -0.126 OA
ENDBRANCH  16  19
ENDBRANCH   5  13
ENDBRANCH   1   2
BRANCH   1  22
ATOM     22  C   UNL     1       3.620  -2.832  -5.462  0.00  0.00    +0.038 C 
BRANCH  22  23
ATOM     23  C   UNL     1       3.914  -4.046  -4.580  0.00  0.00    +0.106 C 
BRANCH  23  26
ATOM     24  C   UNL     1       3.655  -4.698  -2.246  0.00  0.00    +0.225 C 
ATOM     25  O   UNL     1       4.152  -5.770  -2.521  0.00  0.00    -0.275 OA
ATOM     26  N   UNL     1       3.491  -3.766  -3.205  0.00  0.00    -0.314 N 
ATOM     27  H   UNL     1       3.094  -2.909  -2.986  0.00  0.00    +0.149 HD
BRANCH  24  28
ATOM     28  C   UNL     1       3.220  -4.409  -0.833  0.00  0.00    +0.135 C 
BRANCH  28  32
ATOM     29  C   UNL     1      -0.973  -3.591  -0.771  0.00  0.00    +0.000 A 
ATOM     30  C   UNL     1      -0.464  -4.530  -1.649  0.00  0.00    +0.000 A 
ATOM     31  C   UNL     1       0.892  -4.795  -1.669  0.00  0.00    +0.005 A 
ATOM     32  C   UNL     1       1.741  -4.120  -0.811  0.00  0.00    -0.031 A 
ATOM     33  C   UNL     1       1.233  -3.181   0.066  0.00  0.00    +0.005 A 
ATOM     34  C   UNL     1      -0.124  -2.917   0.087  0.00  0.00    +0.000 A 
ENDBRANCH  28  32
BRANCH  28  35
ATOM     35  C   UNL     1       3.510  -5.606   0.037  0.00  0.00    -0.031 A 
ATOM     36  C   UNL     1       2.953  -6.833  -0.269  0.00  0.00    +0.005 A 
ATOM     37  C   UNL     1       3.219  -7.931   0.529  0.00  0.00    +0.000 A 
ATOM     38  C   UNL     1       4.043  -7.800   1.631  0.00  0.00    +0.000 A 
ATOM     39  C   UNL     1       4.601  -6.573   1.936  0.00  0.00    +0.000 A 
ATOM     40  C   UNL     1       4.338  -5.476   1.136  0.00  0.00    +0.005 A 
ENDBRANCH  28  35
ENDBRANCH  24  28
ENDBRANCH  23  26
ENDBRANCH  22  23
ENDBRANCH   1  22
TORSDOF 10
