REMARK  Name = ZINC24851521
REMARK  7 active torsions:
REMARK  status: ('A' for Active; 'I' for Inactive)
REMARK    1  A    between atoms: C_1  and  C_2
REMARK    2  A    between atoms: C_6  and  S_10
REMARK    3  A    between atoms: C_7  and  C_8
REMARK    4  A    between atoms: S_10  and  C_11
REMARK    5  A    between atoms: C_11  and  C_12
REMARK    6  A    between atoms: N_14  and  N_15
REMARK    7  A    between atoms: C_16  and  C_18
REMARK                            x       y       z     vdW  Elec       q    Type
REMARK                         _______ _______ _______ _____ _____    ______ ____
ROOT
ATOM      1  C   UNL     1      -0.022   1.806   0.012  0.00  0.00    +0.173 C 
ENDROOT
BRANCH   1   2
ATOM      2  C   UNL     1       1.391   2.327   0.001  0.00  0.00    +0.239 C 
ATOM      3  O   UNL     1       2.324   1.552  -0.012  0.00  0.00    -0.273 OA
ATOM      4  N   UNL     1       1.620   3.656   0.006  0.00  0.00    -0.233 N 
ATOM      5  H   UNL     1       0.774   4.359   0.018  0.00  0.00    +0.173 HD
BRANCH   4   6
ATOM      6  N   UNL     1       2.934   4.141  -0.004  0.00  0.00    -0.230 N 
ATOM      7  C   UNL     1       3.162   5.469   0.001  0.00  0.00    +0.267 C 
ATOM      8  O   UNL     1       2.227   6.247   0.014  0.00  0.00    -0.268 OA
ATOM      9  H   UNL     1       3.780   3.437  -0.015  0.00  0.00    +0.173 HD
BRANCH   7  10
ATOM     10  C   UNL     1       4.537   5.976  -0.009  0.00  0.00    +0.075 A 
ATOM     11  C   UNL     1       4.985   7.288  -0.012  0.00  0.00    +0.021 A 
ATOM     12  C   UNL     1       6.343   7.486  -0.019  0.00  0.00    +0.008 A 
ATOM     13  C   UNL     1       7.170   6.407  -0.033  0.00  0.00    +0.046 A 
ATOM     14  S   UNL     1       6.072   5.066  -0.029  0.00  0.00    -0.092 S 
ENDBRANCH   7  10
ENDBRANCH   4   6
ENDBRANCH   1   2
BRANCH   1  15
ATOM     15  S   UNL     1       0.002  -0.004   0.002  0.00  0.00    -0.095 S 
BRANCH  15  21
ATOM     16  C   UNL     1      -4.111  -3.300   0.025  0.00  0.00    +0.045 C 
ATOM     17  C   UNL     1      -3.567  -1.895   0.026  0.00  0.00    -0.026 A 
ATOM     18  C   UNL     1      -4.422  -0.805   0.041  0.00  0.00    -0.022 A 
ATOM     19  C   UNL     1      -3.899   0.476   0.042  0.00  0.00    +0.046 A 
ATOM     20  N   UNL     1      -2.589   0.670   0.036  0.00  0.00    -0.244 NA
ATOM     21  C   UNL     1      -1.729  -0.334   0.017  0.00  0.00    +0.115 A 
ATOM     22  C   UNL     1      -2.188  -1.663   0.014  0.00  0.00    +0.087 A 
ATOM     23  C   UNL     1      -5.029   1.485   0.057  0.00  0.00    +0.056 C 
ATOM     24  C   UNL     1      -6.274   0.692   0.508  0.00  0.00    +0.011 C 
ATOM     25  C   UNL     1      -5.933  -0.744   0.057  0.00  0.00    +0.037 C 
BRANCH  22  26
ATOM     26  C   UNL     1      -1.263  -2.756  -0.002  0.00  0.00    +0.102 C 
ATOM     27  N   UNL     1      -0.529  -3.623  -0.014  0.00  0.00    -0.191 NA
ENDBRANCH  22  26
ENDBRANCH  15  21
ENDBRANCH   1  15
TORSDOF 6
