REMARK  Name = ZINC13810760
REMARK  2 active torsions:
REMARK  status: ('A' for Active; 'I' for Inactive)
REMARK    1  A    between atoms: C_5  and  C_7
REMARK    2  A    between atoms: C_10  and  C_22
REMARK                            x       y       z     vdW  Elec       q    Type
REMARK                         _______ _______ _______ _____ _____    ______ ____
ROOT
ATOM      1  C   UNL     1       1.229  -2.186  -0.022  0.00  0.00    +0.107 C 
ATOM      2  C   UNL     1       1.463  -2.689  -1.450  0.00  0.00    +0.057 C 
ATOM      3  C   UNL     1       0.384  -2.123  -2.381  0.00  0.00    +0.122 C 
ATOM      4  N   UNL     1      -0.932  -2.357  -1.780  0.00  0.00    -0.306 N 
ATOM      5  C   UNL     1      -2.164  -2.353  -2.373  0.00  0.00    +0.069 A 
ATOM      6  C   UNL     1      -2.582  -2.135  -3.680  0.00  0.00    +0.028 A 
ATOM      7  C   UNL     1      -3.943  -2.212  -3.929  0.00  0.00    +0.002 A 
ATOM      8  C   UNL     1      -4.857  -2.493  -2.928  0.00  0.00    +0.002 A 
ATOM      9  C   UNL     1      -4.466  -2.713  -1.619  0.00  0.00    +0.028 A 
ATOM     10  C   UNL     1      -3.096  -2.640  -1.345  0.00  0.00    +0.065 A 
ATOM     11  N   UNL     1      -2.398  -2.797  -0.202  0.00  0.00    -0.327 N 
ATOM     12  C   UNL     1      -1.125  -2.631  -0.446  0.00  0.00    +0.175 A 
ATOM     13  N   UNL     1      -0.068  -2.701   0.455  0.00  0.00    -0.309 N 
ATOM     14  H   UNL     1      -0.175  -3.070   1.346  0.00  0.00    +0.149 HD
ATOM     15  H   UNL     1      -2.781  -3.001   0.665  0.00  0.00    +0.169 HD
ENDROOT
BRANCH   1  20
ATOM     16  C   UNL     1      -0.017   1.378   0.010  0.00  0.00    +0.000 A 
ATOM     17  C   UNL     1       1.171   2.086   0.002  0.00  0.00    +0.001 A 
ATOM     18  C   UNL     1       2.377   1.412  -0.013  0.00  0.00    +0.020 A 
ATOM     19  C   UNL     1       2.397   0.029  -0.021  0.00  0.00    +0.046 A 
ATOM     20  C   UNL     1       1.208  -0.679  -0.013  0.00  0.00    -0.009 A 
ATOM     21  C   UNL     1       0.002  -0.004   0.002  0.00  0.00    +0.007 A 
ATOM     22 CL   UNL     1       3.912  -0.818  -0.041  0.00  0.00    -0.083 Cl
ENDBRANCH   1  20
BRANCH   3  23
ATOM     23  C   UNL     1       0.460  -2.813  -3.719  0.00  0.00    -0.024 A 
ATOM     24  C   UNL     1       0.280  -4.181  -3.802  0.00  0.00    +0.007 A 
ATOM     25  C   UNL     1       0.349  -4.814  -5.029  0.00  0.00    +0.020 A 
ATOM     26  C   UNL     1       0.598  -4.077  -6.174  0.00  0.00    +0.041 A 
ATOM     27  C   UNL     1       0.778  -2.708  -6.090  0.00  0.00    +0.020 A 
ATOM     28  C   UNL     1       0.703  -2.076  -4.863  0.00  0.00    +0.007 A 
ATOM     29 CL   UNL     1       0.686  -4.872  -7.715  0.00  0.00    -0.084 Cl
ENDBRANCH   3  23
TORSDOF 2
