REMARK  Name = ZINC20724058
REMARK  5 active torsions:
REMARK  status: ('A' for Active; 'I' for Inactive)
REMARK    1  A    between atoms: C_1  and  C_2
REMARK    2  A    between atoms: C_2  and  C_3
REMARK    3  A    between atoms: C_2  and  O_4
REMARK    4  A    between atoms: O_4  and  C_5
REMARK    5  A    between atoms: C_8  and  C_11
REMARK                            x       y       z     vdW  Elec       q    Type
REMARK                         _______ _______ _______ _____ _____    ______ ____
ROOT
ATOM      1  C   UNL     1      -3.936  -0.947  -4.965  0.00  0.00    +0.063 C 
ATOM      2  C   UNL     1      -4.463  -2.373  -5.146  0.00  0.00    +0.109 C 
ATOM      3  C   UNL     1      -5.689  -2.626  -4.321  0.00  0.00    +0.219 C 
ATOM      4  O   UNL     1      -5.825  -3.714  -3.801  0.00  0.00    -0.275 OA
ATOM      5  N   UNL     1      -6.648  -1.695  -4.130  0.00  0.00    -0.269 N 
ATOM      6  C   UNL     1      -6.405  -0.397  -4.606  0.00  0.00    +0.150 A 
ATOM      7  C   UNL     1      -5.108   0.000  -5.014  0.00  0.00    +0.020 A 
ATOM      8  C   UNL     1      -5.171   1.278  -5.411  0.00  0.00    +0.111 A 
ATOM      9  N   UNL     1      -6.453   1.690  -5.269  0.00  0.00    -0.283 N 
ATOM     10  H   UNL     1      -6.793   2.574  -5.480  0.00  0.00    +0.188 HD
ATOM     11  N   UNL     1      -7.205   0.615  -4.761  0.00  0.00    -0.158 NA
ATOM     12  H   UNL     1      -7.478  -1.916  -3.680  0.00  0.00    +0.156 HD
ENDROOT
BRANCH   1  16
ATOM     13  C   UNL     1      -1.965  -0.607  -1.189  0.00  0.00    +0.121 A 
ATOM     14  C   UNL     1      -1.270  -0.349  -2.361  0.00  0.00    +0.046 A 
ATOM     15  C   UNL     1      -1.909  -0.460  -3.581  0.00  0.00    +0.008 A 
ATOM     16  C   UNL     1      -3.241  -0.827  -3.634  0.00  0.00    -0.039 A 
ATOM     17  C   UNL     1      -3.937  -1.084  -2.466  0.00  0.00    +0.008 A 
ATOM     18  C   UNL     1      -3.300  -0.981  -1.245  0.00  0.00    +0.046 A 
BRANCH  13  19
ATOM     19  O   UNL     1      -1.339  -0.499   0.012  0.00  0.00    -0.489 OA
BRANCH  19  21
ATOM     20  C   UNL     1       0.290   1.280  -0.134  0.00  0.00    +0.051 C 
ATOM     21  C   UNL     1       0.064  -0.228  -0.010  0.00  0.00    +0.167 C 
ATOM     22  C   UNL     1       0.703  -0.735   1.284  0.00  0.00    +0.051 C 
ENDBRANCH  19  21
ENDBRANCH  13  19
ENDBRANCH   1  16
TORSDOF 3
