REMARK  Name = ZINC05958883
REMARK  4 active torsions:
REMARK  status: ('A' for Active; 'I' for Inactive)
REMARK    1  A    between atoms: C_1  and  C_2
REMARK    2  A    between atoms: C_3  and  C_9
REMARK    3  A    between atoms: N_7  and  C_8
REMARK    4  A    between atoms: N_11  and  N_12
REMARK                            x       y       z     vdW  Elec       q    Type
REMARK                         _______ _______ _______ _____ _____    ______ ____
ROOT
ATOM      1  C   UNL     1       0.867   5.718   0.036  0.00  0.00    +0.272 C 
ATOM      2  O   UNL     1       0.073   6.640   0.040  0.00  0.00    -0.268 OA
ATOM      3  N   UNL     1       2.191   5.968   0.022  0.00  0.00    -0.202 N 
ATOM      4  H   UNL     1       2.824   5.232   0.019  0.00  0.00    +0.178 HD
ENDROOT
BRANCH   1   7
ATOM      5  C   UNL     1      -2.066   4.823   0.067  0.00  0.00    +0.065 C 
ATOM      6  C   UNL     1      -0.897   3.872   0.059  0.00  0.00    +0.036 A 
ATOM      7  C   UNL     1       0.383   4.336   0.045  0.00  0.00    +0.097 A 
ATOM      8  S   UNL     1       1.314   2.813   0.041  0.00  0.00    -0.057 S 
ATOM      9  C   UNL     1      -0.025   1.710   0.058  0.00  0.00    +0.126 A 
ATOM     10  S   UNL     1      -0.002  -0.002   0.063  0.00  0.00    -0.025 S 
ATOM     11  N   UNL     1      -1.089   2.542   0.059  0.00  0.00    -0.335 N 
ATOM     12  C   UNL     1      -2.449   1.996   0.067  0.00  0.00    +0.150 C 
ENDBRANCH   1   7
BRANCH   3  13
ATOM     13  N   UNL     1       2.617   7.185   0.014  0.00  0.00    -0.180 NA
ATOM     14  C   UNL     1       3.917   7.434   0.103  0.00  0.00    +0.082 C 
ATOM     15  C   UNL     1       4.847   6.363   0.096  0.00  0.00    +0.033 C 
ATOM     16  C   UNL     1       6.174   6.620   0.181  0.00  0.00    +0.053 C 
ATOM     17  C   UNL     1       6.631   7.952   0.290  0.00  0.00    +0.179 C 
ATOM     18  O   UNL     1       7.829   8.180   0.372  0.00  0.00    -0.288 OA
ATOM     19  C   UNL     1       5.707   9.020   0.303  0.00  0.00    +0.053 C 
ATOM     20  C   UNL     1       4.380   8.770   0.212  0.00  0.00    +0.033 C 
ENDBRANCH   3  13
TORSDOF 2
