REMARK  Name = ZINC39673565
REMARK  11 active torsions:
REMARK  status: ('A' for Active; 'I' for Inactive)
REMARK    1  A    between atoms: C_1  and  C_2
REMARK    2  A    between atoms: C_2  and  C_3
REMARK    3  A    between atoms: C_3  and  C_4
REMARK    4  A    between atoms: C_4  and  C_6
REMARK    5  A    between atoms: C_4  and  N_7
REMARK    6  A    between atoms: C_8  and  C_10
REMARK    7  A    between atoms: C_21  and  C_23
REMARK    8  A    between atoms: C_26  and  O_31
REMARK    9  A    between atoms: C_28  and  O_29
REMARK   10  A    between atoms: O_29  and  C_30
REMARK   11  A    between atoms: O_31  and  C_32
REMARK                            x       y       z     vdW  Elec       q    Type
REMARK                         _______ _______ _______ _____ _____    ______ ____
ROOT
ATOM      1  C   UNL     1       2.136  -4.214  -1.603  0.00  0.00    +0.100 C 
ATOM      2  C   UNL     1       3.642  -4.213  -1.260  0.00  0.00    +0.121 C 
ATOM      3  N   UNL     1       3.924  -5.596  -0.805  0.00  0.00    -0.296 N 
ATOM      4  C   UNL     1       3.123  -6.452  -1.713  0.00  0.00    +0.115 C 
ATOM      5  C   UNL     1       1.800  -5.684  -1.903  0.00  0.00    -0.004 C 
ATOM      6  C   UNL     1       0.749  -6.197  -0.923  0.00  0.00    -0.010 C 
ATOM      7  C   UNL     1       0.390  -7.643  -1.277  0.00  0.00    -0.082 C 
ATOM      8  N   UNL     1      -0.124  -7.699  -2.651  0.00  0.00    +0.379 N 
ATOM      9  C   UNL     1       0.924  -7.292  -3.595  0.00  0.00    -0.082 C 
ATOM     10  C   UNL     1       1.305  -5.831  -3.339  0.00  0.00    -0.010 C 
ATOM     11  C   UNL     1       4.726  -5.986   0.205  0.00  0.00    +0.250 C 
ATOM     12  O   UNL     1       5.244  -5.155   0.926  0.00  0.00    -0.270 OA
ATOM     13  H   UNL     1      -0.417  -8.641  -2.861  0.00  0.00    -0.086 HD
ATOM     14  H   UNL     1      -0.914  -7.077  -2.739  0.00  0.00    -0.086 HD
ENDROOT
BRANCH  11  15
ATOM     15  C   UNL     1       4.975  -7.419   0.436  0.00  0.00    +0.079 A 
ATOM     16  C   UNL     1       5.057  -8.301  -0.647  0.00  0.00    +0.020 A 
ATOM     17  C   UNL     1       5.291  -9.638  -0.427  0.00  0.00    +0.046 A 
ATOM     18  C   UNL     1       5.444 -10.120   0.870  0.00  0.00    +0.124 A 
ATOM     19  C   UNL     1       5.364  -9.254   1.951  0.00  0.00    +0.092 A 
ATOM     20  C   UNL     1       5.136  -7.905   1.742  0.00  0.00    +0.136 A 
BRANCH  20  21
ATOM     21  O   UNL     1       5.062  -7.056   2.798  0.00  0.00    -0.494 OA
ATOM     22  C   UNL     1       5.236  -7.621   4.098  0.00  0.00    +0.277 C 
ENDBRANCH  20  21
BRANCH  18  23
ATOM     23  O   UNL     1       5.674 -11.441   1.078  0.00  0.00    -0.495 OA
ATOM     24  C   UNL     1       5.745 -12.277  -0.079  0.00  0.00    +0.277 C 
ENDBRANCH  18  23
ENDBRANCH  11  15
BRANCH   1  26
ATOM     25  N   UNL     1       0.168  -3.069  -0.635  0.00  0.00    -0.312 N 
ATOM     26  C   UNL     1       1.330  -3.721  -0.429  0.00  0.00    +0.218 C 
ATOM     27  O   UNL     1       1.727  -3.910   0.701  0.00  0.00    -0.275 OA
ATOM     28  H   UNL     1      -0.149  -2.918  -1.539  0.00  0.00    +0.149 HD
BRANCH  25  29
ATOM     29  C   UNL     1      -0.615  -2.590   0.506  0.00  0.00    +0.070 C 
ATOM     30  C   UNL     1      -0.093  -1.219   0.943  0.00  0.00    +0.028 C 
BRANCH  29  31
ATOM     31  C   UNL     1      -2.086  -2.470   0.102  0.00  0.00    +0.022 C 
BRANCH  31  33
ATOM     32  C   UNL     1      -4.112  -3.740  -0.621  0.00  0.00    +0.004 C 
ATOM     33  C   UNL     1      -2.642  -3.860  -0.216  0.00  0.00    -0.002 C 
ENDBRANCH  31  33
ENDBRANCH  29  31
ENDBRANCH  25  29
ENDBRANCH   1  26
TORSDOF 7
