REMARK  Name = ZINC39689374
REMARK  12 active torsions:
REMARK  status: ('A' for Active; 'I' for Inactive)
REMARK    1  A    between atoms: C_1  and  C_2
REMARK    2  A    between atoms: C_6  and  C_8
REMARK    3  A    between atoms: C_8  and  C_9
REMARK    4  A    between atoms: C_9  and  N_10
REMARK    5  A    between atoms: C_11  and  C_13
REMARK    6  A    between atoms: C_24  and  C_26
REMARK    7  A    between atoms: C_28  and  O_36
REMARK    8  A    between atoms: C_29  and  O_34
REMARK    9  A    between atoms: C_30  and  O_32
REMARK   10  A    between atoms: O_32  and  C_33
REMARK   11  A    between atoms: O_34  and  C_35
REMARK   12  A    between atoms: O_36  and  C_37
REMARK                            x       y       z     vdW  Elec       q    Type
REMARK                         _______ _______ _______ _____ _____    ______ ____
ROOT
ATOM      1  C   UNL     1       2.836  -4.234   6.060  0.00  0.00    +0.100 C 
ATOM      2  C   UNL     1       2.142  -3.660   7.315  0.00  0.00    +0.121 C 
ATOM      3  N   UNL     1       2.994  -4.094   8.446  0.00  0.00    -0.296 N 
ATOM      4  C   UNL     1       4.380  -3.952   7.939  0.00  0.00    +0.115 C 
ATOM      5  C   UNL     1       4.306  -4.423   6.473  0.00  0.00    -0.004 C 
ATOM      6  C   UNL     1       5.216  -3.567   5.598  0.00  0.00    -0.010 C 
ATOM      7  C   UNL     1       6.675  -3.817   5.989  0.00  0.00    -0.082 C 
ATOM      8  N   UNL     1       6.993  -5.239   5.817  0.00  0.00    +0.379 N 
ATOM      9  C   UNL     1       6.178  -6.049   6.731  0.00  0.00    -0.082 C 
ATOM     10  C   UNL     1       4.698  -5.894   6.371  0.00  0.00    -0.010 C 
ATOM     11  C   UNL     1       2.599  -4.522   9.662  0.00  0.00    +0.247 C 
ATOM     12  O   UNL     1       1.419  -4.707   9.887  0.00  0.00    -0.270 OA
ATOM     13  H   UNL     1       6.801  -5.513   4.865  0.00  0.00    -0.086 HD
ATOM     14  H   UNL     1       7.971  -5.390   6.016  0.00  0.00    -0.086 HD
ENDROOT
BRANCH  11  15
ATOM     15  C   UNL     1       3.600  -4.766  10.719  0.00  0.00    +0.044 A 
ATOM     16  C   UNL     1       4.858  -4.165  10.644  0.00  0.00    +0.062 A 
ATOM     17  C   UNL     1       5.793  -4.394  11.636  0.00  0.00    +0.166 A 
ATOM     18  C   UNL     1       5.482  -5.225  12.709  0.00  0.00    +0.204 A 
ATOM     19  C   UNL     1       4.228  -5.826  12.786  0.00  0.00    +0.166 A 
ATOM     20  C   UNL     1       3.288  -5.595  11.800  0.00  0.00    +0.062 A 
BRANCH  19  21
ATOM     21  O   UNL     1       3.927  -6.638  13.835  0.00  0.00    -0.491 OA
ATOM     22  C   UNL     1       2.623  -7.221  13.851  0.00  0.00    +0.277 C 
ENDBRANCH  19  21
BRANCH  18  23
ATOM     23  O   UNL     1       6.403  -5.450  13.683  0.00  0.00    -0.488 OA
ATOM     24  C   UNL     1       6.401  -4.554  14.796  0.00  0.00    +0.277 C 
ENDBRANCH  18  23
BRANCH  17  25
ATOM     25  O   UNL     1       7.019  -3.809  11.564  0.00  0.00    -0.491 OA
ATOM     26  C   UNL     1       7.271  -2.969  10.435  0.00  0.00    +0.277 C 
ENDBRANCH  17  25
ENDBRANCH  11  15
BRANCH   1  28
ATOM     27  N   UNL     1       2.698  -3.716   3.645  0.00  0.00    -0.315 N 
ATOM     28  C   UNL     1       2.735  -3.261   4.913  0.00  0.00    +0.218 C 
ATOM     29  O   UNL     1       2.687  -2.069   5.131  0.00  0.00    -0.275 OA
ATOM     30  H   UNL     1       2.737  -4.670   3.470  0.00  0.00    +0.149 HD
BRANCH  27  31
ATOM     31  C   UNL     1       2.600  -2.771   2.530  0.00  0.00    +0.109 C 
BRANCH  31  32
ATOM     32  C   UNL     1       2.576  -3.541   1.208  0.00  0.00    +0.054 C 
BRANCH  32  38
ATOM     33  C   UNL     1      -0.212  -0.869  -1.975  0.00  0.00    +0.044 C 
ATOM     34  C   UNL     1       1.141  -1.291  -1.462  0.00  0.00    -0.050 A 
ATOM     35  C   UNL     1       2.289  -0.785  -2.043  0.00  0.00    +0.003 A 
ATOM     36  C   UNL     1       3.530  -1.172  -1.572  0.00  0.00    +0.001 A 
ATOM     37  C   UNL     1       3.623  -2.064  -0.520  0.00  0.00    +0.004 A 
ATOM     38  C   UNL     1       2.475  -2.569   0.062  0.00  0.00    -0.046 A 
ATOM     39  C   UNL     1       1.234  -2.178  -0.406  0.00  0.00    +0.007 A 
ENDBRANCH  32  38
ENDBRANCH  31  32
ENDBRANCH  27  31
ENDBRANCH   1  28
TORSDOF 8
