REMARK  Name = ZINC35877861
REMARK  8 active torsions:
REMARK  status: ('A' for Active; 'I' for Inactive)
REMARK    1  A    between atoms: C_1  and  C_2
REMARK    2  A    between atoms: C_9  and  O_20
REMARK    3  A    between atoms: C_12  and  C_14
REMARK    4  A    between atoms: C_23  and  O_36
REMARK    5  A    between atoms: C_24  and  C_31
REMARK    6  A    between atoms: C_27  and  O_30
REMARK    7  A    between atoms: C_31  and  O_32
REMARK    8  A    between atoms: O_32  and  N_33
REMARK                            x       y       z     vdW  Elec       q    Type
REMARK                         _______ _______ _______ _____ _____    ______ ____
ROOT
ATOM      1  C   UNL     1       0.035   1.486  -0.011  0.00  0.00    +0.014 C 
ATOM      2  C   UNL     1       0.023  -0.044   0.001  0.00  0.00    +0.004 C 
ATOM      3  C   UNL     1       0.629  -0.623  -1.279  0.00  0.00    +0.010 C 
ATOM      4  C   UNL     1       2.143  -0.424  -1.299  0.00  0.00    +0.005 C 
ATOM      5  C   UNL     1       2.752  -1.190  -0.120  0.00  0.00    +0.007 C 
ATOM      6  C   UNL     1       2.223  -0.580   1.177  0.00  0.00    +0.025 C 
ATOM      7  C   UNL     1       0.735  -0.608   1.244  0.00  0.00    +0.075 C 
ATOM      8  C   UNL     1       0.194  -2.046   1.347  0.00  0.00    +0.036 C 
ATOM      9  C   UNL     1      -1.299  -1.898   0.972  0.00  0.00    +0.011 C 
ATOM     10  C   UNL     1      -1.416  -0.609   0.137  0.00  0.00    +0.027 C 
ATOM     11  C   UNL     1       2.835  -1.313   2.374  0.00  0.00    +0.009 C 
ATOM     12  C   UNL     1       4.359  -1.177   2.330  0.00  0.00    +0.036 C 
ATOM     13  C   UNL     1       4.762  -0.354   1.105  0.00  0.00    +0.077 C 
ATOM     14  C   UNL     1       4.276  -1.071  -0.174  0.00  0.00    +0.040 C 
ATOM     15  C   UNL     1       4.680  -0.257  -1.405  0.00  0.00    +0.016 C 
ATOM     16  C   UNL     1       6.204  -0.135  -1.460  0.00  0.00    +0.032 C 
ATOM     17  C   UNL     1       6.705   0.569  -0.197  0.00  0.00    +0.117 C 
ATOM     18  C   UNL     1       6.285  -0.218   1.060  0.00  0.00    +0.066 C 
ENDROOT
BRANCH  10  19
ATOM     19  C   UNL     1      -1.979  -0.924  -1.225  0.00  0.00    -0.022 C 
ATOM     20  C   UNL     1      -2.103  -2.132  -1.772  0.00  0.00    +0.094 C 
ATOM     21  C   UNL     1      -2.697  -1.993  -3.106  0.00  0.00    +0.332 C 
ATOM     22  O   UNL     1      -2.940  -2.913  -3.862  0.00  0.00    -0.246 OA
ATOM     23  O   UNL     1      -2.933  -0.694  -3.367  0.00  0.00    -0.457 OA
ATOM     24  C   UNL     1      -2.515   0.068  -2.229  0.00  0.00    +0.264 C 
ENDBRANCH  10  19
BRANCH   7  25
ATOM     25  O   UNL     1       0.308   0.119   2.397  0.00  0.00    -0.388 OA
ATOM     26  H   UNL     1       0.715  -0.179   3.223  0.00  0.00    +0.210 HD
ENDBRANCH   7  25
BRANCH  17  27
ATOM     27  O   UNL     1       8.128   0.683  -0.248  0.00  0.00    -0.392 OA
ATOM     28  H   UNL     1       8.456   1.188  -1.004  0.00  0.00    +0.210 HD
ENDBRANCH  17  27
BRANCH  13  29
ATOM     29  O   UNL     1       4.170   0.944   1.187  0.00  0.00    -0.388 OA
ATOM     30  H   UNL     1       4.434   1.448   1.969  0.00  0.00    +0.210 HD
ENDBRANCH  13  29
BRANCH  14  31
ATOM     31  C   UNL     1       4.895  -2.468  -0.259  0.00  0.00    +0.277 C 
BRANCH  31  32
ATOM     32  O   UNL     1       4.518  -3.081  -1.494  0.00  0.00    -0.351 OA
BRANCH  32  33
ATOM     33  N   UNL     1       5.042  -4.385  -1.672  0.00  0.00    +0.217 N 
ATOM     34  O   UNL     1       5.739  -4.879  -0.817  0.00  0.00    -0.090 OA
ATOM     35  O   UNL     1       4.791  -5.004  -2.680  0.00  0.00    -0.090 OA
ENDBRANCH  32  33
ENDBRANCH  31  32
ENDBRANCH  14  31
TORSDOF 7
