REMARK  Name = ZINC39466621
REMARK  6 active torsions:
REMARK  status: ('A' for Active; 'I' for Inactive)
REMARK    1  A    between atoms: C_1  and  S_2
REMARK    2  A    between atoms: S_2  and  C_3
REMARK    3  A    between atoms: P_12  and  C_28
REMARK    4  A    between atoms: C_20  and  C_21
REMARK    5  A    between atoms: C_26  and  O_27
REMARK    6  A    between atoms: C_28  and  C_29
REMARK                            x       y       z     vdW  Elec       q    Type
REMARK                         _______ _______ _______ _____ _____    ______ ____
ROOT
ATOM      1  C   UNL     1      -1.702  -0.454   0.016  0.00  0.00    +0.012 C 
ATOM      2  C   UNL     1      -2.647   0.491   0.024  0.00  0.00    -0.008 C 
ATOM      3  C   UNL     1      -4.100   0.098   0.025  0.00  0.00    +0.017 C 
ATOM      4  C   UNL     1      -4.952   1.215  -0.559  0.00  0.00    -0.003 C 
ATOM      5  C   UNL     1      -6.254   0.667  -1.158  0.00  0.00    -0.020 C 
ATOM      6  C   UNL     1      -7.281   1.801  -1.026  0.00  0.00    +0.156 C 
ATOM      7  O   UNL     1      -8.541   1.404  -1.589  0.00  0.00    -0.319 OA
ATOM      8  P   UNL     1      -9.161  -0.019  -1.097  0.00  0.00    +0.262 P 
ATOM      9  O   UNL     1     -10.139  -0.523  -2.086  0.00  0.00    -0.274 OA
ATOM     10  N   UNL     1      -7.865  -1.033  -1.003  0.00  0.00    -0.291 NA
ATOM     11  N   UNL     1      -6.691  -0.541  -0.469  0.00  0.00    +0.397 N 
ATOM     12  C   UNL     1      -5.741  -1.652  -0.630  0.00  0.00    -0.046 C 
ATOM     13  C   UNL     1      -4.300  -1.158  -0.820  0.00  0.00    +0.005 C 
ATOM     14  C   UNL     1      -3.330  -2.225  -0.385  0.00  0.00    -0.015 C 
ATOM     15  C   UNL     1      -2.097  -1.882   0.012  0.00  0.00    -0.005 C 
ATOM     16  H   UNL     1      -7.932  -1.951  -1.310  0.00  0.00    +0.111 HD
ATOM     17  H   UNL     1      -6.815  -0.343   0.513  0.00  0.00    -0.055 HD
ENDROOT
BRANCH  15  18
ATOM     18  C   UNL     1      -1.138  -2.925   0.449  0.00  0.00    +0.024 A 
ATOM     19  C   UNL     1      -0.510  -3.737  -0.494  0.00  0.00    +0.012 A 
ATOM     20  C   UNL     1       0.382  -4.706  -0.082  0.00  0.00    +0.001 A 
ATOM     21  C   UNL     1       0.655  -4.875   1.264  0.00  0.00    +0.004 A 
ATOM     22  C   UNL     1       0.038  -4.076   2.207  0.00  0.00    +0.046 A 
ATOM     23  C   UNL     1      -0.855  -3.094   1.808  0.00  0.00    +0.125 A 
BRANCH  23  24
ATOM     24  O   UNL     1      -1.458  -2.304   2.733  0.00  0.00    -0.506 OA
ATOM     25  H   UNL     1      -2.294  -2.656   3.067  0.00  0.00    +0.292 HD
ENDBRANCH  23  24
ENDBRANCH  15  18
BRANCH   1  27
ATOM     26  C   UNL     1      -0.022   1.810   0.012  0.00  0.00    +0.090 C 
ATOM     27  S   UNL     1       0.002  -0.004   0.002  0.00  0.00    -0.128 S 
ENDBRANCH   1  27
BRANCH   8  28
ATOM     28  C   UNL     1      -9.949   0.163   0.536  0.00  0.00    +0.147 C 
BRANCH  28  29
ATOM     29  C   UNL     1     -11.059   1.178   0.448  0.00  0.00    -0.037 A 
ATOM     30  C   UNL     1     -10.793   2.515   0.679  0.00  0.00    +0.004 A 
ATOM     31  C   UNL     1     -11.812   3.446   0.598  0.00  0.00    +0.000 A 
ATOM     32  C   UNL     1     -13.096   3.040   0.286  0.00  0.00    +0.000 A 
ATOM     33  C   UNL     1     -13.362   1.704   0.055  0.00  0.00    +0.000 A 
ATOM     34  C   UNL     1     -12.342   0.773   0.132  0.00  0.00    +0.004 A 
ENDBRANCH  28  29
ENDBRANCH   8  28
TORSDOF 5
