REMARK  Name = ZINC39691335
REMARK  7 active torsions:
REMARK  status: ('A' for Active; 'I' for Inactive)
REMARK    1  A    between atoms: C_4  and  C_7
REMARK    2  A    between atoms: C_11  and  C_20
REMARK    3  A    between atoms: N_22  and  C_23
REMARK    4  A    between atoms: C_23  and  C_24
REMARK    5  A    between atoms: C_24  and  N_25
REMARK    6  A    between atoms: C_26  and  C_28
REMARK    7  A    between atoms: C_28  and  C_29
REMARK                            x       y       z     vdW  Elec       q    Type
REMARK                         _______ _______ _______ _____ _____    ______ ____
ROOT
ATOM      1  C   UNL     1       2.557  -4.017  -2.197  0.00  0.00    +0.218 C 
ATOM      2  O   UNL     1       2.504  -2.918  -2.706  0.00  0.00    -0.275 OA
ATOM      3  N   UNL     1       2.195  -5.106  -2.905  0.00  0.00    -0.314 N 
ATOM      4  H   UNL     1       2.237  -5.985  -2.498  0.00  0.00    +0.149 HD
ENDROOT
BRANCH   1   9
ATOM      5  C   UNL     1       3.981  -0.732  -0.137  0.00  0.00    +0.247 C 
ATOM      6  O   UNL     1       5.065  -0.201  -0.280  0.00  0.00    -0.270 OA
ATOM      7  N   UNL     1       3.898  -2.071  -0.006  0.00  0.00    -0.296 N 
ATOM      8  C   UNL     1       2.674  -2.905   0.045  0.00  0.00    +0.121 C 
ATOM      9  C   UNL     1       3.027  -4.167  -0.773  0.00  0.00    +0.100 C 
ATOM     10  C   UNL     1       4.562  -4.253  -0.720  0.00  0.00    -0.004 C 
ATOM     11  C   UNL     1       5.012  -3.043   0.112  0.00  0.00    +0.115 C 
ATOM     12  C   UNL     1       4.995  -5.550  -0.045  0.00  0.00    -0.010 C 
ATOM     13  C   UNL     1       6.524  -5.640  -0.056  0.00  0.00    -0.082 C 
ATOM     14  N   UNL     1       7.008  -5.601  -1.441  0.00  0.00    +0.379 N 
ATOM     15  C   UNL     1       6.667  -4.311  -2.054  0.00  0.00    -0.082 C 
ATOM     16  C   UNL     1       5.145  -4.165  -2.127  0.00  0.00    -0.010 C 
ATOM     17  H   UNL     1       8.010  -5.721  -1.449  0.00  0.00    -0.086 HD
ATOM     18  H   UNL     1       6.578  -6.346  -1.968  0.00  0.00    -0.086 HD
BRANCH   5  22
ATOM     19  C   UNL     1       0.454   1.632  -0.048  0.00  0.00    +0.000 A 
ATOM     20  C   UNL     1       1.603   2.131  -0.635  0.00  0.00    +0.001 A 
ATOM     21  C   UNL     1       2.752   1.369  -0.667  0.00  0.00    +0.013 A 
ATOM     22  C   UNL     1       2.753   0.091  -0.106  0.00  0.00    +0.037 A 
ATOM     23  C   UNL     1       1.591  -0.406   0.485  0.00  0.00    +0.013 A 
ATOM     24  C   UNL     1       0.449   0.366   0.510  0.00  0.00    +0.001 A 
ENDBRANCH   5  22
ENDBRANCH   1   9
BRANCH   3  25
ATOM     25  C   UNL     1       1.737  -4.960  -4.289  0.00  0.00    +0.123 C 
BRANCH  25  26
ATOM     26  C   UNL     1       1.391  -6.337  -4.859  0.00  0.00    +0.123 C 
BRANCH  26  27
ATOM     27  N   UNL     1       0.933  -6.192  -6.243  0.00  0.00    -0.314 N 
ATOM     28  C   UNL     1       0.571  -7.280  -6.951  0.00  0.00    +0.217 C 
ATOM     29  O   UNL     1       0.624  -8.380  -6.442  0.00  0.00    -0.275 OA
ATOM     30  H   UNL     1       0.891  -5.312  -6.650  0.00  0.00    +0.149 HD
BRANCH  28  31
ATOM     31  C   UNL     1       0.101  -7.131  -8.375  0.00  0.00    +0.131 C 
BRANCH  31  32
ATOM     32  C   UNL     1      -0.241  -8.487  -8.936  0.00  0.00    -0.031 A 
ATOM     33  C   UNL     1       0.684  -9.184  -9.652  0.00  0.00    +0.005 A 
ATOM     34  C   UNL     1       0.386 -10.439 -10.179  0.00  0.00    +0.001 A 
ATOM     35  C   UNL     1      -0.838 -11.005  -9.993  0.00  0.00    +0.008 A 
ATOM     36  C   UNL     1      -1.818 -10.316  -9.258  0.00  0.00    -0.018 A 
ATOM     37  C   UNL     1      -1.513  -9.042  -8.717  0.00  0.00    -0.014 A 
ATOM     38  C   UNL     1      -2.491  -8.355  -7.978  0.00  0.00    +0.009 A 
ATOM     39  C   UNL     1      -3.713  -8.924  -7.787  0.00  0.00    +0.001 A 
ATOM     40  C   UNL     1      -4.010 -10.180  -8.313  0.00  0.00    +0.001 A 
ATOM     41  C   UNL     1      -3.093 -10.868  -9.046  0.00  0.00    +0.008 A 
ENDBRANCH  31  32
ENDBRANCH  28  31
ENDBRANCH  26  27
ENDBRANCH  25  26
ENDBRANCH   3  25
TORSDOF 7
