REMARK  Name = ZINC44419963
REMARK  5 active torsions:
REMARK  status: ('A' for Active; 'I' for Inactive)
REMARK    1  A    between atoms: C_6  and  C_7
REMARK    2  A    between atoms: N_9  and  C_10
REMARK    3  A    between atoms: C_10  and  C_11
REMARK    4  A    between atoms: C_11  and  S_12
REMARK    5  A    between atoms: S_12  and  N_15
REMARK                            x       y       z     vdW  Elec       q    Type
REMARK                         _______ _______ _______ _____ _____    ______ ____
ROOT
ATOM      1  C   UNL     1      -0.017   1.393   0.010  0.00  0.00    +0.027 A 
ATOM      2  C   UNL     1       1.191   2.081   0.002  0.00  0.00    -0.025 A 
ATOM      3  C   UNL     1       2.374   1.374  -0.010  0.00  0.00    +0.047 A 
ATOM      4  N   UNL     1       2.364   0.046  -0.022  0.00  0.00    -0.236 NA
ATOM      5  C   UNL     1       1.247  -0.656  -0.017  0.00  0.00    +0.137 A 
ATOM      6  C   UNL     1       0.002  -0.004   0.002  0.00  0.00    +0.092 A 
ATOM      7  N   UNL     1       1.302  -2.039  -0.029  0.00  0.00    -0.326 N 
ATOM      8  C   UNL     1       3.718   2.056  -0.000  0.00  0.00    +0.056 C 
ATOM      9  C   UNL     1       3.583   3.517  -0.423  0.00  0.00    +0.006 C 
ATOM     10  C   UNL     1       2.486   4.168   0.427  0.00  0.00    +0.005 C 
ATOM     11  C   UNL     1       1.139   3.585   0.003  0.00  0.00    +0.037 C 
ATOM     12  H   UNL     1       0.482  -2.557  -0.026  0.00  0.00    +0.148 HD
ENDROOT
BRANCH   6  13
ATOM     13  C   UNL     1      -1.218  -0.754   0.013  0.00  0.00    +0.103 C 
ATOM     14  N   UNL     1      -2.186  -1.348   0.022  0.00  0.00    -0.191 NA
ENDBRANCH   6  13
BRANCH   7  15
ATOM     15  C   UNL     1       2.599  -2.721  -0.049  0.00  0.00    +0.127 C 
BRANCH  15  16
ATOM     16  C   UNL     1       2.379  -4.235  -0.060  0.00  0.00    +0.203 C 
BRANCH  16  17
ATOM     17  S   UNL     1       3.984  -5.079  -0.084  0.00  0.00    +0.028 S 
ATOM     18  O   UNL     1       4.640  -4.849  -1.323  0.00  0.00    -0.158 OA
ATOM     19  O   UNL     1       4.665  -4.871   1.146  0.00  0.00    -0.158 OA
BRANCH  17  20
ATOM     20  N   UNL     1       3.616  -6.694  -0.095  0.00  0.00    -0.208 NA
ATOM     21  H   UNL     1       4.213  -7.324  -0.526  0.00  0.00    +0.144 HD
ATOM     22  H   UNL     1       2.803  -7.009   0.331  0.00  0.00    +0.144 HD
ENDBRANCH  17  20
ENDBRANCH  16  17
ENDBRANCH  15  16
ENDBRANCH   7  15
TORSDOF 5
