REMARK  Name = ZINC19146147
REMARK  6 active torsions:
REMARK  status: ('A' for Active; 'I' for Inactive)
REMARK    1  A    between atoms: C_4  and  C_7
REMARK    2  A    between atoms: C_9  and  C_13
REMARK    3  A    between atoms: C_13  and  N_14
REMARK    4  A    between atoms: N_14  and  C_15
REMARK    5  A    between atoms: C_15  and  C_16
REMARK    6  A    between atoms: C_17  and  C_24
REMARK                            x       y       z     vdW  Elec       q    Type
REMARK                         _______ _______ _______ _____ _____    ______ ____
ROOT
ATOM      1  N   UNL     1       0.325   4.970   1.393  0.00  0.00    +0.386 N 
ATOM      2  H   UNL     1       1.276   5.211   1.890  0.00  0.00    -0.085 HD
ATOM      3  H   UNL     1      -0.148   4.116   1.900  0.00  0.00    -0.085 HD
ENDROOT
BRANCH   1   4
ATOM      4  C   UNL     1      -0.570   6.134   1.457  0.00  0.00    -0.026 C 
BRANCH   4   7
ATOM      5  C   UNL     1      -0.672   7.463   4.899  0.00  0.00    +0.093 A 
ATOM      6  C   UNL     1      -0.136   7.441   3.642  0.00  0.00    +0.050 A 
ATOM      7  C   UNL     1      -0.832   6.487   2.899  0.00  0.00    +0.020 A 
ATOM      8  N   UNL     1      -1.743   5.944   3.665  0.00  0.00    -0.283 N 
ATOM      9  N   UNL     1      -1.670   6.536   4.932  0.00  0.00    -0.174 NA
ATOM     10  H   UNL     1      -2.401   5.158   3.264  0.00  0.00    +0.188 HD
BRANCH   5  14
ATOM     11  C   UNL     1       0.550   9.962   8.111  0.00  0.00    +0.000 A 
ATOM     12  C   UNL     1      -0.492   9.069   8.290  0.00  0.00    +0.001 A 
ATOM     13  C   UNL     1      -0.893   8.255   7.251  0.00  0.00    +0.010 A 
ATOM     14  C   UNL     1      -0.246   8.334   6.018  0.00  0.00    +0.002 A 
ATOM     15  C   UNL     1       0.807   9.232   5.845  0.00  0.00    +0.010 A 
ATOM     16  C   UNL     1       1.195  10.044   6.890  0.00  0.00    +0.001 A 
ENDBRANCH   5  14
ENDBRANCH   4   7
ENDBRANCH   1   4
BRANCH   1  17
ATOM     17  C   UNL     1       0.603   4.596  -0.000  0.00  0.00    -0.025 C 
BRANCH  17  18
ATOM     18  C   UNL     1       1.522   3.402  -0.026  0.00  0.00    +0.039 A 
ATOM     19  C   UNL     1       2.881   3.436  -0.045  0.00  0.00    +0.146 A 
ATOM     20  N   UNL     1       3.329   2.154  -0.064  0.00  0.00    -0.216 NA
ATOM     21  C   UNL     1       2.303   1.357  -0.058  0.00  0.00    +0.178 A 
ATOM     22  N   UNL     1       1.134   2.075  -0.034  0.00  0.00    -0.299 N 
ATOM     23  C   UNL     1      -0.040   1.352  -0.025  0.00  0.00    +0.100 A 
ATOM     24  C   UNL     1      -0.022   0.021  -0.039  0.00  0.00    +0.067 A 
ATOM     25  S   UNL     1       1.729  -0.326  -0.068  0.00  0.00    -0.058 S 
BRANCH  19  26
ATOM     26  C   UNL     1       3.719   4.648  -0.045  0.00  0.00    +0.267 C 
ATOM     27  O   UNL     1       3.199   5.747  -0.027  0.00  0.00    -0.268 OA
ATOM     28  N   UNL     1       5.063   4.538  -0.066  0.00  0.00    -0.296 N 
ATOM     29  C   UNL     1       5.819   3.278  -0.083  0.00  0.00    +0.108 C 
ATOM     30  C   UNL     1       7.319   3.643  -0.079  0.00  0.00    +0.020 C 
ATOM     31  C   UNL     1       7.323   5.075   0.520  0.00  0.00    +0.020 C 
ATOM     32  C   UNL     1       6.016   5.662  -0.069  0.00  0.00    +0.108 C 
ENDBRANCH  19  26
ENDBRANCH  17  18
ENDBRANCH   1  17
TORSDOF 6
