REMARK  Name = ZINC34731734
REMARK  8 active torsions:
REMARK  status: ('A' for Active; 'I' for Inactive)
REMARK    1  A    between atoms: C_1  and  C_2
REMARK    2  A    between atoms: C_2  and  C_3
REMARK    3  A    between atoms: C_4  and  C_36
REMARK    4  A    between atoms: N_11  and  C_27
REMARK    5  A    between atoms: N_14  and  C_17
REMARK    6  A    between atoms: C_17  and  C_18
REMARK    7  A    between atoms: C_21  and  N_24
REMARK    8  A    between atoms: C_27  and  C_28
REMARK                            x       y       z     vdW  Elec       q    Type
REMARK                         _______ _______ _______ _____ _____    ______ ____
ROOT
ATOM      1  C   UNL     1       0.707  -0.490  -1.238  0.00  0.00    -0.040 C 
ATOM      2  C   UNL     1       1.986  -0.815  -1.285  0.00  0.00    -0.064 C 
ATOM      3  C   UNL     1       2.292  -1.248  -2.701  0.00  0.00    +0.073 C 
ATOM      4  C   UNL     1       0.991  -1.114  -3.433  0.00  0.00    +0.004 A 
ATOM      5  C   UNL     1       0.046  -0.670  -2.561  0.00  0.00    +0.003 A 
ATOM      6  C   UNL     1      -1.313  -0.484  -3.113  0.00  0.00    +0.078 A 
ATOM      7  C   UNL     1      -2.525  -0.013  -2.411  0.00  0.00    +0.266 A 
ATOM      8  O   UNL     1      -2.480   0.278  -1.230  0.00  0.00    -0.267 OA
ATOM      9  N   UNL     1      -3.679   0.090  -3.095  0.00  0.00    -0.251 N 
ATOM     10  C   UNL     1      -3.762  -0.224  -4.399  0.00  0.00    +0.334 A 
ATOM     11  O   UNL     1      -4.829  -0.114  -4.972  0.00  0.00    -0.246 OA
ATOM     12  N   UNL     1      -2.685  -0.657  -5.084  0.00  0.00    -0.283 N 
ATOM     13  C   UNL     1      -1.476  -0.789  -4.461  0.00  0.00    +0.098 A 
ATOM     14  S   UNL     1       0.143  -1.296  -4.978  0.00  0.00    -0.074 S 
ATOM     15  C   UNL     1       2.962  -0.763  -0.138  0.00  0.00    +0.039 C 
ENDROOT
BRANCH   1  17
ATOM     16  C   UNL     1      -0.019   1.526   0.010  0.00  0.00    +0.009 C 
ATOM     17  C   UNL     1       0.002  -0.004   0.002  0.00  0.00    +0.032 C 
ENDBRANCH   1  17
BRANCH  12  18
ATOM     18  C   UNL     1      -2.812  -0.990  -6.505  0.00  0.00    +0.162 C 
BRANCH  18  19
ATOM     19  C   UNL     1      -2.534   0.237  -7.335  0.00  0.00    -0.027 A 
ATOM     20  C   UNL     1      -3.567   1.091  -7.675  0.00  0.00    +0.007 A 
ATOM     21  C   UNL     1      -3.312   2.216  -8.436  0.00  0.00    +0.033 A 
ATOM     22  C   UNL     1      -2.023   2.488  -8.857  0.00  0.00    +0.126 A 
ATOM     23  C   UNL     1      -0.990   1.635  -8.517  0.00  0.00    +0.033 A 
ATOM     24  C   UNL     1      -1.245   0.512  -7.752  0.00  0.00    +0.007 A 
BRANCH  22  25
ATOM     25  N   UNL     1      -1.750   3.692  -9.673  0.00  0.00    +0.056 N 
ATOM     26  O   UNL     1      -2.654   4.438  -9.971  0.00  0.00    -0.126 OA
ATOM     27  O   UNL     1      -0.624   3.930 -10.042  0.00  0.00    -0.126 OA
ENDBRANCH  22  25
ENDBRANCH  18  19
ENDBRANCH  12  18
BRANCH   9  28
ATOM     28  C   UNL     1      -4.880   0.557  -2.398  0.00  0.00    +0.225 C 
BRANCH  28  29
ATOM     29  C   UNL     1      -4.969   2.058  -2.501  0.00  0.00    +0.236 C 
ATOM     30  O   UNL     1      -4.114   2.676  -3.098  0.00  0.00    -0.274 OA
ATOM     31  N   UNL     1      -6.000   2.712  -1.930  0.00  0.00    -0.300 N 
ATOM     32  C   UNL     1      -7.040   1.977  -1.198  0.00  0.00    +0.108 C 
ATOM     33  C   UNL     1      -7.177   2.580   0.203  0.00  0.00    +0.019 C 
ATOM     34  C   UNL     1      -7.436   4.084   0.084  0.00  0.00    +0.003 C 
ATOM     35  C   UNL     1      -6.251   4.753  -0.617  0.00  0.00    +0.019 C 
ATOM     36  C   UNL     1      -6.101   4.175  -2.022  0.00  0.00    +0.108 C 
ENDBRANCH  28  29
ENDBRANCH   9  28
TORSDOF 6
