REMARK  Name = ZINC36681911
REMARK  5 active torsions:
REMARK  status: ('A' for Active; 'I' for Inactive)
REMARK    1  A    between atoms: C_1  and  C_2
REMARK    2  A    between atoms: C_5  and  S_8
REMARK    3  A    between atoms: S_8  and  N_11
REMARK    4  A    between atoms: C_15  and  C_17
REMARK    5  A    between atoms: C_23  and  C_25
REMARK                            x       y       z     vdW  Elec       q    Type
REMARK                         _______ _______ _______ _____ _____    ______ ____
ROOT
ATOM      1  C   UNL     1       2.345  -4.070   2.247  0.00  0.00    +0.239 C 
ATOM      2  O   UNL     1       1.722  -3.084   1.916  0.00  0.00    -0.274 OA
ATOM      3  N   UNL     1       3.028  -4.078   3.409  0.00  0.00    -0.237 N 
ATOM      4  C   UNL     1       3.017  -2.959   4.226  0.00  0.00    +0.314 A 
ATOM      5  N   UNL     1       2.383  -1.835   3.994  0.00  0.00    -0.092 NA
ATOM      6  N   UNL     1       2.595  -1.016   4.963  0.00  0.00    -0.106 NA
ATOM      7  C   UNL     1       3.372  -1.585   5.853  0.00  0.00    +0.250 A 
ATOM      8  O   UNL     1       3.650  -2.829   5.407  0.00  0.00    -0.405 OA
ATOM      9  H   UNL     1       3.526  -4.867   3.673  0.00  0.00    +0.159 HD
ENDROOT
BRANCH   7  10
ATOM     10  C   UNL     1       3.850  -0.980   7.113  0.00  0.00    +0.041 A 
ATOM     11  C   UNL     1       4.682  -1.705   7.967  0.00  0.00    +0.033 A 
ATOM     12  C   UNL     1       5.125  -1.134   9.144  0.00  0.00    +0.043 A 
ATOM     13  C   UNL     1       4.745   0.155   9.477  0.00  0.00    +0.040 A 
ATOM     14  C   UNL     1       3.919   0.879   8.634  0.00  0.00    +0.043 A 
ATOM     15  C   UNL     1       3.475   0.321   7.452  0.00  0.00    +0.033 A 
ATOM     16 CL   UNL     1       3.448   2.494   9.061  0.00  0.00    -0.083 Cl
ATOM     17 CL   UNL     1       6.161  -2.034  10.207  0.00  0.00    -0.083 Cl
ENDBRANCH   7  10
BRANCH   1  22
ATOM     18  N   UNL     1       1.145  -5.310   0.525  0.00  0.00    -0.165 NA
ATOM     19  C   UNL     1       1.546  -5.288  -0.893  0.00  0.00    +0.110 C 
ATOM     20  C   UNL     1       2.956  -4.646  -0.897  0.00  0.00    +0.019 C 
ATOM     21  C   UNL     1       3.568  -5.231   0.403  0.00  0.00    +0.031 C 
ATOM     22  C   UNL     1       2.357  -5.287   1.358  0.00  0.00    +0.166 C 
BRANCH  18  23
ATOM     23  S   UNL     1      -0.412  -5.346   1.088  0.00  0.00    +0.062 S 
ATOM     24  O   UNL     1      -1.212  -4.694   0.111  0.00  0.00    -0.153 OA
ATOM     25  O   UNL     1      -0.364  -4.920   2.442  0.00  0.00    -0.153 OA
BRANCH  23  30
ATOM     26  C   UNL     1      -2.150 -11.124   1.162  0.00  0.00    +0.044 C 
ATOM     27  C   UNL     1      -1.716  -9.681   1.143  0.00  0.00    -0.050 A 
ATOM     28  C   UNL     1      -1.010  -9.158   2.211  0.00  0.00    +0.005 A 
ATOM     29  C   UNL     1      -0.612  -7.834   2.194  0.00  0.00    +0.029 A 
ATOM     30  C   UNL     1      -0.919  -7.034   1.109  0.00  0.00    +0.106 A 
ATOM     31  C   UNL     1      -1.623  -7.557   0.041  0.00  0.00    +0.029 A 
ATOM     32  C   UNL     1      -2.018  -8.882   0.056  0.00  0.00    +0.005 A 
ENDBRANCH  23  30
ENDBRANCH  18  23
ENDBRANCH   1  22
TORSDOF 4
