REMARK  Name = ZINC06505849
REMARK  7 active torsions:
REMARK  status: ('A' for Active; 'I' for Inactive)
REMARK    1  A    between atoms: C_3  and  C_10
REMARK    2  A    between atoms: C_5  and  N_7
REMARK    3  A    between atoms: C_11  and  C_12
REMARK    4  A    between atoms: N_14  and  C_15
REMARK    5  A    between atoms: C_15  and  N_17
REMARK    6  A    between atoms: N_17  and  N_18
REMARK    7  A    between atoms: C_19  and  C_21
REMARK                            x       y       z     vdW  Elec       q    Type
REMARK                         _______ _______ _______ _____ _____    ______ ____
ROOT
ATOM      1  C   UNL     1      -1.267   7.439   0.054  0.00  0.00    +0.242 C 
ATOM      2  O   UNL     1      -0.222   8.061   0.048  0.00  0.00    -0.270 OA
ATOM      3  N   UNL     1      -2.443   8.097   0.069  0.00  0.00    -0.263 N 
ATOM      4  H   UNL     1      -3.277   7.600   0.073  0.00  0.00    +0.157 HD
ENDROOT
BRANCH   1   6
ATOM      5  C   UNL     1      -0.070   5.317   0.031  0.00  0.00    +0.013 C 
ATOM      6  C   UNL     1      -1.247   5.976   0.046  0.00  0.00    +0.068 C 
BRANCH   5   9
ATOM      7  C   UNL     1      -1.222   1.748   0.017  0.00  0.00    +0.003 A 
ATOM      8  C   UNL     1      -1.249   3.127   0.030  0.00  0.00    +0.008 A 
ATOM      9  C   UNL     1      -0.050   3.846   0.023  0.00  0.00    -0.023 A 
ATOM     10  C   UNL     1       1.169   3.159   0.008  0.00  0.00    +0.040 A 
ATOM     11  C   UNL     1       1.179   1.781   0.000  0.00  0.00    +0.127 A 
ATOM     12  C   UNL     1      -0.013   1.076   0.008  0.00  0.00    +0.033 A 
BRANCH  11  13
ATOM     13  N   UNL     1       2.467   1.052  -0.015  0.00  0.00    +0.056 N 
ATOM     14  O   UNL     1       2.478  -0.166  -0.022  0.00  0.00    -0.126 OA
ATOM     15  O   UNL     1       3.517   1.671  -0.022  0.00  0.00    -0.126 OA
ENDBRANCH  11  13
ENDBRANCH   5   9
ENDBRANCH   1   6
BRANCH   3  16
ATOM     16  C   UNL     1      -2.462   9.444   0.076  0.00  0.00    +0.153 C 
ATOM     17  S   UNL     1      -0.991  10.320   0.068  0.00  0.00    -0.017 S 
BRANCH  16  18
ATOM     18  N   UNL     1      -3.638  10.102   0.091  0.00  0.00    -0.245 N 
ATOM     19  H   UNL     1      -3.651  11.072   0.096  0.00  0.00    +0.172 HD
BRANCH  18  20
ATOM     20  N   UNL     1      -4.841   9.385   0.097  0.00  0.00    -0.231 N 
ATOM     21  C   UNL     1      -6.018  10.043   0.112  0.00  0.00    +0.260 C 
ATOM     22  O   UNL     1      -6.034  11.259   0.119  0.00  0.00    -0.269 OA
ATOM     23  H   UNL     1      -4.828   8.415   0.092  0.00  0.00    +0.173 HD
BRANCH  21  24
ATOM     24  C   UNL     1      -7.287   9.287   0.119  0.00  0.00    +0.038 A 
ATOM     25  C   UNL     1      -7.271   7.891   0.105  0.00  0.00    +0.014 A 
ATOM     26  C   UNL     1      -8.459   7.191   0.117  0.00  0.00    +0.021 A 
ATOM     27  C   UNL     1      -9.666   7.870   0.132  0.00  0.00    +0.041 A 
ATOM     28  C   UNL     1      -9.688   9.255   0.140  0.00  0.00    +0.021 A 
ATOM     29  C   UNL     1      -8.507   9.966   0.134  0.00  0.00    +0.014 A 
ATOM     30 CL   UNL     1     -11.158   6.981   0.141  0.00  0.00    -0.084 Cl
ENDBRANCH  21  24
ENDBRANCH  18  20
ENDBRANCH  16  18
ENDBRANCH   3  16
TORSDOF 7
