REMARK  Name = ZINC40628933
REMARK  8 active torsions:
REMARK  status: ('A' for Active; 'I' for Inactive)
REMARK    1  A    between atoms: C_1  and  C_2
REMARK    2  A    between atoms: C_2  and  C_3
REMARK    3  A    between atoms: C_2  and  C_19
REMARK    4  A    between atoms: C_2  and  O_26
REMARK    5  A    between atoms: C_3  and  N_4
REMARK    6  A    between atoms: N_4  and  S_5
REMARK    7  A    between atoms: S_5  and  C_8
REMARK    8  A    between atoms: N_17  and  C_18
REMARK                            x       y       z     vdW  Elec       q    Type
REMARK                         _______ _______ _______ _____ _____    ______ ____
ROOT
ATOM      1  N   UNL     1       2.077   0.091   1.294  0.00  0.00    -0.187 NA
ATOM      2  H   UNL     1       2.443   0.527   0.509  0.00  0.00    +0.148 HD
ENDROOT
BRANCH   1   3
ATOM      3  S   UNL     1       2.960   0.027   2.693  0.00  0.00    +0.059 S 
ATOM      4  O   UNL     1       4.200   0.664   2.420  0.00  0.00    -0.153 OA
ATOM      5  O   UNL     1       2.097   0.456   3.738  0.00  0.00    -0.153 OA
BRANCH   3   6
ATOM      6  C   UNL     1       3.322  -1.669   3.003  0.00  0.00    +0.109 A 
ATOM      7  C   UNL     1       2.447  -2.434   3.755  0.00  0.00    +0.031 A 
ATOM      8  C   UNL     1       2.725  -3.764   4.002  0.00  0.00    +0.031 A 
ATOM      9  C   UNL     1       3.883  -4.333   3.495  0.00  0.00    +0.090 A 
ATOM     10  C   UNL     1       4.765  -3.563   2.737  0.00  0.00    +0.159 A 
ATOM     11  C   UNL     1       4.476  -2.230   2.490  0.00  0.00    +0.077 A 
ATOM     12  O   UNL     1       5.795  -4.367   2.379  0.00  0.00    -0.407 OA
ATOM     13  C   UNL     1       5.591  -5.596   2.879  0.00  0.00    +0.421 A 
ATOM     14  O   UNL     1       6.336  -6.546   2.735  0.00  0.00    -0.223 OA
ATOM     15  N   UNL     1       4.432  -5.613   3.567  0.00  0.00    -0.277 N 
ATOM     16  C   UNL     1       3.855  -6.766   4.263  0.00  0.00    +0.156 C 
ENDBRANCH   3   6
ENDBRANCH   1   3
BRANCH   1  17
ATOM     17  C   UNL     1       0.742  -0.511   1.242  0.00  0.00    +0.145 C 
BRANCH  17  19
ATOM     18  C   UNL     1      -0.019   1.526   0.010  0.00  0.00    +0.048 C 
ATOM     19  C   UNL     1       0.002  -0.004   0.002  0.00  0.00    +0.102 C 
BRANCH  19  20
ATOM     20  C   UNL     1      -1.412  -0.526   0.013  0.00  0.00    -0.015 A 
ATOM     21  C   UNL     1      -2.050  -0.766   1.215  0.00  0.00    +0.009 A 
ATOM     22  C   UNL     1      -3.347  -1.244   1.226  0.00  0.00    +0.039 A 
ATOM     23  C   UNL     1      -4.006  -1.482   0.032  0.00  0.00    +0.123 A 
ATOM     24  C   UNL     1      -3.366  -1.241  -1.171  0.00  0.00    +0.039 A 
ATOM     25  C   UNL     1      -2.071  -0.758  -1.180  0.00  0.00    +0.009 A 
ATOM     26  F   UNL     1      -5.274  -1.950   0.042  0.00  0.00    -0.205 F 
ENDBRANCH  19  20
BRANCH  19  27
ATOM     27  O   UNL     1       0.671  -0.465  -1.174  0.00  0.00    -0.383 OA
ATOM     28  H   UNL     1       0.722  -1.428  -1.246  0.00  0.00    +0.211 HD
ENDBRANCH  19  27
ENDBRANCH  17  19
ENDBRANCH   1  17
TORSDOF 6
