REMARK  Name = ZINC65486291
REMARK  12 active torsions:
REMARK  status: ('A' for Active; 'I' for Inactive)
REMARK    1  A    between atoms: C_1  and  C_2
REMARK    2  A    between atoms: C_3  and  C_9
REMARK    3  A    between atoms: C_4  and  C_8
REMARK    4  A    between atoms: N_5  and  C_7
REMARK    5  A    between atoms: C_9  and  C_10
REMARK    6  A    between atoms: C_9  and  N_11
REMARK    7  A    between atoms: N_14  and  C_15
REMARK    8  A    between atoms: C_15  and  C_16
REMARK    9  A    between atoms: C_16  and  C_17
REMARK   10  A    between atoms: C_16  and  N_20
REMARK   11  A    between atoms: C_17  and  C_18
REMARK   12  A    between atoms: C_17  and  C_19
REMARK                            x       y       z     vdW  Elec       q    Type
REMARK                         _______ _______ _______ _____ _____    ______ ____
ROOT
ATOM      1  N   UNL     1      -0.683   0.085  -3.825  0.00  0.00    -0.293 N 
ATOM      2  C   UNL     1      -1.155   0.790  -4.872  0.00  0.00    +0.300 C 
ATOM      3  O   UNL     1      -0.756   0.550  -5.995  0.00  0.00    -0.253 OA
ATOM      4  N   UNL     1      -2.068   1.761  -4.675  0.00  0.00    -0.301 N 
ATOM      5  H   UNL     1      -1.001   0.277  -2.929  0.00  0.00    +0.151 HD
ATOM      6  H   UNL     1      -2.386   1.952  -3.779  0.00  0.00    +0.150 HD
ENDROOT
BRANCH   1   7
ATOM      7  C   UNL     1       0.310  -0.970  -4.039  0.00  0.00    +0.105 C 
ATOM      8  C   UNL     1       1.714  -0.363  -4.010  0.00  0.00    +0.033 C 
BRANCH   7  11
ATOM      9  C   UNL     1       0.299  -4.113  -4.448  0.00  0.00    +0.068 C 
ATOM     10  C   UNL     1       0.182  -3.392  -3.130  0.00  0.00    +0.065 A 
ATOM     11  C   UNL     1       0.187  -2.005  -2.950  0.00  0.00    +0.016 A 
ATOM     12  C   UNL     1       0.062  -1.756  -1.626  0.00  0.00    +0.041 A 
ATOM     13  N   UNL     1      -0.018  -2.943  -0.990  0.00  0.00    -0.271 N 
ATOM     14  N   UNL     1       0.054  -3.955  -1.956  0.00  0.00    -0.176 NA
ATOM     15  C   UNL     1      -0.162  -3.139   0.455  0.00  0.00    +0.172 C 
ATOM     16  C   UNL     1       0.021  -0.396  -0.978  0.00  0.00    +0.065 C 
ENDBRANCH   7  11
ENDBRANCH   1   7
BRANCH   4  17
ATOM     17  C   UNL     1      -2.581   2.527  -5.813  0.00  0.00    +0.091 C 
BRANCH  17  18
ATOM     18  C   UNL     1      -3.459   3.671  -5.304  0.00  0.00    -0.048 C 
BRANCH  18  19
ATOM     19  N   UNL     1      -2.610   4.716  -4.717  0.00  0.00    +0.383 N 
ATOM     20  C   UNL     1      -1.629   5.153  -5.729  0.00  0.00    -0.078 C 
ATOM     21  C   UNL     1      -1.192   6.556  -5.391  0.00  0.00    -0.019 C 
ATOM     22  C   UNL     1       0.119   6.559  -4.582  0.00  0.00    -0.002 C 
ATOM     23  C   UNL     1       0.141   5.438  -3.524  0.00  0.00    -0.002 C 
ATOM     24  C   UNL     1      -1.184   5.284  -2.822  0.00  0.00    -0.019 C 
ATOM     25  C   UNL     1      -2.021   4.214  -3.555  0.00  0.00    -0.078 C 
ATOM     26  H   UNL     1      -3.191   5.504  -4.471  0.00  0.00    -0.081 HD
ENDBRANCH  18  19
BRANCH  18  27
ATOM     27  C   UNL     1      -4.258   4.258  -6.470  0.00  0.00    -0.029 C 
ATOM     28  C   UNL     1      -5.242   3.210  -6.992  0.00  0.00    +0.005 C 
ATOM     29  C   UNL     1      -5.030   5.489  -5.990  0.00  0.00    +0.005 C 
ENDBRANCH  18  27
ENDBRANCH  17  18
ENDBRANCH   4  17
TORSDOF 6
