REMARK  Name = ZINC60347797
REMARK  9 active torsions:
REMARK  status: ('A' for Active; 'I' for Inactive)
REMARK    1  A    between atoms: C_1  and  O_2
REMARK    2  A    between atoms: O_2  and  C_3
REMARK    3  A    between atoms: C_5  and  C_14
REMARK    4  A    between atoms: C_8  and  O_9
REMARK    5  A    between atoms: O_9  and  C_10
REMARK    6  A    between atoms: C_10  and  C_11
REMARK    7  A    between atoms: C_15  and  C_16
REMARK    8  A    between atoms: N_18  and  C_19
REMARK    9  A    between atoms: C_19  and  C_24
REMARK                            x       y       z     vdW  Elec       q    Type
REMARK                         _______ _______ _______ _____ _____    ______ ____
ROOT
ATOM      1  C   UNL     1       3.236  -0.744  -4.087  0.00  0.00    +0.013 C 
ATOM      2  C   UNL     1       3.676  -1.060  -5.324  0.00  0.00    +0.068 C 
ENDROOT
BRANCH   1   5
ATOM      3  C   UNL     1       2.100  -2.490  -0.967  0.00  0.00    +0.162 A 
ATOM      4  C   UNL     1       2.429  -1.485  -1.855  0.00  0.00    +0.057 A 
ATOM      5  C   UNL     1       2.885  -1.810  -3.138  0.00  0.00    -0.021 A 
ATOM      6  C   UNL     1       3.005  -3.153  -3.514  0.00  0.00    +0.012 A 
ATOM      7  C   UNL     1       2.675  -4.149  -2.622  0.00  0.00    +0.050 A 
ATOM      8  C   UNL     1       2.228  -3.826  -1.347  0.00  0.00    +0.163 A 
BRANCH   3  10
ATOM      9  C   UNL     1       1.549  -0.790   0.601  0.00  0.00    +0.277 C 
ATOM     10  O   UNL     1       1.656  -2.178   0.280  0.00  0.00    -0.491 OA
ENDBRANCH   3  10
BRANCH   8  11
ATOM     11  O   UNL     1       1.909  -4.813  -0.471  0.00  0.00    -0.479 OA
BRANCH  11  12
ATOM     12  C   UNL     1       2.063  -6.159  -0.925  0.00  0.00    +0.324 C 
BRANCH  12  13
ATOM     13  C   UNL     1       1.665  -7.109   0.175  0.00  0.00    +0.248 C 
ATOM     14  O   UNL     1       1.286  -6.676   1.243  0.00  0.00    -0.272 OA
ATOM     15  N   UNL     1       1.730  -8.440  -0.028  0.00  0.00    -0.327 N 
ATOM     16  H   UNL     1       2.033  -8.786  -0.882  0.00  0.00    +0.145 HD
ATOM     17  H   UNL     1       1.474  -9.051   0.680  0.00  0.00    +0.145 HD
ENDBRANCH  12  13
ENDBRANCH  11  12
ENDBRANCH   8  11
ENDBRANCH   1   5
BRANCH   2  18
ATOM     18  C   UNL     1       4.025   0.000  -6.269  0.00  0.00    +0.238 C 
ATOM     19  O   UNL     1       3.919   1.167  -5.940  0.00  0.00    -0.271 OA
ATOM     20  N   UNL     1       4.464  -0.315  -7.503  0.00  0.00    -0.302 N 
ATOM     21  H   UNL     1       4.630  -1.242  -7.737  0.00  0.00    +0.150 HD
BRANCH  20  22
ATOM     22  C   UNL     1       4.691   0.741  -8.492  0.00  0.00    +0.060 C 
ATOM     23  C   UNL     1       3.379   1.520  -8.764  0.00  0.00    +0.030 C 
ATOM     24  C   UNL     1       2.635   0.597  -9.761  0.00  0.00    +0.002 C 
ATOM     25  C   UNL     1       3.751   0.038 -10.667  0.00  0.00    +0.002 C 
ATOM     26  C   UNL     1       5.059   0.131  -9.860  0.00  0.00    +0.030 C 
BRANCH  22  27
ATOM     27  C   UNL     1       5.775   1.677  -8.024  0.00  0.00    -0.024 A 
ATOM     28  C   UNL     1       6.651   1.278  -7.032  0.00  0.00    +0.007 A 
ATOM     29  C   UNL     1       7.646   2.135  -6.602  0.00  0.00    +0.020 A 
ATOM     30  C   UNL     1       7.764   3.394  -7.163  0.00  0.00    +0.041 A 
ATOM     31  C   UNL     1       6.887   3.793  -8.156  0.00  0.00    +0.020 A 
ATOM     32  C   UNL     1       5.896   2.933  -8.589  0.00  0.00    +0.007 A 
ATOM     33 CL   UNL     1       9.013   4.472  -6.623  0.00  0.00    -0.084 Cl
ENDBRANCH  22  27
ENDBRANCH  20  22
ENDBRANCH   2  18
TORSDOF 8
