REMARK  Name = ZINC09479920
REMARK  5 active torsions:
REMARK  status: ('A' for Active; 'I' for Inactive)
REMARK    1  A    between atoms: C_1  and  C_2
REMARK    2  A    between atoms: C_8  and  C_10
REMARK    3  A    between atoms: C_10  and  C_12
REMARK    4  A    between atoms: C_10  and  S_13
REMARK    5  A    between atoms: S_13  and  C_14
REMARK                            x       y       z     vdW  Elec       q    Type
REMARK                         _______ _______ _______ _____ _____    ______ ____
ROOT
ATOM      1  S   UNL     1      -0.753   3.393   1.277  0.00  0.00    -0.073 S 
ENDROOT
BRANCH   1   2
ATOM      2  C   UNL     1       0.945   3.842   1.412  0.00  0.00    +0.197 A 
ATOM      3  N   UNL     1       1.965   3.016   1.492  0.00  0.00    -0.122 NA
ATOM      4  N   UNL     1       3.067   3.675   1.576  0.00  0.00    -0.127 NA
ATOM      5  C   UNL     1       2.812   4.971   1.565  0.00  0.00    +0.180 A 
ATOM      6  N   UNL     1       1.445   5.109   1.459  0.00  0.00    -0.275 N 
ATOM      7  C   UNL     1       0.875   6.353   1.423  0.00  0.00    +0.115 A 
ATOM      8  C   UNL     1       1.644   7.459   1.490  0.00  0.00    +0.059 A 
ATOM      9  C   UNL     1       3.044   7.349   1.598  0.00  0.00    +0.045 A 
ATOM     10  C   UNL     1       3.626   6.120   1.635  0.00  0.00    +0.087 A 
ATOM     11 CL   UNL     1       5.350   5.969   1.768  0.00  0.00    -0.080 Cl
ATOM     12 CL   UNL     1       0.904   9.029   1.443  0.00  0.00    -0.082 Cl
ENDBRANCH   1   2
BRANCH   1  13
ATOM     13  C   UNL     1      -0.729   1.579   1.267  0.00  0.00    +0.137 C 
ATOM     14  C   UNL     1      -0.013   1.086   0.008  0.00  0.00    +0.029 C 
BRANCH  13  22
ATOM     15  C   UNL     1      -2.804  -4.349   1.067  0.00  0.00    +0.007 C 
ATOM     16  C   UNL     1      -2.764  -2.976   1.742  0.00  0.00    -0.011 C 
ATOM     17  C   UNL     1      -3.795  -2.056   1.084  0.00  0.00    +0.022 C 
ATOM     18  C   UNL     1      -3.777  -0.693   1.784  0.00  0.00    +0.108 C 
ATOM     19  N   UNL     1      -2.404  -0.171   1.767  0.00  0.00    -0.301 N 
ATOM     20  C   UNL     1      -1.320  -1.015   2.287  0.00  0.00    +0.108 C 
ATOM     21  C   UNL     1      -1.367  -2.372   1.587  0.00  0.00    +0.022 C 
ATOM     22  C   UNL     1      -2.143   1.058   1.278  0.00  0.00    +0.229 C 
ATOM     23  O   UNL     1      -3.045   1.743   0.846  0.00  0.00    -0.274 OA
ENDBRANCH  13  22
ENDBRANCH   1  13
TORSDOF 3
