REMARK  Name = ZINC21230501
REMARK  5 active torsions:
REMARK  status: ('A' for Active; 'I' for Inactive)
REMARK    1  A    between atoms: C_1  and  N_2
REMARK    2  A    between atoms: N_2  and  C_3
REMARK    3  A    between atoms: N_2  and  C_4
REMARK    4  A    between atoms: C_7  and  C_10
REMARK    5  A    between atoms: C_15  and  C_25
REMARK                            x       y       z     vdW  Elec       q    Type
REMARK                         _______ _______ _______ _____ _____    ______ ____
ROOT
ATOM      1  C   UNL     1       6.548  -3.003   1.096  0.00  0.00    +0.032 C 
ATOM      2  C   UNL     1       6.060  -1.594   0.766  0.00  0.00    +0.059 C 
ATOM      3  C   UNL     1       4.548  -1.592   0.613  0.00  0.00    +0.017 C 
ATOM      4  C   UNL     1       3.790  -2.427   1.342  0.00  0.00    +0.036 C 
ATOM      5  C   UNL     1       2.282  -2.511   1.311  0.00  0.00    +0.136 C 
ATOM      6  N   UNL     1       1.665  -1.788   0.219  0.00  0.00    -0.331 N 
ATOM      7  C   UNL     1       1.759  -0.401   0.131  0.00  0.00    +0.049 A 
ATOM      8  C   UNL     1       0.645   0.409   0.283  0.00  0.00    +0.025 A 
ATOM      9  C   UNL     1       0.795   1.785   0.250  0.00  0.00    +0.002 A 
ATOM     10  C   UNL     1       2.046   2.350   0.082  0.00  0.00    +0.002 A 
ATOM     11  C   UNL     1       3.160   1.543  -0.074  0.00  0.00    +0.025 A 
ATOM     12  C   UNL     1       3.008   0.167  -0.068  0.00  0.00    +0.052 A 
ATOM     13  N   UNL     1       4.073  -0.699  -0.292  0.00  0.00    -0.316 N 
ATOM     14  C   UNL     1       4.394  -3.339   2.240  0.00  0.00    +0.163 C 
ATOM     15  O   UNL     1       3.682  -4.072   2.898  0.00  0.00    -0.292 OA
ATOM     16  C   UNL     1       5.881  -3.433   2.408  0.00  0.00    +0.088 C 
ATOM     17  H   UNL     1       1.111  -2.334  -0.558  0.00  0.00    +0.147 HD
ATOM     18  H   UNL     1       4.536  -0.624  -1.287  0.00  0.00    +0.152 HD
ENDROOT
BRANCH   5  19
ATOM     19  C   UNL     1       1.748  -1.963   2.610  0.00  0.00    -0.022 A 
ATOM     20  C   UNL     1       1.041  -2.801   3.470  0.00  0.00    +0.006 A 
ATOM     21  C   UNL     1       0.546  -2.338   4.650  0.00  0.00    +0.009 A 
ATOM     22  C   UNL     1       0.750  -0.995   5.010  0.00  0.00    -0.018 A 
ATOM     23  C   UNL     1       0.254  -0.480   6.220  0.00  0.00    +0.008 A 
ATOM     24  C   UNL     1       0.471   0.826   6.535  0.00  0.00    +0.001 A 
ATOM     25  C   UNL     1       1.178   1.664   5.675  0.00  0.00    +0.001 A 
ATOM     26  C   UNL     1       1.673   1.200   4.495  0.00  0.00    +0.008 A 
ATOM     27  C   UNL     1       1.468  -0.142   4.135  0.00  0.00    -0.018 A 
ATOM     28  C   UNL     1       1.969  -0.658   2.927  0.00  0.00    +0.014 A 
ENDBRANCH   5  19
BRANCH   1  32
ATOM     29  C   UNL     1      10.797  -2.991   1.565  0.00  0.00    +0.029 A 
ATOM     30  C   UNL     1      10.206  -3.782   0.587  0.00  0.00    +0.023 A 
ATOM     31  C   UNL     1       8.833  -3.784   0.438  0.00  0.00    +0.006 A 
ATOM     32  C   UNL     1       8.046  -2.999   1.261  0.00  0.00    -0.043 A 
ATOM     33  C   UNL     1       8.631  -2.206   2.232  0.00  0.00    +0.006 A 
ATOM     34  C   UNL     1      10.003  -2.204   2.390  0.00  0.00    +0.023 A 
BRANCH  29  36
ATOM     35  C   UNL     1      13.029  -3.710   0.763  0.00  0.00    +0.129 C 
ATOM     36  N   UNL     1      12.185  -2.988   1.718  0.00  0.00    -0.336 N 
ATOM     37  C   UNL     1      12.797  -2.262   2.834  0.00  0.00    +0.129 C 
ENDBRANCH  29  36
ENDBRANCH   1  32
TORSDOF 3
