REMARK  Name = ZINC44753136
REMARK  7 active torsions:
REMARK  status: ('A' for Active; 'I' for Inactive)
REMARK    1  A    between atoms: C_1  and  C_2
REMARK    2  A    between atoms: C_2  and  C_3
REMARK    3  A    between atoms: C_8  and  N_9
REMARK    4  A    between atoms: C_11  and  C_16
REMARK    5  A    between atoms: N_18  and  C_19
REMARK    6  A    between atoms: C_21  and  C_27
REMARK    7  A    between atoms: C_24  and  C_25
REMARK                            x       y       z     vdW  Elec       q    Type
REMARK                         _______ _______ _______ _____ _____    ______ ____
ROOT
ATOM      1  C   UNL     1       0.692  -0.832  -5.257  0.00  0.00    +0.222 C 
ATOM      2  O   UNL     1       1.520  -1.504  -4.679  0.00  0.00    -0.275 OA
ATOM      3  N   UNL     1       0.964  -0.330  -6.478  0.00  0.00    -0.285 N 
ATOM      4  H   UNL     1       0.276   0.140  -6.974  0.00  0.00    +0.155 HD
ENDROOT
BRANCH   3   5
ATOM      5  C   UNL     1       2.241  -0.485  -7.029  0.00  0.00    +0.040 A 
ATOM      6  C   UNL     1       3.337  -0.666  -6.200  0.00  0.00    +0.036 A 
ATOM      7  C   UNL     1       4.608  -0.821  -6.753  0.00  0.00    +0.041 A 
ATOM      8  C   UNL     1       4.769  -0.794  -8.140  0.00  0.00    +0.051 A 
ATOM      9  C   UNL     1       3.670  -0.614  -8.959  0.00  0.00    +0.129 A 
ATOM     10  C   UNL     1       2.408  -0.465  -8.408  0.00  0.00    +0.006 A 
ATOM     11  C   UNL     1       1.214  -0.275  -9.307  0.00  0.00    +0.048 C 
ATOM     12  F   UNL     1       3.827  -0.587 -10.301  0.00  0.00    -0.205 F 
BRANCH   7  13
ATOM     13  C   UNL     1       5.781  -1.013  -5.875  0.00  0.00    +0.242 C 
ATOM     14  O   UNL     1       5.639  -1.036  -4.668  0.00  0.00    -0.270 OA
ATOM     15  N   UNL     1       7.008  -1.163  -6.412  0.00  0.00    -0.325 N 
ATOM     16  H   UNL     1       7.122  -1.145  -7.375  0.00  0.00    +0.145 HD
ATOM     17  H   UNL     1       7.778  -1.289  -5.835  0.00  0.00    +0.145 HD
ENDBRANCH   7  13
ENDBRANCH   3   5
BRANCH   1  20
ATOM     18  N   UNL     1      -1.490  -0.295  -2.382  0.00  0.00    -0.270 N 
ATOM     19  C   UNL     1      -0.729  -1.229  -3.221  0.00  0.00    +0.127 C 
ATOM     20  C   UNL     1      -0.641  -0.558  -4.609  0.00  0.00    +0.102 C 
ATOM     21  C   UNL     1      -0.783   0.939  -4.246  0.00  0.00    +0.110 C 
ATOM     22  C   UNL     1      -1.537   0.930  -2.934  0.00  0.00    +0.221 C 
ATOM     23  O   UNL     1      -2.099   1.889  -2.450  0.00  0.00    -0.275 OA
BRANCH  18  29
ATOM     24  C   UNL     1      -1.389  -0.506   0.021  0.00  0.00    -0.026 A 
ATOM     25  C   UNL     1      -1.991  -0.839   1.220  0.00  0.00    +0.005 A 
ATOM     26  C   UNL     1      -3.291  -1.308   1.235  0.00  0.00    +0.000 A 
ATOM     27  C   UNL     1      -3.994  -1.445   0.052  0.00  0.00    +0.002 A 
ATOM     28  C   UNL     1      -3.399  -1.113  -1.149  0.00  0.00    +0.024 A 
ATOM     29  C   UNL     1      -2.094  -0.637  -1.167  0.00  0.00    +0.039 A 
BRANCH  24  31
ATOM     30  C   UNL     1       0.019   1.535   0.013  0.00  0.00    +0.009 C 
ATOM     31  C   UNL     1       0.028   0.005   0.005  0.00  0.00    +0.033 C 
ENDBRANCH  24  31
ENDBRANCH  18  29
ENDBRANCH   1  20
TORSDOF 5
