REMARK  Name = ZINC00781692
REMARK  4 active torsions:
REMARK  status: ('A' for Active; 'I' for Inactive)
REMARK    1  A    between atoms: C_1  and  O_2
REMARK    2  A    between atoms: O_2  and  C_3
REMARK    3  A    between atoms: C_6  and  C_9
REMARK    4  A    between atoms: C_14  and  C_19
REMARK                            x       y       z     vdW  Elec       q    Type
REMARK                         _______ _______ _______ _____ _____    ______ ____
ROOT
ATOM      1  C   UNL     1      -3.307   8.786   0.171  0.00  0.00    +0.136 C 
ATOM      2  C   UNL     1      -2.827   7.355   0.206  0.00  0.00    +0.036 C 
ATOM      3  C   UNL     1      -2.520   6.600  -0.863  0.00  0.00    +0.017 C 
ATOM      4  C   UNL     1      -2.045   5.168  -0.683  0.00  0.00    +0.060 C 
ATOM      5  C   UNL     1      -1.260   5.038   0.621  0.00  0.00    +0.039 C 
ATOM      6  C   UNL     1      -2.196   5.437   1.769  0.00  0.00    +0.088 C 
ATOM      7  C   UNL     1      -2.700   6.826   1.512  0.00  0.00    +0.163 C 
ATOM      8  O   UNL     1      -3.012   7.521   2.459  0.00  0.00    -0.292 OA
ATOM      9  N   UNL     1      -2.607   7.013  -2.153  0.00  0.00    -0.316 N 
ATOM     10  C   UNL     1      -2.128   8.227  -2.632  0.00  0.00    +0.052 A 
ATOM     11  C   UNL     1      -1.095   8.305  -3.549  0.00  0.00    +0.025 A 
ATOM     12  C   UNL     1      -0.698   9.545  -4.021  0.00  0.00    +0.002 A 
ATOM     13  C   UNL     1      -1.332  10.694  -3.582  0.00  0.00    +0.002 A 
ATOM     14  C   UNL     1      -2.354  10.618  -2.652  0.00  0.00    +0.025 A 
ATOM     15  C   UNL     1      -2.738   9.380  -2.162  0.00  0.00    +0.049 A 
ATOM     16  N   UNL     1      -3.683   9.262  -1.143  0.00  0.00    -0.331 N 
ATOM     17  H   UNL     1      -3.034   6.417  -2.787  0.00  0.00    +0.152 HD
ATOM     18  H   UNL     1      -4.606   9.503  -1.318  0.00  0.00    +0.147 HD
ENDROOT
BRANCH   1  22
ATOM     19  C   UNL     1      -0.196  11.296   1.683  0.00  0.00    +0.120 A 
ATOM     20  C   UNL     1      -1.408  11.211   2.353  0.00  0.00    +0.046 A 
ATOM     21  C   UNL     1      -2.412  10.399   1.862  0.00  0.00    +0.009 A 
ATOM     22  C   UNL     1      -2.210   9.671   0.704  0.00  0.00    -0.023 A 
ATOM     23  C   UNL     1      -1.002   9.750   0.037  0.00  0.00    +0.009 A 
ATOM     24  C   UNL     1       0.004  10.565   0.520  0.00  0.00    +0.046 A 
BRANCH  19  26
ATOM     25  C   UNL     1       2.013  12.133   1.421  0.00  0.00    +0.277 C 
ATOM     26  O   UNL     1       0.793  12.095   2.163  0.00  0.00    -0.495 OA
ENDBRANCH  19  26
ENDBRANCH   1  22
BRANCH   5  27
ATOM     27  C   UNL     1      -0.806   3.613   0.804  0.00  0.00    -0.006 A 
ATOM     28  C   UNL     1       0.452   3.130   0.950  0.00  0.00    +0.011 A 
ATOM     29  C   UNL     1       0.634   1.769   1.106  0.00  0.00    +0.008 A 
ATOM     30  C   UNL     1      -0.452   0.957   1.109  0.00  0.00    +0.045 A 
ATOM     31  S   UNL     1      -1.785   2.122   0.880  0.00  0.00    -0.101 S 
ENDBRANCH   5  27
TORSDOF 3
