REMARK  Name = ZINC39676452
REMARK  7 active torsions:
REMARK  status: ('A' for Active; 'I' for Inactive)
REMARK    1  A    between atoms: C_3  and  O_8
REMARK    2  A    between atoms: O_8  and  C_9
REMARK    3  A    between atoms: C_9  and  C_10
REMARK    4  A    between atoms: C_14  and  C_23
REMARK    5  A    between atoms: N_25  and  C_26
REMARK    6  A    between atoms: C_26  and  C_27
REMARK    7  A    between atoms: C_27  and  C_28
REMARK                            x       y       z     vdW  Elec       q    Type
REMARK                         _______ _______ _______ _____ _____    ______ ____
ROOT
ATOM      1  C   UNL     1       6.042   2.402  -0.009  0.00  0.00    +0.253 C 
ATOM      2  O   UNL     1       5.896   3.605  -0.056  0.00  0.00    -0.272 OA
ATOM      3  N   UNL     1       7.279   1.870  -0.059  0.00  0.00    -0.297 N 
ATOM      4  C   UNL     1       7.654   0.437  -0.021  0.00  0.00    +0.121 C 
ATOM      5  C   UNL     1       8.815   0.310  -1.033  0.00  0.00    +0.100 C 
ATOM      6  C   UNL     1       9.415   1.724  -1.121  0.00  0.00    -0.004 C 
ATOM      7  C   UNL     1       8.572   2.587  -0.170  0.00  0.00    +0.115 C 
ATOM      8  C   UNL     1       9.304   2.257  -2.545  0.00  0.00    -0.010 C 
ATOM      9  C   UNL     1       9.958   3.640  -2.620  0.00  0.00    -0.082 C 
ATOM     10  N   UNL     1      11.368   3.539  -2.222  0.00  0.00    +0.379 N 
ATOM     11  C   UNL     1      11.463   3.113  -0.820  0.00  0.00    -0.082 C 
ATOM     12  C   UNL     1      10.872   1.709  -0.670  0.00  0.00    -0.010 C 
ATOM     13  H   UNL     1      11.834   2.864  -2.809  0.00  0.00    -0.086 HD
ATOM     14  H   UNL     1      11.812   4.438  -2.330  0.00  0.00    -0.086 HD
ENDROOT
BRANCH   5  15
ATOM     15  C   UNL     1       9.844  -0.669  -0.530  0.00  0.00    +0.218 C 
ATOM     16  O   UNL     1      10.021  -0.804   0.662  0.00  0.00    -0.275 OA
ATOM     17  N   UNL     1      10.568  -1.394  -1.406  0.00  0.00    -0.315 N 
ATOM     18  H   UNL     1      10.426  -1.286  -2.359  0.00  0.00    +0.149 HD
BRANCH  17  19
ATOM     19  C   UNL     1      11.569  -2.346  -0.917  0.00  0.00    +0.109 C 
BRANCH  19  20
ATOM     20  C   UNL     1      12.242  -3.033  -2.107  0.00  0.00    +0.056 C 
BRANCH  20  21
ATOM     21  C   UNL     1      13.272  -4.012  -1.604  0.00  0.00    -0.021 A 
ATOM     22  C   UNL     1      13.029  -5.397  -1.192  0.00  0.00    +0.004 A 
ATOM     23  C   UNL     1      11.892  -6.204  -1.126  0.00  0.00    +0.030 A 
ATOM     24  C   UNL     1      12.002  -7.502  -0.680  0.00  0.00    +0.042 A 
ATOM     25  C   UNL     1      13.237  -8.010  -0.296  0.00  0.00    +0.022 A 
ATOM     26  C   UNL     1      14.368  -7.226  -0.355  0.00  0.00    +0.027 A 
ATOM     27  C   UNL     1      14.279  -5.912  -0.803  0.00  0.00    +0.047 A 
ATOM     28  N   UNL     1      15.204  -4.905  -0.972  0.00  0.00    -0.360 N 
ATOM     29  C   UNL     1      14.586  -3.783  -1.456  0.00  0.00    +0.087 A 
ATOM     30 CL   UNL     1      10.591  -8.510  -0.597  0.00  0.00    -0.084 Cl
ATOM     31  H   UNL     1      16.151  -4.980  -0.781  0.00  0.00    +0.165 HD
ENDBRANCH  20  21
ENDBRANCH  19  20
ENDBRANCH  17  19
ENDBRANCH   5  15
BRANCH   1  32
ATOM     32  C   UNL     1       4.839   1.502   0.105  0.00  0.00    +0.324 C 
BRANCH  32  33
ATOM     33  O   UNL     1       3.651   2.296   0.140  0.00  0.00    -0.483 OA
BRANCH  33  36
ATOM     34  C   UNL     1       0.076   1.667   0.384  0.00  0.00    +0.005 A 
ATOM     35  C   UNL     1       1.277   2.342   0.281  0.00  0.00    +0.046 A 
ATOM     36  C   UNL     1       2.469   1.634   0.242  0.00  0.00    +0.123 A 
ATOM     37  C   UNL     1       2.452   0.248   0.307  0.00  0.00    +0.065 A 
ATOM     38  C   UNL     1       1.248  -0.423   0.410  0.00  0.00    +0.044 A 
ATOM     39  C   UNL     1       0.060   0.287   0.449  0.00  0.00    +0.020 A 
ATOM     40 CL   UNL     1       1.226  -2.157   0.491  0.00  0.00    -0.083 Cl
ENDBRANCH  33  36
ENDBRANCH  32  33
ENDBRANCH   1  32
TORSDOF 7
