REMARK  Name = ZINC44879408
REMARK  11 active torsions:
REMARK  status: ('A' for Active; 'I' for Inactive)
REMARK    1  A    between atoms: C_1  and  C_2
REMARK    2  A    between atoms: N_7  and  C_9
REMARK    3  A    between atoms: C_9  and  C_10
REMARK    4  A    between atoms: C_13  and  C_16
REMARK    5  A    between atoms: C_16  and  N_17
REMARK    6  A    between atoms: N_17  and  S_18
REMARK    7  A    between atoms: S_18  and  C_21
REMARK    8  A    between atoms: C_24  and  S_36
REMARK    9  A    between atoms: C_25  and  C_27
REMARK   10  A    between atoms: C_32  and  C_35
REMARK   11  A    between atoms: S_36  and  C_37
REMARK                            x       y       z     vdW  Elec       q    Type
REMARK                         _______ _______ _______ _____ _____    ______ ____
ROOT
ATOM      1  S   UNL     1       1.616 -10.226   0.326  0.00  0.00    +0.059 S 
ATOM      2  O   UNL     1       0.800 -10.431  -0.819  0.00  0.00    -0.153 OA
ATOM      3  O   UNL     1       3.029 -10.374   0.291  0.00  0.00    -0.153 OA
ENDROOT
BRANCH   1   4
ATOM      4  C   UNL     1       1.026 -11.326   1.569  0.00  0.00    +0.106 A 
ATOM      5  C   UNL     1       1.870 -11.725   2.595  0.00  0.00    +0.029 A 
ATOM      6  C   UNL     1       1.421 -12.585   3.574  0.00  0.00    +0.017 A 
ATOM      7  C   UNL     1       0.114 -13.060   3.539  0.00  0.00    +0.020 A 
ATOM      8  C   UNL     1      -0.743 -12.658   2.502  0.00  0.00    +0.052 A 
ATOM      9  C   UNL     1      -0.274 -11.781   1.520  0.00  0.00    +0.042 A 
BRANCH   8  10
ATOM     10  C   UNL     1      -2.130 -13.153   2.453  0.00  0.00    +0.248 C 
ATOM     11  O   UNL     1      -2.858 -13.021   3.418  0.00  0.00    -0.270 OA
ATOM     12  N   UNL     1      -2.592 -13.752   1.337  0.00  0.00    -0.297 N 
ATOM     13  C   UNL     1      -4.006 -14.133   1.223  0.00  0.00    +0.108 C 
ATOM     14  C   UNL     1      -4.089 -15.618   0.856  0.00  0.00    +0.022 C 
ATOM     15  C   UNL     1      -3.265 -15.874  -0.408  0.00  0.00    -0.011 C 
ATOM     16  C   UNL     1      -1.799 -15.523  -0.143  0.00  0.00    +0.022 C 
ATOM     17  C   UNL     1      -1.692 -14.032   0.210  0.00  0.00    +0.108 C 
ATOM     18  C   UNL     1      -3.373 -17.350  -0.797  0.00  0.00    +0.007 C 
ENDBRANCH   8  10
BRANCH   7  19
ATOM     19  S   UNL     1      -0.462 -14.160   4.789  0.00  0.00    -0.128 S 
ATOM     20  C   UNL     1       0.972 -14.378   5.878  0.00  0.00    +0.090 C 
ENDBRANCH   7  19
ENDBRANCH   1   4
BRANCH   1  21
ATOM     21  N   UNL     1       1.315  -8.685   0.853  0.00  0.00    -0.186 NA
ATOM     22  H   UNL     1       0.690  -8.121   0.371  0.00  0.00    +0.148 HD
BRANCH  21  23
ATOM     23  C   UNL     1       1.992  -8.173   2.047  0.00  0.00    +0.141 C 
BRANCH  23  27
ATOM     24  C   UNL     1       1.575  -3.925   2.212  0.00  0.00    -0.064 A 
ATOM     25  C   UNL     1       0.630  -4.737   2.812  0.00  0.00    +0.002 A 
ATOM     26  C   UNL     1       0.765  -6.111   2.758  0.00  0.00    +0.005 A 
ATOM     27  C   UNL     1       1.845  -6.675   2.104  0.00  0.00    -0.032 A 
ATOM     28  C   UNL     1       2.789  -5.863   1.504  0.00  0.00    +0.005 A 
ATOM     29  C   UNL     1       2.651  -4.489   1.554  0.00  0.00    +0.002 A 
BRANCH  24  30
ATOM     30  C   UNL     1       1.427  -2.427   2.271  0.00  0.00    -0.043 C 
BRANCH  30  36
ATOM     31  C   UNL     1      -0.165   1.518  -0.152  0.00  0.00    +0.005 C 
ATOM     32  C   UNL     1      -0.129  -0.011  -0.143  0.00  0.00    -0.031 C 
ATOM     33  C   UNL     1      -1.560  -0.556  -0.124  0.00  0.00    -0.001 C 
ATOM     34  C   UNL     1      -1.512  -2.085  -0.037  0.00  0.00    -0.018 C 
ATOM     35  C   UNL     1      -0.719  -2.495   1.206  0.00  0.00    -0.078 C 
ATOM     36  N   UNL     1       0.647  -1.966   1.115  0.00  0.00    +0.383 N 
ATOM     37  C   UNL     1       0.614  -0.498   1.102  0.00  0.00    -0.075 C 
ATOM     38  H   UNL     1       1.080  -2.298   0.266  0.00  0.00    -0.081 HD
ENDBRANCH  30  36
ENDBRANCH  24  30
ENDBRANCH  23  27
ENDBRANCH  21  23
ENDBRANCH   1  21
TORSDOF 8
