REMARK  Name = ZINC58999900
REMARK  7 active torsions:
REMARK  status: ('A' for Active; 'I' for Inactive)
REMARK    1  A    between atoms: C_1  and  C_2
REMARK    2  A    between atoms: C_2  and  C_4
REMARK    3  A    between atoms: C_2  and  N_16
REMARK    4  A    between atoms: C_7  and  N_10
REMARK    5  A    between atoms: C_11  and  C_13
REMARK    6  A    between atoms: C_17  and  C_19
REMARK    7  A    between atoms: N_28  and  C_29
REMARK                            x       y       z     vdW  Elec       q    Type
REMARK                         _______ _______ _______ _____ _____    ______ ____
ROOT
ATOM      1  N   UNL     1       2.197  -3.013  -1.892  0.00  0.00    -0.308 N 
ATOM      2  C   UNL     1       3.457  -2.547  -1.998  0.00  0.00    +0.218 C 
ATOM      3  O   UNL     1       4.119  -2.355  -1.000  0.00  0.00    -0.275 OA
ATOM      4  H   UNL     1       1.667  -3.167  -2.690  0.00  0.00    +0.149 HD
ENDROOT
BRANCH   2   5
ATOM      5  C   UNL     1       4.043  -2.264  -3.357  0.00  0.00    +0.092 C 
ATOM      6  C   UNL     1       5.476  -1.750  -3.198  0.00  0.00    +0.016 C 
ATOM      7  C   UNL     1       6.061  -1.431  -4.576  0.00  0.00    +0.020 C 
ATOM      8  C   UNL     1       6.097  -2.709  -5.419  0.00  0.00    +0.109 C 
ATOM      9  N   UNL     1       4.748  -3.289  -5.456  0.00  0.00    -0.285 N 
ATOM     10  C   UNL     1       4.056  -3.552  -4.187  0.00  0.00    +0.122 C 
ATOM     11  C   UNL     1       4.156  -3.576  -6.633  0.00  0.00    +0.307 C 
ATOM     12  O   UNL     1       3.003  -3.961  -6.655  0.00  0.00    -0.252 OA
ATOM     13  N   UNL     1       4.842  -3.435  -7.784  0.00  0.00    -0.267 N 
ATOM     14  H   UNL     1       5.744  -3.080  -7.771  0.00  0.00    +0.156 HD
BRANCH  13  15
ATOM     15  C   UNL     1       4.251  -3.801  -9.000  0.00  0.00    +0.070 A 
ATOM     16  C   UNL     1       2.872  -3.744  -9.149  0.00  0.00    +0.026 A 
ATOM     17  C   UNL     1       2.293  -4.106 -10.350  0.00  0.00    +0.002 A 
ATOM     18  C   UNL     1       3.084  -4.526 -11.404  0.00  0.00    +0.003 A 
ATOM     19  C   UNL     1       4.458  -4.584 -11.260  0.00  0.00    +0.040 A 
ATOM     20  C   UNL     1       5.045  -4.218 -10.063  0.00  0.00    +0.145 A 
ATOM     21  F   UNL     1       6.388  -4.270  -9.925  0.00  0.00    -0.204 F 
ENDBRANCH  13  15
ENDBRANCH   2   5
BRANCH   1  23
ATOM     22  C   UNL     1       1.042  -2.000   0.011  0.00  0.00    +0.033 C 
ATOM     23  C   UNL     1       1.626  -3.288  -0.571  0.00  0.00    +0.100 C 
BRANCH  23  24
ATOM     24  C   UNL     1       0.536  -4.321  -0.700  0.00  0.00    -0.027 A 
ATOM     25  C   UNL     1      -0.333  -4.276  -1.774  0.00  0.00    +0.007 A 
ATOM     26  C   UNL     1      -1.333  -5.221  -1.895  0.00  0.00    +0.023 A 
ATOM     27  C   UNL     1      -1.465  -6.217  -0.936  0.00  0.00    +0.033 A 
ATOM     28  C   UNL     1      -0.590  -6.259   0.142  0.00  0.00    +0.023 A 
ATOM     29  C   UNL     1       0.411  -5.314   0.254  0.00  0.00    +0.007 A 
BRANCH  27  30
ATOM     30  N   UNL     1      -2.478  -7.175  -1.055  0.00  0.00    -0.285 N 
ATOM     31  C   UNL     1      -2.828  -7.638  -2.272  0.00  0.00    +0.220 C 
ATOM     32  O   UNL     1      -2.211  -7.286  -3.255  0.00  0.00    -0.275 OA
ATOM     33  H   UNL     1      -2.928  -7.507  -0.262  0.00  0.00    +0.155 HD
BRANCH  31  34
ATOM     34  C   UNL     1      -3.986  -8.592  -2.410  0.00  0.00    +0.075 C 
ATOM     35  C   UNL     1      -3.670 -10.032  -2.819  0.00  0.00    +0.013 C 
ATOM     36  C   UNL     1      -4.334  -9.081  -3.817  0.00  0.00    +0.013 C 
ENDBRANCH  31  34
ENDBRANCH  27  30
ENDBRANCH  23  24
ENDBRANCH   1  23
TORSDOF 6
