REMARK  Name = ZINC39919541
REMARK  7 active torsions:
REMARK  status: ('A' for Active; 'I' for Inactive)
REMARK    1  A    between atoms: C_1  and  C_2
REMARK    2  A    between atoms: C_5  and  O_8
REMARK    3  A    between atoms: O_8  and  C_9
REMARK    4  A    between atoms: C_9  and  C_11
REMARK    5  A    between atoms: C_9  and  C_12
REMARK    6  A    between atoms: N_14  and  N_15
REMARK    7  A    between atoms: C_16  and  C_28
REMARK                            x       y       z     vdW  Elec       q    Type
REMARK                         _______ _______ _______ _____ _____    ______ ____
ROOT
ATOM      1  C   UNL     1      -0.410  -6.166   1.155  0.00  0.00    +0.270 C 
ATOM      2  O   UNL     1      -0.811  -6.587   0.090  0.00  0.00    -0.270 OA
ATOM      3  N   UNL     1      -0.495  -6.935   2.259  0.00  0.00    -0.227 N 
ATOM      4  H   UNL     1      -0.175  -6.598   3.110  0.00  0.00    +0.173 HD
ENDROOT
BRANCH   3   5
ATOM      5  N   UNL     1      -1.046  -8.220   2.176  0.00  0.00    -0.196 N 
ATOM      6  C   UNL     1      -2.396  -8.457   2.688  0.00  0.00    +0.177 C 
ATOM      7  N   UNL     1      -3.054  -9.519   1.917  0.00  0.00    -0.324 N 
ATOM      8  C   UNL     1      -2.328 -10.666   1.615  0.00  0.00    +0.041 A 
ATOM      9  C   UNL     1      -2.938 -11.899   1.462  0.00  0.00    +0.025 A 
ATOM     10  C   UNL     1      -2.170 -13.009   1.165  0.00  0.00    +0.022 A 
ATOM     11  C   UNL     1      -0.796 -12.898   1.019  0.00  0.00    +0.042 A 
ATOM     12  C   UNL     1      -0.172 -11.675   1.168  0.00  0.00    +0.035 A 
ATOM     13  C   UNL     1      -0.935 -10.548   1.465  0.00  0.00    +0.061 A 
ATOM     14  C   UNL     1      -0.325  -9.216   1.621  0.00  0.00    +0.266 C 
ATOM     15  O   UNL     1       0.818  -9.017   1.257  0.00  0.00    -0.268 OA
ATOM     16 CL   UNL     1       0.149 -14.306   0.647  0.00  0.00    -0.084 Cl
ATOM     17  C   UNL     1      -2.314  -8.878   4.157  0.00  0.00    +0.051 C 
ATOM     18  H   UNL     1      -3.974  -9.423   1.626  0.00  0.00    +0.148 HD
ENDBRANCH   3   5
BRANCH   1  19
ATOM     19  C   UNL     1       0.182  -4.783   1.244  0.00  0.00    +0.257 C 
ATOM     20  C   UNL     1       1.662  -4.886   1.620  0.00  0.00    +0.062 C 
BRANCH  19  21
ATOM     21  O   UNL     1       0.057  -4.129  -0.021  0.00  0.00    -0.480 OA
BRANCH  21  26
ATOM     22  C   UNL     1      -0.008   1.503   0.009  0.00  0.00    +0.044 C 
ATOM     23  C   UNL     1       0.009  -0.004   0.001  0.00  0.00    -0.050 A 
ATOM     24  C   UNL     1       0.240  -0.698   1.175  0.00  0.00    +0.007 A 
ATOM     25  C   UNL     1       0.257  -2.079   1.170  0.00  0.00    +0.046 A 
ATOM     26  C   UNL     1       0.041  -2.770  -0.013  0.00  0.00    +0.122 A 
ATOM     27  C   UNL     1      -0.192  -2.072  -1.189  0.00  0.00    +0.046 A 
ATOM     28  C   UNL     1      -0.213  -0.690  -1.178  0.00  0.00    +0.007 A 
ENDBRANCH  21  26
ENDBRANCH  19  21
ENDBRANCH   1  19
TORSDOF 4
