REMARK  Name = ZINC39674759
REMARK  8 active torsions:
REMARK  status: ('A' for Active; 'I' for Inactive)
REMARK    1  A    between atoms: C_1  and  C_2
REMARK    2  A    between atoms: C_4  and  C_14
REMARK    3  A    between atoms: C_7  and  C_12
REMARK    4  A    between atoms: C_14  and  C_15
REMARK    5  A    between atoms: C_15  and  N_16
REMARK    6  A    between atoms: C_17  and  C_19
REMARK    7  A    between atoms: C_30  and  C_32
REMARK    8  A    between atoms: N_36  and  C_37
REMARK                            x       y       z     vdW  Elec       q    Type
REMARK                         _______ _______ _______ _____ _____    ______ ____
ROOT
ATOM      1  C   UNL     1       0.738  -0.532  -8.061  0.00  0.00    +0.100 C 
ATOM      2  C   UNL     1       1.036   0.968  -8.280  0.00  0.00    +0.121 C 
ATOM      3  N   UNL     1       2.498   1.028  -8.520  0.00  0.00    -0.295 N 
ATOM      4  C   UNL     1       2.783  -0.163  -9.356  0.00  0.00    +0.115 C 
ATOM      5  C   UNL     1       1.884  -1.271  -8.771  0.00  0.00    -0.004 C 
ATOM      6  C   UNL     1       1.333  -2.149  -9.891  0.00  0.00    -0.010 C 
ATOM      7  C   UNL     1       2.485  -2.918 -10.544  0.00  0.00    -0.082 C 
ATOM      8  N   UNL     1       3.160  -3.743  -9.535  0.00  0.00    +0.379 N 
ATOM      9  C   UNL     1       3.768  -2.884  -8.511  0.00  0.00    -0.082 C 
ATOM     10  C   UNL     1       2.670  -2.114  -7.772  0.00  0.00    -0.010 C 
ATOM     11  C   UNL     1       3.370   1.956  -8.078  0.00  0.00    +0.263 C 
ATOM     12  O   UNL     1       4.506   1.978  -8.514  0.00  0.00    -0.268 OA
ATOM     13  H   UNL     1       2.488  -4.358  -9.101  0.00  0.00    -0.086 HD
ATOM     14  H   UNL     1       3.879  -4.294  -9.979  0.00  0.00    -0.086 HD
ENDROOT
BRANCH  11  15
ATOM     15  C   UNL     1       2.950   2.937  -7.073  0.00  0.00    +0.104 A 
ATOM     16  C   UNL     1       1.855   2.835  -6.242  0.00  0.00    +0.032 A 
ATOM     17  C   UNL     1       1.832   3.986  -5.448  0.00  0.00    +0.020 A 
ATOM     18  C   UNL     1       2.891   4.755  -5.800  0.00  0.00    +0.086 A 
ATOM     19  N   UNL     1       3.581   4.126  -6.783  0.00  0.00    -0.346 N 
ATOM     20  C   UNL     1       4.795   4.629  -7.430  0.00  0.00    +0.149 C 
ENDBRANCH  11  15
BRANCH   1  22
ATOM     21  N   UNL     1      -0.052  -1.843  -6.117  0.00  0.00    -0.315 N 
ATOM     22  C   UNL     1       0.737  -0.857  -6.589  0.00  0.00    +0.218 C 
ATOM     23  O   UNL     1       1.446  -0.232  -5.829  0.00  0.00    -0.275 OA
ATOM     24  H   UNL     1      -0.619  -2.344  -6.725  0.00  0.00    +0.149 HD
BRANCH  21  25
ATOM     25  C   UNL     1      -0.052  -2.160  -4.687  0.00  0.00    +0.108 C 
BRANCH  25  26
ATOM     26  C   UNL     1      -1.027  -3.308  -4.419  0.00  0.00    +0.052 C 
BRANCH  26  29
ATOM     27  C   UNL     1      -3.338  -4.427  -2.441  0.00  0.00    +0.035 C 
ATOM     28  C   UNL     1      -1.844  -4.700  -2.253  0.00  0.00    +0.103 C 
ATOM     29  C   UNL     1      -1.028  -3.634  -2.948  0.00  0.00    -0.037 C 
ATOM     30  C   UNL     1      -0.296  -3.029  -1.978  0.00  0.00    +0.000 A 
ATOM     31  C   UNL     1       0.644  -1.966  -2.024  0.00  0.00    +0.028 A 
ATOM     32  C   UNL     1       1.257  -1.536  -0.870  0.00  0.00    +0.052 A 
ATOM     33  C   UNL     1       0.960  -2.150   0.419  0.00  0.00    +0.021 A 
ATOM     34  C   UNL     1       0.075  -3.163   0.524  0.00  0.00    +0.027 A 
ATOM     35  C   UNL     1      -0.606  -3.661  -0.676  0.00  0.00    +0.043 A 
ATOM     36  N   UNL     1      -1.490  -4.618  -0.832  0.00  0.00    -0.378 N 
ATOM     37  H   UNL     1      -1.851  -5.177  -0.126  0.00  0.00    +0.160 HD
BRANCH  32  38
ATOM     38  C   UNL     1       2.203  -0.463  -0.936  0.00  0.00    +0.099 C 
ATOM     39  N   UNL     1       2.954   0.388  -0.988  0.00  0.00    -0.191 NA
ENDBRANCH  32  38
ENDBRANCH  26  29
ENDBRANCH  25  26
ENDBRANCH  21  25
ENDBRANCH   1  22
TORSDOF 6
