REMARK  Name = ZINC59888102
REMARK  12 active torsions:
REMARK  status: ('A' for Active; 'I' for Inactive)
REMARK    1  A    between atoms: C_1  and  C_2
REMARK    2  A    between atoms: C_3  and  C_11
REMARK    3  A    between atoms: C_4  and  C_10
REMARK    4  A    between atoms: N_5  and  C_7
REMARK    5  A    between atoms: C_7  and  C_8
REMARK    6  A    between atoms: C_8  and  O_9
REMARK    7  A    between atoms: N_12  and  N_13
REMARK    8  A    between atoms: C_16  and  S_19
REMARK    9  A    between atoms: S_19  and  C_20
REMARK   10  A    between atoms: C_20  and  C_21
REMARK   11  A    between atoms: C_21  and  C_22
REMARK   12  A    between atoms: N_24  and  C_25
REMARK                            x       y       z     vdW  Elec       q    Type
REMARK                         _______ _______ _______ _____ _____    ______ ____
ROOT
ATOM      1  N   UNL     1      -0.094   1.332  -4.154  0.00  0.00    -0.205 N 
ATOM      2  C   UNL     1      -0.105   2.684  -4.440  0.00  0.00    +0.232 A 
ATOM      3  N   UNL     1      -0.107   3.662  -3.559  0.00  0.00    -0.186 NA
ATOM      4  C   UNL     1      -0.117   4.839  -4.193  0.00  0.00    +0.210 A 
ATOM      5  N   UNL     1      -0.121   4.626  -5.488  0.00  0.00    -0.144 NA
ATOM      6  N   UNL     1      -0.108   3.234  -5.673  0.00  0.00    -0.245 N 
ATOM      7  H   UNL     1      -0.089   0.683  -4.875  0.00  0.00    +0.177 HD
ATOM      8  H   UNL     1      -0.104   2.761  -6.520  0.00  0.00    +0.192 HD
ENDROOT
BRANCH   1  10
ATOM      9  C   UNL     1      -0.082  -0.371  -2.553  0.00  0.00    +0.141 C 
ATOM     10  N   UNL     1      -0.092   0.898  -2.822  0.00  0.00    -0.187 NA
BRANCH   9  13
ATOM     11  C   UNL     1      -0.100   1.500   0.007  0.00  0.00    +0.068 C 
ATOM     12  C   UNL     1      -0.087  -0.007  -0.002  0.00  0.00    +0.069 A 
ATOM     13  C   UNL     1      -0.080  -0.828  -1.149  0.00  0.00    +0.038 A 
ATOM     14  C   UNL     1      -0.070  -2.136  -0.716  0.00  0.00    +0.045 A 
ATOM     15  N   UNL     1      -0.071  -2.114   0.632  0.00  0.00    -0.266 N 
ATOM     16  N   UNL     1      -0.076  -0.779   1.051  0.00  0.00    -0.176 NA
ATOM     17  C   UNL     1      -0.059  -3.365  -1.589  0.00  0.00    +0.066 C 
BRANCH  15  18
ATOM     18  C   UNL     1      -0.062  -3.288   1.509  0.00  0.00    +0.171 C 
BRANCH  18  19
ATOM     19  C   UNL     1       1.383  -3.685   1.815  0.00  0.00    +0.179 C 
BRANCH  19  20
ATOM     20  O   UNL     1       1.392  -4.830   2.670  0.00  0.00    -0.393 OA
ATOM     21  H   UNL     1       2.278  -5.138   2.906  0.00  0.00    +0.209 HD
ENDBRANCH  19  20
ENDBRANCH  18  19
ENDBRANCH  15  18
ENDBRANCH   9  13
ENDBRANCH   1  10
BRANCH   4  22
ATOM     22  S   UNL     1      -0.124   6.421  -3.416  0.00  0.00    -0.084 S 
BRANCH  22  23
ATOM     23  C   UNL     1      -0.137   7.591  -4.803  0.00  0.00    +0.086 C 
BRANCH  23  24
ATOM     24  C   UNL     1      -0.144   9.022  -4.262  0.00  0.00    +0.107 C 
BRANCH  24  25
ATOM     25  C   UNL     1      -0.154   9.994  -5.414  0.00  0.00    +0.218 C 
ATOM     26  O   UNL     1      -0.156   9.582  -6.555  0.00  0.00    -0.275 OA
ATOM     27  N   UNL     1      -0.162  11.320  -5.176  0.00  0.00    -0.285 N 
ATOM     28  H   UNL     1      -0.227  11.650  -4.266  0.00  0.00    +0.155 HD
BRANCH  27  29
ATOM     29  C   UNL     1      -0.077  12.223  -6.242  0.00  0.00    +0.047 A 
ATOM     30  C   UNL     1      -0.675  11.922  -7.459  0.00  0.00    +0.024 A 
ATOM     31  C   UNL     1      -0.590  12.815  -8.509  0.00  0.00    +0.002 A 
ATOM     32  C   UNL     1       0.091  14.008  -8.351  0.00  0.00    +0.001 A 
ATOM     33  C   UNL     1       0.689  14.311  -7.142  0.00  0.00    +0.017 A 
ATOM     34  C   UNL     1       0.602  13.425  -6.085  0.00  0.00    +0.039 A 
ATOM     35 BR   UNL     1       1.413  13.844  -4.428  0.00  0.00    -0.048 Br
ENDBRANCH  27  29
ENDBRANCH  24  25
ENDBRANCH  23  24
ENDBRANCH  22  23
ENDBRANCH   4  22
TORSDOF 10
