REMARK  Name = ZINC66670585
REMARK  4 active torsions:
REMARK  status: ('A' for Active; 'I' for Inactive)
REMARK    1  A    between atoms: C_3  and  N_12
REMARK    2  A    between atoms: N_15  and  C_16
REMARK    3  A    between atoms: C_16  and  C_18
REMARK    4  A    between atoms: C_16  and  C_25
REMARK                            x       y       z     vdW  Elec       q    Type
REMARK                         _______ _______ _______ _____ _____    ______ ____
ROOT
ATOM      1  N   UNL     1       3.604   2.007  -0.022  0.00  0.00    -0.266 N 
ATOM      2  C   UNL     1       3.651   3.350  -0.117  0.00  0.00    +0.304 C 
ATOM      3  O   UNL     1       2.622   3.997  -0.104  0.00  0.00    -0.252 OA
ATOM      4  N   UNL     1       4.840   3.977  -0.227  0.00  0.00    -0.292 N 
ATOM      5  H   UNL     1       4.427   1.495   0.032  0.00  0.00    +0.156 HD
ATOM      6  H   UNL     1       5.661   3.461  -0.238  0.00  0.00    +0.151 HD
ENDROOT
BRANCH   1   9
ATOM      7  C   UNL     1       0.064   1.245   0.608  0.00  0.00    +0.022 A 
ATOM      8  C   UNL     1       1.268   1.935   0.614  0.00  0.00    +0.028 A 
ATOM      9  C   UNL     1       2.368   1.349  -0.001  0.00  0.00    +0.079 A 
ATOM     10  C   UNL     1       2.222   0.097  -0.598  0.00  0.00    +0.177 A 
ATOM     11  N   UNL     1       1.055  -0.524  -0.580  0.00  0.00    -0.235 NA
ATOM     12  C   UNL     1      -0.005   0.008  -0.003  0.00  0.00    +0.113 A 
ATOM     13  N   UNL     1       3.320  -0.507  -1.222  0.00  0.00    -0.200 N 
ATOM     14  C   UNL     1       3.508  -1.826  -1.426  0.00  0.00    +0.226 A 
ATOM     15  N   UNL     1       4.654  -1.981  -2.039  0.00  0.00    -0.222 NA
ATOM     16  C   UNL     1       5.222  -0.793  -2.242  0.00  0.00    +0.245 A 
ATOM     17  N   UNL     1       4.441   0.141  -1.765  0.00  0.00    -0.152 NA
ENDBRANCH   1   9
BRANCH   4  18
ATOM     18  C   UNL     1       4.891   5.437  -0.331  0.00  0.00    +0.108 C 
BRANCH  18  19
ATOM     19  C   UNL     1       6.227   5.930   0.163  0.00  0.00    -0.027 A 
ATOM     20  C   UNL     1       7.379   5.234  -0.153  0.00  0.00    +0.007 A 
ATOM     21  C   UNL     1       8.605   5.685   0.300  0.00  0.00    +0.020 A 
ATOM     22  C   UNL     1       8.678   6.833   1.069  0.00  0.00    +0.041 A 
ATOM     23  C   UNL     1       7.525   7.529   1.384  0.00  0.00    +0.020 A 
ATOM     24  C   UNL     1       6.300   7.080   0.926  0.00  0.00    +0.007 A 
ATOM     25 CL   UNL     1      10.217   7.399   1.638  0.00  0.00    -0.084 Cl
ENDBRANCH  18  19
BRANCH  18  26
ATOM     26  C   UNL     1       4.703   5.852  -1.792  0.00  0.00    +0.014 C 
ATOM     27  C   UNL     1       4.199   7.295  -1.963  0.00  0.00    +0.006 C 
ATOM     28  C   UNL     1       3.302   6.764  -3.094  0.00  0.00    +0.001 C 
ATOM     29  C   UNL     1       3.364   5.396  -2.394  0.00  0.00    +0.006 C 
ENDBRANCH  18  26
ENDBRANCH   4  18
TORSDOF 4
