REMARK  Name = ZINC37238532
REMARK  9 active torsions:
REMARK  status: ('A' for Active; 'I' for Inactive)
REMARK    1  A    between atoms: C_1  and  C_2
REMARK    2  A    between atoms: C_5  and  O_44
REMARK    3  A    between atoms: C_17  and  C_43
REMARK    4  A    between atoms: C_22  and  C_23
REMARK    5  A    between atoms: C_23  and  C_25
REMARK    6  A    between atoms: C_25  and  C_26
REMARK    7  A    between atoms: C_33  and  O_34
REMARK    8  A    between atoms: O_34  and  C_35
REMARK    9  A    between atoms: N_41  and  C_42
REMARK                            x       y       z     vdW  Elec       q    Type
REMARK                         _______ _______ _______ _____ _____    ______ ____
ROOT
ATOM      1  C   UNL     1      -0.668   1.935  -0.188  0.00  0.00    +0.016 C 
ATOM      2  C   UNL     1      -0.560   0.413  -0.059  0.00  0.00    -0.008 C 
ATOM      3  C   UNL     1       0.222  -0.135  -1.245  0.00  0.00    +0.014 C 
ATOM      4  C   UNL     1       1.671  -0.413  -0.855  0.00  0.00    +0.032 C 
ATOM      5  C   UNL     1       2.254   0.692   0.016  0.00  0.00    +0.119 C 
ATOM      6  C   UNL     1       1.556   0.723   1.380  0.00  0.00    +0.062 C 
ATOM      7  C   UNL     1       0.185   0.088   1.212  0.00  0.00    -0.065 C 
ATOM      8  C   UNL     1      -0.258  -0.701   2.144  0.00  0.00    -0.027 C 
ATOM      9  C   UNL     1      -1.575  -1.429   2.059  0.00  0.00    +0.031 C 
ATOM     10  C   UNL     1      -1.908  -1.568   0.571  0.00  0.00    +0.001 C 
ATOM     11  C   UNL     1      -1.980  -0.151  -0.010  0.00  0.00    +0.003 C 
ATOM     12  C   UNL     1      -2.652  -0.119  -1.369  0.00  0.00    +0.005 C 
ATOM     13  C   UNL     1      -4.046  -0.755  -1.390  0.00  0.00    +0.012 C 
ATOM     14  C   UNL     1      -4.344  -1.466  -0.098  0.00  0.00    -0.001 C 
ATOM     15  C   UNL     1      -3.136  -2.355   0.279  0.00  0.00    +0.007 C 
ATOM     16  C   UNL     1      -3.799  -3.172   1.399  0.00  0.00    +0.032 C 
ATOM     17  C   UNL     1      -5.151  -3.473   0.743  0.00  0.00    -0.019 C 
ATOM     18  C   UNL     1      -5.456  -2.491  -0.128  0.00  0.00    -0.003 C 
ATOM     19  C   UNL     1      -4.725  -0.473   1.000  0.00  0.00    +0.016 C 
ENDROOT
BRANCH  18  20
ATOM     20  C   UNL     1      -6.651  -2.413  -0.960  0.00  0.00    +0.158 C 
ATOM     21  O   UNL     1      -7.485  -3.292  -0.908  0.00  0.00    -0.292 OA
BRANCH  20  22
ATOM     22  C   UNL     1      -6.851  -1.239  -1.884  0.00  0.00    +0.069 C 
BRANCH  22  23
ATOM     23  C   UNL     1      -8.220  -1.346  -2.557  0.00  0.00    -0.027 C 
ATOM     24  C   UNL     1      -9.283  -1.490  -1.500  0.00  0.00    -0.012 A 
ATOM     25  C   UNL     1     -10.341  -2.363  -1.648  0.00  0.00    -0.040 A 
ATOM     26  C   UNL     1     -11.302  -2.465  -0.654  0.00  0.00    +0.053 A 
ATOM     27  C   UNL     1     -11.209  -1.695   0.493  0.00  0.00    +0.170 A 
ATOM     28  C   UNL     1     -10.144  -0.815   0.649  0.00  0.00    +0.208 A 
ATOM     29  C   UNL     1      -9.184  -0.715  -0.349  0.00  0.00    +0.167 A 
ATOM     30  O   UNL     1     -10.275  -0.178   1.850  0.00  0.00    -0.449 OA
ATOM     31  C   UNL     1     -11.645  -0.378   2.243  0.00  0.00    +0.467 C 
ATOM     32  O   UNL     1     -12.009  -1.612   1.596  0.00  0.00    -0.452 OA
ATOM     33  C   UNL     1     -10.481  -3.225  -2.877  0.00  0.00    +0.017 C 
ATOM     34  C   UNL     1      -9.585  -2.685  -3.993  0.00  0.00    -0.074 C 
ATOM     35  N   UNL     1      -8.228  -2.504  -3.456  0.00  0.00    +0.383 N 
ATOM     36  C   UNL     1      -7.289  -2.273  -4.562  0.00  0.00    -0.095 C 
ATOM     37  H   UNL     1      -7.953  -3.330  -2.945  0.00  0.00    -0.081 HD
BRANCH  29  38
ATOM     38  O   UNL     1      -8.140   0.144  -0.200  0.00  0.00    -0.491 OA
ATOM     39  C   UNL     1      -8.321   1.474  -0.690  0.00  0.00    +0.277 C 
ENDBRANCH  29  38
ENDBRANCH  22  23
ENDBRANCH  20  22
ENDBRANCH  18  20
BRANCH   5  40
ATOM     40  O   UNL     1       3.654   0.455   0.206  0.00  0.00    -0.391 OA
ATOM     41  H   UNL     1       4.095   1.120   0.752  0.00  0.00    +0.210 HD
ENDBRANCH   5  40
TORSDOF 5
