REMARK  Name = ZINC34763036
REMARK  18 active torsions:
REMARK  status: ('A' for Active; 'I' for Inactive)
REMARK    1  A    between atoms: C_1  and  C_2
REMARK    2  A    between atoms: C_2  and  C_3
REMARK    3  A    between atoms: C_8  and  N_9
REMARK    4  A    between atoms: N_12  and  C_13
REMARK    5  A    between atoms: N_12  and  C_36
REMARK    6  A    between atoms: C_13  and  C_14
REMARK    7  A    between atoms: N_16  and  C_17
REMARK    8  A    between atoms: N_16  and  C_29
REMARK    9  A    between atoms: C_17  and  C_18
REMARK   10  A    between atoms: C_18  and  C_19
REMARK   11  A    between atoms: C_22  and  O_27
REMARK   12  A    between atoms: C_23  and  O_25
REMARK   13  A    between atoms: O_25  and  C_26
REMARK   14  A    between atoms: O_27  and  C_28
REMARK   15  A    between atoms: C_29  and  C_30
REMARK   16  A    between atoms: C_33  and  C_35
REMARK   17  A    between atoms: C_36  and  C_37
REMARK   18  A    between atoms: C_36  and  C_38
REMARK                            x       y       z     vdW  Elec       q    Type
REMARK                         _______ _______ _______ _____ _____    ______ ____
ROOT
ATOM      1  C   UNL     1      -2.812   0.574  -6.588  0.00  0.00    +0.233 C 
ATOM      2  O   UNL     1      -2.703   1.645  -6.030  0.00  0.00    -0.274 OA
ATOM      3  N   UNL     1      -3.485   0.484  -7.752  0.00  0.00    -0.295 N 
ENDROOT
BRANCH   1   4
ATOM      4  C   UNL     1      -2.194  -0.659  -5.978  0.00  0.00    +0.205 C 
BRANCH   4   8
ATOM      5  N   UNL     1      -1.620   0.087  -2.426  0.00  0.00    -0.269 N 
ATOM      6  C   UNL     1      -2.204  -0.341  -3.563  0.00  0.00    +0.307 C 
ATOM      7  O   UNL     1      -3.344  -0.763  -3.539  0.00  0.00    -0.252 OA
ATOM      8  N   UNL     1      -1.524  -0.300  -4.726  0.00  0.00    -0.274 N 
ATOM      9  H   UNL     1      -0.736   0.485  -2.454  0.00  0.00    +0.156 HD
BRANCH   5  15
ATOM     10  C   UNL     1      -1.566  -0.154  -0.023  0.00  0.00    -0.026 A 
ATOM     11  C   UNL     1      -2.229  -0.278   1.182  0.00  0.00    +0.005 A 
ATOM     12  C   UNL     1      -3.611  -0.298   1.214  0.00  0.00    +0.000 A 
ATOM     13  C   UNL     1      -4.334  -0.195   0.039  0.00  0.00    +0.002 A 
ATOM     14  C   UNL     1      -3.677  -0.071  -1.169  0.00  0.00    +0.023 A 
ATOM     15  C   UNL     1      -2.289  -0.044  -1.203  0.00  0.00    +0.038 A 
BRANCH  10  17
ATOM     16  C   UNL     1       0.430   1.317  -0.049  0.00  0.00    +0.009 C 
ATOM     17  C   UNL     1      -0.060  -0.133  -0.056  0.00  0.00    +0.033 C 
ENDBRANCH  10  17
ENDBRANCH   5  15
BRANCH   8  18
ATOM     18  C   UNL     1      -0.116   0.101  -4.737  0.00  0.00    +0.072 C 
ATOM     19  C   UNL     1       0.719  -0.985  -5.418  0.00  0.00    +0.028 C 
ATOM     20  C   UNL     1       0.034   1.415  -5.507  0.00  0.00    +0.028 C 
ENDBRANCH   8  18
ENDBRANCH   4   8
ENDBRANCH   1   4
BRANCH   3  21
ATOM     21  C   UNL     1      -4.086   1.682  -8.344  0.00  0.00    +0.113 C 
BRANCH  21  22
ATOM     22  C   UNL     1      -3.074   2.353  -9.276  0.00  0.00    +0.054 C 
BRANCH  22  23
ATOM     23  C   UNL     1      -3.692   3.585  -9.885  0.00  0.00    -0.042 A 
ATOM     24  C   UNL     1      -4.387   3.491 -11.077  0.00  0.00    +0.007 A 
ATOM     25  C   UNL     1      -4.955   4.618 -11.640  0.00  0.00    +0.049 A 
ATOM     26  C   UNL     1      -4.829   5.846 -11.010  0.00  0.00    +0.161 A 
ATOM     27  C   UNL     1      -4.130   5.940  -9.810  0.00  0.00    +0.162 A 
ATOM     28  C   UNL     1      -3.567   4.806  -9.249  0.00  0.00    +0.053 A 
BRANCH  27  29
ATOM     29  O   UNL     1      -4.004   7.143  -9.188  0.00  0.00    -0.491 OA
ATOM     30  C   UNL     1      -3.273   7.165  -7.960  0.00  0.00    +0.277 C 
ENDBRANCH  27  29
BRANCH  26  31
ATOM     31  O   UNL     1      -5.388   6.956 -11.562  0.00  0.00    -0.491 OA
ATOM     32  C   UNL     1      -6.090   6.784 -12.795  0.00  0.00    +0.277 C 
ENDBRANCH  26  31
ENDBRANCH  22  23
ENDBRANCH  21  22
ENDBRANCH   3  21
BRANCH   3  33
ATOM     33  C   UNL     1      -3.616  -0.810  -8.425  0.00  0.00    +0.150 C 
BRANCH  33  34
ATOM     34  C   UNL     1      -4.864  -1.504  -7.941  0.00  0.00    +0.007 A 
ATOM     35  C   UNL     1      -6.122  -1.444  -8.442  0.00  0.00    +0.013 A 
ATOM     36  C   UNL     1      -7.123  -2.174  -7.829  0.00  0.00    +0.011 A 
ATOM     37  C   UNL     1      -6.816  -2.929  -6.745  0.00  0.00    -0.013 A 
ATOM     38  S   UNL     1      -5.066  -2.623  -6.566  0.00  0.00    -0.097 S 
ATOM     39  C   UNL     1      -7.717  -3.803  -5.912  0.00  0.00    +0.051 C 
ENDBRANCH  33  34
ENDBRANCH   3  33
TORSDOF 12
