REMARK  Name = ZINC01065583
REMARK  5 active torsions:
REMARK  status: ('A' for Active; 'I' for Inactive)
REMARK    1  A    between atoms: C_1  and  C_2
REMARK    2  A    between atoms: C_11  and  C_12
REMARK    3  A    between atoms: C_12  and  O_13
REMARK    4  A    between atoms: O_13  and  N_14
REMARK    5  A    between atoms: C_15  and  C_16
REMARK                            x       y       z     vdW  Elec       q    Type
REMARK                         _______ _______ _______ _____ _____    ______ ____
ROOT
ATOM      1  N   UNL     1      -3.099   6.293   2.192  0.00  0.00    -0.066 NA
ATOM      2  C   UNL     1      -3.452   6.449   3.433  0.00  0.00    +0.193 C 
ATOM      3  N   UNL     1      -4.736   6.866   3.741  0.00  0.00    -0.311 N 
ATOM      4  C   UNL     1      -5.115   7.161   5.130  0.00  0.00    +0.106 C 
ATOM      5  C   UNL     1      -5.712   8.576   5.183  0.00  0.00    +0.019 C 
ATOM      6  C   UNL     1      -6.866   8.674   4.183  0.00  0.00    +0.003 C 
ATOM      7  C   UNL     1      -6.339   8.427   2.768  0.00  0.00    +0.019 C 
ATOM      8  C   UNL     1      -5.748   7.017   2.686  0.00  0.00    +0.106 C 
ENDROOT
BRANCH   2   9
ATOM      9  C   UNL     1      -2.481   6.179   4.519  0.00  0.00    +0.191 A 
ATOM     10  C   UNL     1      -2.289   4.938   5.304  0.00  0.00    +0.191 A 
ATOM     11  N   UNL     1      -1.306   5.261   6.112  0.00  0.00    -0.033 NA
ATOM     12  O   UNL     1      -0.971   6.404   5.902  0.00  0.00    -0.240 OA
ATOM     13  N   UNL     1      -1.576   6.984   5.032  0.00  0.00    -0.044 NA
ATOM     14  N   UNL     1      -2.974   3.734   5.207  0.00  0.00    -0.339 N 
ATOM     15  H   UNL     1      -3.634   3.607   4.509  0.00  0.00    +0.144 HD
ATOM     16  H   UNL     1      -2.792   3.021   5.839  0.00  0.00    +0.144 HD
ENDBRANCH   2   9
BRANCH   1  17
ATOM     17  O   UNL     1      -1.824   5.763   1.879  0.00  0.00    -0.387 OA
BRANCH  17  18
ATOM     18  C   UNL     1      -1.570   5.647   0.478  0.00  0.00    +0.299 C 
BRANCH  18  29
ATOM     19  C   UNL     1       0.708   7.378   0.455  0.00  0.00    +0.044 C 
ATOM     20  C   UNL     1       0.894   5.896   0.251  0.00  0.00    -0.043 A 
ATOM     21  C   UNL     1       2.176   5.387   0.052  0.00  0.00    +0.004 A 
ATOM     22  C   UNL     1       2.379   4.054  -0.135  0.00  0.00    +0.009 A 
ATOM     23  C   UNL     1       1.282   3.176  -0.129  0.00  0.00    -0.017 A 
ATOM     24  C   UNL     1       1.452   1.794  -0.319  0.00  0.00    +0.008 A 
ATOM     25  C   UNL     1       0.366   0.974  -0.307  0.00  0.00    +0.001 A 
ATOM     26  C   UNL     1      -0.917   1.484  -0.114  0.00  0.00    +0.001 A 
ATOM     27  C   UNL     1      -1.119   2.816   0.078  0.00  0.00    +0.009 A 
ATOM     28  C   UNL     1      -0.022   3.694   0.073  0.00  0.00    -0.011 A 
ATOM     29  C   UNL     1      -0.192   5.076   0.263  0.00  0.00    +0.003 A 
ENDBRANCH  18  29
ENDBRANCH  17  18
ENDBRANCH   1  17
TORSDOF 4
