REMARK  Name = ZINC04279762
REMARK  9 active torsions:
REMARK  status: ('A' for Active; 'I' for Inactive)
REMARK    1  A    between atoms: C_1  and  C_2
REMARK    2  A    between atoms: C_6  and  C_8
REMARK    3  A    between atoms: C_12  and  C_31
REMARK    4  A    between atoms: C_13  and  C_28
REMARK    5  A    between atoms: C_14  and  C_18
REMARK    6  A    between atoms: C_22  and  O_26
REMARK    7  A    between atoms: C_23  and  O_24
REMARK    8  A    between atoms: O_24  and  C_25
REMARK    9  A    between atoms: O_26  and  C_27
REMARK                            x       y       z     vdW  Elec       q    Type
REMARK                         _______ _______ _______ _____ _____    ______ ____
ROOT
ATOM      1  C   UNL     1      -0.149  -3.577   2.401  0.00  0.00    +0.151 C 
ATOM      2  N   UNL     1      -0.029  -4.892   2.800  0.00  0.00    -0.269 N 
ATOM      3  C   UNL     1       0.022  -4.922   4.163  0.00  0.00    +0.209 C 
ATOM      4  N   UNL     1       0.134  -5.929   5.016  0.00  0.00    -0.221 NA
ATOM      5  C   UNL     1       0.172  -5.803   6.333  0.00  0.00    +0.052 C 
ATOM      6  C   UNL     1       0.096  -4.577   6.938  0.00  0.00    +0.062 C 
ATOM      7  C   UNL     1      -0.034  -3.367   6.030  0.00  0.00    +0.171 C 
ATOM      8  N   UNL     1      -0.065  -3.640   4.586  0.00  0.00    -0.181 N 
ATOM      9  N   UNL     1      -0.165  -2.818   3.462  0.00  0.00    -0.160 NA
ATOM     10  C   UNL     1       0.302  -7.038   7.186  0.00  0.00    +0.066 C 
ATOM     11  H   UNL     1       0.011  -5.662   2.212  0.00  0.00    +0.156 HD
ENDROOT
BRANCH   1  17
ATOM     12  C   UNL     1      -0.553   0.164  -0.877  0.00  0.00    +0.044 C 
ATOM     13  C   UNL     1      -0.432  -1.308  -0.580  0.00  0.00    -0.050 A 
ATOM     14  C   UNL     1      -0.402  -2.223  -1.618  0.00  0.00    +0.003 A 
ATOM     15  C   UNL     1      -0.290  -3.576  -1.353  0.00  0.00    +0.001 A 
ATOM     16  C   UNL     1      -0.208  -4.022  -0.050  0.00  0.00    +0.011 A 
ATOM     17  C   UNL     1      -0.237  -3.106   1.001  0.00  0.00    +0.017 A 
ATOM     18  C   UNL     1      -0.344  -1.742   0.727  0.00  0.00    +0.014 A 
ENDBRANCH   1  17
BRANCH   7  19
ATOM     19  C   UNL     1      -1.304  -2.642   6.394  0.00  0.00    +0.025 A 
ATOM     20  C   UNL     1      -2.529  -3.253   6.199  0.00  0.00    +0.010 A 
ATOM     21  C   UNL     1      -3.696  -2.591   6.532  0.00  0.00    +0.004 A 
ATOM     22  C   UNL     1      -3.643  -1.314   7.059  0.00  0.00    +0.049 A 
ATOM     23  C   UNL     1      -2.419  -0.696   7.257  0.00  0.00    +0.162 A 
ATOM     24  C   UNL     1      -1.244  -1.365   6.928  0.00  0.00    +0.167 A 
BRANCH  24  25
ATOM     25  O   UNL     1      -0.040  -0.765   7.125  0.00  0.00    -0.491 OA
ATOM     26  C   UNL     1       0.481   0.015   6.046  0.00  0.00    +0.277 C 
ENDBRANCH  24  25
BRANCH  23  27
ATOM     27  O   UNL     1      -2.366   0.560   7.776  0.00  0.00    -0.491 OA
ATOM     28  C   UNL     1      -3.611   1.183   8.095  0.00  0.00    +0.277 C 
ENDBRANCH  23  27
ENDBRANCH   7  19
BRANCH   6  29
ATOM     29  C   UNL     1       0.136  -4.445   8.335  0.00  0.00    +0.241 C 
ATOM     30  O   UNL     1       0.092  -5.437   9.043  0.00  0.00    -0.271 OA
ATOM     31  N   UNL     1       0.224  -3.221   8.894  0.00  0.00    -0.325 N 
ATOM     32  H   UNL     1       0.198  -2.430   8.335  0.00  0.00    +0.145 HD
ATOM     33  H   UNL     1       0.312  -3.133   9.856  0.00  0.00    +0.145 HD
ENDBRANCH   6  29
TORSDOF 5
