REMARK  Name = ZINC08833185
REMARK  6 active torsions:
REMARK  status: ('A' for Active; 'I' for Inactive)
REMARK    1  A    between atoms: C_10  and  C_11
REMARK    2  A    between atoms: N_16  and  C_17
REMARK    3  A    between atoms: C_17  and  N_19
REMARK    4  A    between atoms: C_20  and  C_22
REMARK    5  A    between atoms: C_25  and  N_31
REMARK    6  A    between atoms: C_26  and  N_28
REMARK                            x       y       z     vdW  Elec       q    Type
REMARK                         _______ _______ _______ _____ _____    ______ ____
ROOT
ATOM      1  C   UNL     1       6.516  -0.356  -0.047  0.00  0.00    +0.163 C 
ATOM      2  S   UNL     1       7.788   0.790  -0.047  0.00  0.00    -0.016 S 
ENDROOT
BRANCH   1   8
ATOM      3  C   UNL     1       3.660   3.274  -0.414  0.00  0.00    +0.055 A 
ATOM      4  C   UNL     1       4.934   4.042  -0.398  0.00  0.00    +0.074 A 
ATOM      5  S   UNL     1       6.096   2.758  -0.254  0.00  0.00    -0.060 S 
ATOM      6  C   UNL     1       4.956   1.386  -0.233  0.00  0.00    +0.162 A 
ATOM      7  N   UNL     1       3.769   1.970  -0.331  0.00  0.00    -0.335 N 
ATOM      8  N   UNL     1       5.237   0.057  -0.140  0.00  0.00    -0.169 NA
ATOM      9  H   UNL     1       2.866   1.341  -0.342  0.00  0.00    +0.168 HD
BRANCH   3  19
ATOM     10  C   UNL     1      -0.529   2.599  -3.299  0.00  0.00    +0.001 A 
ATOM     11  C   UNL     1       0.690   1.944  -3.220  0.00  0.00    +0.001 A 
ATOM     12  C   UNL     1       1.659   2.359  -2.322  0.00  0.00    +0.009 A 
ATOM     13  C   UNL     1       1.405   3.442  -1.484  0.00  0.00    -0.009 A 
ATOM     14  C   UNL     1       0.159   4.111  -1.557  0.00  0.00    -0.017 A 
ATOM     15  C   UNL     1      -0.807   3.671  -2.476  0.00  0.00    +0.008 A 
ATOM     16  C   UNL     1      -0.091   5.206  -0.708  0.00  0.00    +0.008 A 
ATOM     17  C   UNL     1       0.866   5.636   0.198  0.00  0.00    +0.001 A 
ATOM     18  C   UNL     1       2.090   5.020   0.305  0.00  0.00    +0.010 A 
ATOM     19  C   UNL     1       2.408   3.912  -0.518  0.00  0.00    +0.007 A 
ENDBRANCH   3  19
ENDBRANCH   1   8
BRANCH   1  20
ATOM     20  N   UNL     1       6.794  -1.671   0.045  0.00  0.00    -0.262 N 
ATOM     21  C   UNL     1       8.074  -2.085   0.138  0.00  0.00    +0.250 C 
ATOM     22  O   UNL     1       8.977  -1.271   0.138  0.00  0.00    -0.270 OA
ATOM     23  H   UNL     1       5.977  -2.408   0.044  0.00  0.00    +0.157 HD
BRANCH  21  24
ATOM     24  C   UNL     1       8.378  -3.524   0.238  0.00  0.00    +0.039 A 
ATOM     25  C   UNL     1       7.340  -4.461   0.244  0.00  0.00    +0.015 A 
ATOM     26  C   UNL     1       7.623  -5.794   0.332  0.00  0.00    +0.026 A 
ATOM     27  C   UNL     1       8.943  -6.225   0.428  0.00  0.00    +0.060 A 
ATOM     28  C   UNL     1       9.983  -5.299   0.429  0.00  0.00    +0.148 A 
ATOM     29  C   UNL     1       9.705  -3.954   0.335  0.00  0.00    +0.047 A 
BRANCH  27  30
ATOM     30  N   UNL     1       9.224  -7.583   0.523  0.00  0.00    -0.328 N 
ATOM     31  C   UNL     1       8.466  -8.207   1.638  0.00  0.00    +0.105 C 
ATOM     32  C   UNL     1       8.474  -9.713   1.274  0.00  0.00    +0.020 C 
ATOM     33  C   UNL     1       8.326  -9.697  -0.265  0.00  0.00    +0.020 C 
ATOM     34  C   UNL     1       8.803  -8.299  -0.701  0.00  0.00    +0.105 C 
ENDBRANCH  27  30
BRANCH  28  35
ATOM     35  N   UNL     1      11.386  -5.760   0.531  0.00  0.00    +0.058 N 
ATOM     36  O   UNL     1      12.361  -4.882   0.641  0.00  0.00    -0.126 OA
ATOM     37  O   UNL     1      11.658  -7.049   0.513  0.00  0.00    -0.126 OA
ENDBRANCH  28  35
ENDBRANCH  21  24
ENDBRANCH   1  20
TORSDOF 6
