REMARK  Name = ZINC58064690
REMARK  5 active torsions:
REMARK  status: ('A' for Active; 'I' for Inactive)
REMARK    1  A    between atoms: C_3  and  C_6
REMARK    2  A    between atoms: C_12  and  C_13
REMARK    3  A    between atoms: N_15  and  N_16
REMARK    4  A    between atoms: C_17  and  C_19
REMARK    5  A    between atoms: C_19  and  C_20
REMARK                            x       y       z     vdW  Elec       q    Type
REMARK                         _______ _______ _______ _____ _____    ______ ____
ROOT
ATOM      1  C   UNL     1       6.535   1.771   1.197  0.00  0.00    +0.250 C 
ATOM      2  O   UNL     1       5.801   1.762   2.162  0.00  0.00    -0.272 OA
ATOM      3  N   UNL     1       7.697   2.451   1.240  0.00  0.00    -0.233 N 
ATOM      4  H   UNL     1       8.284   2.458   0.468  0.00  0.00    +0.173 HD
ENDROOT
BRANCH   1  11
ATOM      5  C   UNL     1       3.725   1.670  -0.025  0.00  0.00    +0.254 C 
ATOM      6  O   UNL     1       4.008   2.853  -0.021  0.00  0.00    -0.269 OA
ATOM      7  N   UNL     1       4.703   0.743  -0.039  0.00  0.00    -0.285 N 
ATOM      8  C   UNL     1       4.502  -0.718  -0.051  0.00  0.00    +0.109 C 
ATOM      9  C   UNL     1       5.798  -1.291  -0.677  0.00  0.00    +0.021 C 
ATOM     10  C   UNL     1       6.875  -0.340  -0.090  0.00  0.00    +0.033 C 
ATOM     11  C   UNL     1       6.147   1.020  -0.051  0.00  0.00    +0.164 C 
BRANCH   5  14
ATOM     12  C   UNL     1      -0.016   1.352   0.009  0.00  0.00    +0.008 A 
ATOM     13  C   UNL     1       1.175   2.036   0.002  0.00  0.00    +0.021 A 
ATOM     14  C   UNL     1       2.320   1.253  -0.013  0.00  0.00    +0.074 A 
ATOM     15  S   UNL     1       1.636  -0.394  -0.016  0.00  0.00    -0.092 S 
ATOM     16  C   UNL     1       0.002  -0.004   0.002  0.00  0.00    +0.046 A 
ENDBRANCH   5  14
ENDBRANCH   1  11
BRANCH   3  17
ATOM     17  N   UNL     1       8.058   3.149   2.400  0.00  0.00    -0.234 N 
ATOM     18  C   UNL     1       9.221   3.829   2.443  0.00  0.00    +0.233 C 
ATOM     19  O   UNL     1       9.955   3.837   1.477  0.00  0.00    -0.274 OA
ATOM     20  H   UNL     1       7.472   3.142   3.172  0.00  0.00    +0.173 HD
BRANCH  18  21
ATOM     21  C   UNL     1       9.609   4.579   3.691  0.00  0.00    +0.132 C 
BRANCH  21  22
ATOM     22  C   UNL     1      10.943   5.249   3.480  0.00  0.00    -0.038 A 
ATOM     23  C   UNL     1      12.110   4.578   3.792  0.00  0.00    +0.007 A 
ATOM     24  C   UNL     1      13.333   5.191   3.598  0.00  0.00    +0.038 A 
ATOM     25  C   UNL     1      13.389   6.478   3.092  0.00  0.00    +0.123 A 
ATOM     26  C   UNL     1      12.220   7.150   2.780  0.00  0.00    +0.038 A 
ATOM     27  C   UNL     1      10.998   6.533   2.969  0.00  0.00    +0.007 A 
ATOM     28  F   UNL     1      14.585   7.079   2.903  0.00  0.00    -0.205 F 
ENDBRANCH  21  22
ENDBRANCH  18  21
ENDBRANCH   3  17
TORSDOF 5
