REMARK  Name = ZINC41271293
REMARK  6 active torsions:
REMARK  status: ('A' for Active; 'I' for Inactive)
REMARK    1  A    between atoms: C_1  and  C_2
REMARK    2  A    between atoms: C_5  and  N_26
REMARK    3  A    between atoms: C_7  and  N_8
REMARK    4  A    between atoms: C_9  and  C_11
REMARK    5  A    between atoms: N_13  and  C_14
REMARK    6  A    between atoms: C_19  and  C_22
REMARK                            x       y       z     vdW  Elec       q    Type
REMARK                         _______ _______ _______ _____ _____    ______ ____
ROOT
ATOM      1  N   UNL     1       0.025  -0.016   2.416  0.00  0.00    -0.277 N 
ATOM      2  C   UNL     1      -0.056  -0.696   3.577  0.00  0.00    +0.303 C 
ATOM      3  O   UNL     1      -0.040  -1.910   3.572  0.00  0.00    -0.265 OA
ATOM      4  H   UNL     1       0.078   0.952   2.424  0.00  0.00    +0.155 HD
ENDROOT
BRANCH   1  11
ATOM      5  C   UNL     1      -1.268   1.182   0.182  0.00  0.00    +0.045 C 
ATOM      6  C   UNL     1      -0.586  -0.159   0.085  0.00  0.00    -0.029 A 
ATOM      7  C   UNL     1      -0.571  -0.841  -1.116  0.00  0.00    +0.007 A 
ATOM      8  C   UNL     1       0.055  -2.071  -1.206  0.00  0.00    +0.033 A 
ATOM      9  C   UNL     1       0.667  -2.622  -0.095  0.00  0.00    +0.128 A 
ATOM     10  C   UNL     1       0.655  -1.946   1.108  0.00  0.00    +0.056 A 
ATOM     11  C   UNL     1       0.033  -0.706   1.201  0.00  0.00    +0.039 A 
BRANCH   9  12
ATOM     12  N   UNL     1       1.335  -3.939  -0.197  0.00  0.00    +0.056 N 
ATOM     13  O   UNL     1       1.345  -4.532  -1.250  0.00  0.00    -0.126 OA
ATOM     14  O   UNL     1       1.870  -4.422   0.774  0.00  0.00    -0.126 OA
ENDBRANCH   9  12
ENDBRANCH   1  11
BRANCH   2  15
ATOM     15  C   UNL     1      -0.167   0.044   4.869  0.00  0.00    +0.300 C 
ATOM     16  O   UNL     1      -0.183   1.257   4.874  0.00  0.00    -0.265 OA
ATOM     17  N   UNL     1      -0.248  -0.636   6.030  0.00  0.00    -0.305 N 
ATOM     18  H   UNL     1      -0.235  -1.606   6.026  0.00  0.00    +0.149 HD
BRANCH  17  19
ATOM     19  C   UNL     1      -0.356   0.090   7.298  0.00  0.00    +0.074 C 
ATOM     20  C   UNL     1       1.042   0.470   7.789  0.00  0.00    +0.022 C 
ATOM     21  C   UNL     1       1.872  -0.798   7.996  0.00  0.00    +0.002 C 
ATOM     22  C   UNL     1       1.192  -1.689   9.037  0.00  0.00    +0.012 C 
ATOM     23  C   UNL     1      -0.207  -2.069   8.547  0.00  0.00    +0.095 C 
ATOM     24  C   UNL     1      -1.037  -0.801   8.339  0.00  0.00    +0.034 C 
BRANCH  23  25
ATOM     25  C   UNL     1      -0.888  -2.960   9.588  0.00  0.00    +0.393 C 
ATOM     26  F   UNL     1      -0.991  -2.267  10.799  0.00  0.00    -0.170 F 
ATOM     27  F   UNL     1      -2.166  -3.308   9.139  0.00  0.00    -0.170 F 
ATOM     28  F   UNL     1      -0.129  -4.120   9.777  0.00  0.00    -0.170 F 
ENDBRANCH  23  25
ENDBRANCH  17  19
ENDBRANCH   2  15
TORSDOF 5
