REMARK  Name = ZINC12540712
REMARK  6 active torsions:
REMARK  status: ('A' for Active; 'I' for Inactive)
REMARK    1  A    between atoms: C_1  and  C_2
REMARK    2  A    between atoms: C_2  and  C_4
REMARK    3  A    between atoms: C_2  and  S_19
REMARK    4  A    between atoms: C_16  and  C_17
REMARK    5  A    between atoms: C_16  and  C_18
REMARK    6  A    between atoms: S_19  and  C_20
REMARK                            x       y       z     vdW  Elec       q    Type
REMARK                         _______ _______ _______ _____ _____    ______ ____
ROOT
ATOM      1  C   UNL     1      -4.163   4.413  -0.698  0.00  0.00    +0.234 C 
ATOM      2  O   UNL     1      -4.519   3.747  -1.647  0.00  0.00    -0.274 OA
ATOM      3  N   UNL     1      -3.170   3.973   0.101  0.00  0.00    -0.255 N 
ATOM      4  C   UNL     1      -2.691   2.657   0.003  0.00  0.00    +0.059 A 
ATOM      5  C   UNL     1      -3.514   1.627  -0.416  0.00  0.00    +0.025 A 
ATOM      6  C   UNL     1      -3.016   0.338  -0.491  0.00  0.00    +0.002 A 
ATOM      7  C   UNL     1      -1.698   0.082  -0.159  0.00  0.00    +0.002 A 
ATOM      8  C   UNL     1      -0.868   1.109   0.252  0.00  0.00    +0.025 A 
ATOM      9  C   UNL     1      -1.360   2.402   0.335  0.00  0.00    +0.055 A 
ATOM     10  N   UNL     1      -0.536   3.456   0.743  0.00  0.00    -0.282 N 
ATOM     11  C   UNL     1      -1.062   4.646   1.091  0.00  0.00    +0.241 C 
ATOM     12  O   UNL     1      -0.326   5.559   1.400  0.00  0.00    -0.273 OA
ATOM     13  C   UNL     1      -2.554   4.856   1.102  0.00  0.00    +0.113 C 
ATOM     14  C   UNL     1      -3.108   4.522   2.489  0.00  0.00    +0.042 C 
ATOM     15  C   UNL     1      -2.868   6.314   0.761  0.00  0.00    +0.042 C 
ATOM     16  H   UNL     1       0.425   3.329   0.777  0.00  0.00    +0.155 HD
ENDROOT
BRANCH   1  18
ATOM     17  C   UNL     1      -5.596   5.640   0.912  0.00  0.00    +0.029 C 
ATOM     18  C   UNL     1      -4.832   5.732  -0.410  0.00  0.00    +0.137 C 
BRANCH  18  19
ATOM     19  S   UNL     1      -5.990   6.127  -1.750  0.00  0.00    -0.075 S 
BRANCH  19  20
ATOM     20  C   UNL     1      -6.571   7.742  -1.349  0.00  0.00    +0.174 A 
ATOM     21  N   UNL     1      -6.206   8.445  -0.300  0.00  0.00    -0.229 NA
ATOM     22  C   UNL     1      -6.838   9.624  -0.300  0.00  0.00    +0.139 A 
ATOM     23  C   UNL     1      -7.646   9.666  -1.413  0.00  0.00    +0.067 A 
ATOM     24  N   UNL     1      -7.464   8.462  -2.078  0.00  0.00    -0.295 N 
ATOM     25  C   UNL     1      -8.155   8.209  -3.239  0.00  0.00    +0.094 A 
ATOM     26  C   UNL     1      -9.001   9.124  -3.744  0.00  0.00    +0.018 A 
ATOM     27  C   UNL     1      -9.199  10.358  -3.090  0.00  0.00    +0.003 A 
ATOM     28  C   UNL     1      -8.532  10.630  -1.939  0.00  0.00    +0.028 A 
ENDBRANCH  19  20
ENDBRANCH  18  19
ENDBRANCH   1  18
TORSDOF 3
