REMARK  Name = ZINC45513102
REMARK  10 active torsions:
REMARK  status: ('A' for Active; 'I' for Inactive)
REMARK    1  A    between atoms: C_1  and  C_2
REMARK    2  A    between atoms: C_2  and  C_3
REMARK    3  A    between atoms: C_2  and  C_4
REMARK    4  A    between atoms: C_2  and  N_5
REMARK    5  A    between atoms: C_6  and  C_8
REMARK    6  A    between atoms: C_8  and  N_9
REMARK    7  A    between atoms: N_9  and  C_10
REMARK    8  A    between atoms: C_11  and  C_13
REMARK    9  A    between atoms: C_13  and  N_14
REMARK   10  A    between atoms: C_17  and  N_20
REMARK                            x       y       z     vdW  Elec       q    Type
REMARK                         _______ _______ _______ _____ _____    ______ ____
ROOT
ATOM      1  N   UNL     1       5.780   2.894  -3.954  0.00  0.00    +0.386 N 
ATOM      2  C   UNL     1       5.001   3.873  -3.187  0.00  0.00    -0.076 C 
ATOM      3  C   UNL     1       4.970   5.206  -3.938  0.00  0.00    +0.006 C 
ATOM      4  C   UNL     1       6.402   5.718  -4.118  0.00  0.00    +0.089 C 
ATOM      5  C   UNL     1       7.224   4.657  -4.854  0.00  0.00    +0.006 C 
ATOM      6  C   UNL     1       7.172   3.344  -4.069  0.00  0.00    -0.076 C 
ATOM      7  H   UNL     1       5.381   2.798  -4.876  0.00  0.00    -0.081 HD
ENDROOT
BRANCH   4   8
ATOM      8  N   UNL     1       6.384   6.955  -4.902  0.00  0.00    -0.289 N 
ATOM      9  C   UNL     1       6.860   8.195  -4.481  0.00  0.00    +0.070 A 
ATOM     10  C   UNL     1       7.448   8.639  -3.306  0.00  0.00    +0.028 A 
ATOM     11  C   UNL     1       7.822   9.962  -3.182  0.00  0.00    +0.002 A 
ATOM     12  C   UNL     1       7.613  10.848  -4.226  0.00  0.00    +0.002 A 
ATOM     13  C   UNL     1       7.027  10.415  -5.399  0.00  0.00    +0.028 A 
ATOM     14  C   UNL     1       6.649   9.088  -5.533  0.00  0.00    +0.067 A 
ATOM     15  N   UNL     1       6.051   8.363  -6.562  0.00  0.00    -0.306 N 
ATOM     16  H   UNL     1       5.786   8.717  -7.425  0.00  0.00    +0.170 HD
ATOM     17  C   UNL     1       5.911   7.087  -6.156  0.00  0.00    +0.328 A 
ATOM     18  O   UNL     1       5.427   6.189  -6.820  0.00  0.00    -0.247 OA
ENDBRANCH   4   8
BRANCH   1  19
ATOM     19  C   UNL     1       5.742   1.595  -3.268  0.00  0.00    +0.019 C 
BRANCH  19  22
ATOM     20  N   UNL     1       4.051  -0.111  -2.677  0.00  0.00    -0.297 N 
ATOM     21  C   UNL     1       5.125  -0.892  -2.057  0.00  0.00    +0.132 C 
ATOM     22  C   UNL     1       4.328   1.073  -3.257  0.00  0.00    +0.199 C 
ATOM     23  O   UNL     1       3.439   1.720  -3.770  0.00  0.00    -0.278 OA
BRANCH  20  24
ATOM     24  C   UNL     1       2.677  -0.618  -2.667  0.00  0.00    +0.203 C 
BRANCH  24  26
ATOM     25  N   UNL     1       0.688  -0.476  -1.203  0.00  0.00    -0.309 N 
ATOM     26  C   UNL     1       1.972  -0.132  -1.427  0.00  0.00    +0.231 C 
ATOM     27  O   UNL     1       2.559   0.569  -0.630  0.00  0.00    -0.274 OA
ATOM     28  H   UNL     1       0.218  -1.037  -1.840  0.00  0.00    +0.149 HD
BRANCH  25  30
ATOM     29  C   UNL     1      -0.019   1.526   0.010  0.00  0.00    +0.031 C 
ATOM     30  C   UNL     1       0.002  -0.004   0.002  0.00  0.00    +0.026 C 
ATOM     31  C   UNL     1       0.742  -0.511   1.242  0.00  0.00    +0.031 C 
ATOM     32  C   UNL     1      -1.433  -0.534   0.013  0.00  0.00    +0.031 C 
ENDBRANCH  25  30
ENDBRANCH  24  26
ENDBRANCH  20  24
ENDBRANCH  19  22
ENDBRANCH   1  19
TORSDOF 6
