REMARK  Name = ZINC10152143
REMARK  5 active torsions:
REMARK  status: ('A' for Active; 'I' for Inactive)
REMARK    1  A    between atoms: C_10  and  N_11
REMARK    2  A    between atoms: N_11  and  C_12
REMARK    3  A    between atoms: N_16  and  C_20
REMARK    4  A    between atoms: C_20  and  C_21
REMARK    5  A    between atoms: C_21  and  N_22
REMARK                            x       y       z     vdW  Elec       q    Type
REMARK                         _______ _______ _______ _____ _____    ______ ____
ROOT
ATOM      1  C   UNL     1      -6.717   1.046   1.474  0.00  0.00    +0.225 C 
ATOM      2  C   UNL     1      -5.332   1.677   1.484  0.00  0.00    +0.254 C 
ATOM      3  O   UNL     1      -5.168   2.878   1.506  0.00  0.00    -0.272 OA
ATOM      4  N   UNL     1      -4.321   0.826   1.462  0.00  0.00    -0.229 N 
ATOM      5  C   UNL     1      -4.479  -0.511   1.442  0.00  0.00    +0.283 C 
ATOM      6  O   UNL     1      -3.618  -1.368   1.426  0.00  0.00    -0.262 OA
ATOM      7  S   UNL     1      -6.253  -0.731   1.446  0.00  0.00    -0.035 S 
ENDROOT
BRANCH   1   8
ATOM      8  N   UNL     1      -7.460   1.383   2.691  0.00  0.00    -0.324 N 
ATOM      9  H   UNL     1      -7.016   1.358   3.553  0.00  0.00    +0.148 HD
BRANCH   8  19
ATOM     10  C   UNL     1     -10.883   3.096   5.980  0.00  0.00    +0.001 A 
ATOM     11  C   UNL     1      -9.538   2.744   6.083  0.00  0.00    +0.001 A 
ATOM     12  C   UNL     1      -8.845   2.301   4.998  0.00  0.00    +0.010 A 
ATOM     13  C   UNL     1      -9.491   2.196   3.756  0.00  0.00    +0.003 A 
ATOM     14  C   UNL     1     -10.857   2.553   3.650  0.00  0.00    -0.016 A 
ATOM     15  C   UNL     1     -11.541   3.007   4.792  0.00  0.00    +0.008 A 
ATOM     16  C   UNL     1     -11.505   2.447   2.408  0.00  0.00    +0.008 A 
ATOM     17  C   UNL     1     -10.819   2.004   1.318  0.00  0.00    +0.002 A 
ATOM     18  C   UNL     1      -9.475   1.657   1.408  0.00  0.00    +0.023 A 
ATOM     19  C   UNL     1      -8.804   1.740   2.610  0.00  0.00    +0.036 A 
ENDBRANCH   8  19
ENDBRANCH   1   8
BRANCH   4  20
ATOM     20  C   UNL     1      -2.958   1.364   1.466  0.00  0.00    +0.137 C 
BRANCH  20  21
ATOM     21  C   UNL     1      -2.489   1.574   0.025  0.00  0.00    +0.136 C 
BRANCH  21  22
ATOM     22  N   UNL     1      -1.127   2.112   0.028  0.00  0.00    -0.233 N 
ATOM     23  C   UNL     1      -0.011   1.361   0.013  0.00  0.00    +0.254 C 
ATOM     24  O   UNL     1       0.026   0.147  -0.006  0.00  0.00    -0.270 OA
ATOM     25  C   UNL     1       1.163   2.259   0.016  0.00  0.00    +0.049 A 
ATOM     26  C   UNL     1       2.534   2.060   0.000  0.00  0.00    +0.014 A 
ATOM     27  C   UNL     1       3.387   3.153   0.010  0.00  0.00    +0.001 A 
ATOM     28  C   UNL     1       2.879   4.438   0.034  0.00  0.00    +0.001 A 
ATOM     29  C   UNL     1       1.510   4.652   0.049  0.00  0.00    +0.014 A 
ATOM     30  C   UNL     1       0.645   3.570   0.040  0.00  0.00    +0.049 A 
ATOM     31  C   UNL     1      -0.826   3.423   0.051  0.00  0.00    +0.254 C 
ATOM     32  O   UNL     1      -1.629   4.334   0.072  0.00  0.00    -0.270 OA
ENDBRANCH  21  22
ENDBRANCH  20  21
ENDBRANCH   4  20
TORSDOF 5
