REMARK  Name = ZINC39711484
REMARK  11 active torsions:
REMARK  status: ('A' for Active; 'I' for Inactive)
REMARK    1  A    between atoms: C_1  and  C_2
REMARK    2  A    between atoms: C_2  and  O_3
REMARK    3  A    between atoms: O_3  and  C_4
REMARK    4  A    between atoms: C_11  and  C_16
REMARK    5  A    between atoms: C_16  and  C_18
REMARK    6  A    between atoms: C_16  and  N_28
REMARK    7  A    between atoms: N_23  and  C_24
REMARK    8  A    between atoms: C_24  and  C_25
REMARK    9  A    between atoms: C_24  and  C_26
REMARK   10  A    between atoms: C_24  and  C_27
REMARK   11  A    between atoms: N_31  and  C_34
REMARK                            x       y       z     vdW  Elec       q    Type
REMARK                         _______ _______ _______ _____ _____    ______ ____
ROOT
ATOM      1  C   UNL     1       1.923  -6.067   5.412  0.00  0.00    -0.009 C 
ENDROOT
BRANCH   1   9
ATOM      2  C   UNL     1      -0.438  -9.857   1.651  0.00  0.00    +0.121 A 
ATOM      3  C   UNL     1       0.820 -10.359   1.296  0.00  0.00    +0.047 A 
ATOM      4  C   UNL     1       1.979  -9.743   1.645  0.00  0.00    +0.027 A 
ATOM      5  C   UNL     1       1.958  -8.551   2.394  0.00  0.00    +0.041 A 
ATOM      6  N   UNL     1       3.104  -7.957   2.729  0.00  0.00    -0.285 N 
ATOM      7  C   UNL     1       3.158  -6.837   3.430  0.00  0.00    +0.223 C 
ATOM      8  O   UNL     1       4.234  -6.341   3.706  0.00  0.00    -0.275 OA
ATOM      9  C   UNL     1       1.878  -6.175   3.887  0.00  0.00    +0.088 C 
ATOM     10  C   UNL     1       0.572  -6.846   3.508  0.00  0.00    -0.006 C 
ATOM     11  C   UNL     1       0.649  -7.998   2.782  0.00  0.00    -0.004 A 
ATOM     12  C   UNL     1      -0.562  -8.707   2.369  0.00  0.00    +0.055 A 
ATOM     13  H   UNL     1       3.937  -8.366   2.446  0.00  0.00    +0.155 HD
BRANCH   2  14
ATOM     14  O   UNL     1      -1.556 -10.527   1.266  0.00  0.00    -0.492 OA
BRANCH  14  16
ATOM     15  C   UNL     1      -2.728 -12.337   0.175  0.00  0.00    +0.048 C 
ATOM     16  C   UNL     1      -1.366 -11.728   0.515  0.00  0.00    +0.225 C 
ENDBRANCH  14  16
ENDBRANCH   2  14
ENDBRANCH   1   9
BRANCH   1  17
ATOM     17  N   UNL     1       2.325  -7.359   5.983  0.00  0.00    +0.387 N 
ATOM     18  C   UNL     1       1.839  -7.454   7.365  0.00  0.00    -0.059 C 
ATOM     19  C   UNL     1       2.157  -8.845   7.923  0.00  0.00    +0.086 C 
ATOM     20  N   UNL     1       3.599  -9.091   7.768  0.00  0.00    -0.331 N 
ATOM     21  C   UNL     1       4.204  -8.861   6.447  0.00  0.00    +0.086 C 
ATOM     22  C   UNL     1       3.789  -7.469   5.959  0.00  0.00    -0.059 C 
ATOM     23  H   UNL     1       1.924  -8.106   5.436  0.00  0.00    -0.081 HD
BRANCH  20  24
ATOM     24  C   UNL     1       4.374  -9.531   8.847  0.00  0.00    +0.065 A 
ATOM     25  C   UNL     1       4.537 -10.890   9.078  0.00  0.00    +0.026 A 
ATOM     26  C   UNL     1       5.303 -11.321  10.144  0.00  0.00    +0.002 A 
ATOM     27  C   UNL     1       5.907 -10.402  10.981  0.00  0.00    +0.003 A 
ATOM     28  C   UNL     1       5.747  -9.046  10.755  0.00  0.00    +0.040 A 
ATOM     29  C   UNL     1       4.987  -8.607   9.687  0.00  0.00    +0.144 A 
ATOM     30  F   UNL     1       4.836  -7.284   9.462  0.00  0.00    -0.204 F 
ENDBRANCH  20  24
ENDBRANCH   1  17
BRANCH   1  31
ATOM     31  C   UNL     1       0.538  -5.686   5.938  0.00  0.00    +0.205 C 
ATOM     32  N   UNL     1      -0.472  -6.640   5.461  0.00  0.00    -0.152 NA
ATOM     33  N   UNL     1      -1.300  -6.035   4.777  0.00  0.00    -0.070 NA
ATOM     34  N   UNL     1      -1.026  -4.672   4.672  0.00  0.00    -0.179 N 
ATOM     35  N   UNL     1       0.115  -4.384   5.380  0.00  0.00    -0.183 NA
ATOM     36  H   UNL     1      -1.558  -4.028   4.178  0.00  0.00    +0.191 HD
BRANCH  35  37
ATOM     37  C   UNL     1       1.152  -3.825   4.503  0.00  0.00    +0.035 C 
ATOM     38  C   UNL     1       0.959  -4.355   3.081  0.00  0.00    +0.029 C 
ATOM     39  C   UNL     1       1.046  -2.298   4.497  0.00  0.00    +0.029 C 
ATOM     40  C   UNL     1       2.532  -4.238   5.018  0.00  0.00    +0.029 C 
ENDBRANCH  35  37
ENDBRANCH   1  31
TORSDOF 7
