REMARK  Name = ZINC39921237
REMARK  3 active torsions:
REMARK  status: ('A' for Active; 'I' for Inactive)
REMARK    1  A    between atoms: C_5  and  C_7
REMARK    2  A    between atoms: C_22  and  N_26
REMARK    3  A    between atoms: C_23  and  C_24
REMARK                            x       y       z     vdW  Elec       q    Type
REMARK                         _______ _______ _______ _____ _____    ______ ____
ROOT
ATOM      1  C   UNL     1       1.229  -2.186  -0.022  0.00  0.00    +0.085 C 
ATOM      2  C   UNL     1       0.528  -2.712   1.235  0.00  0.00    +0.154 C 
ATOM      3  C   UNL     1      -0.958  -2.532   0.974  0.00  0.00    +0.129 C 
ATOM      4  C   UNL     1      -1.682  -1.737   1.850  0.00  0.00    +0.035 A 
ATOM      5  C   UNL     1      -3.068  -1.538   1.684  0.00  0.00    +0.013 A 
ATOM      6  C   UNL     1      -3.746  -0.756   2.567  0.00  0.00    +0.001 A 
ATOM      7  C   UNL     1      -3.098  -0.144   3.637  0.00  0.00    +0.002 A 
ATOM      8  C   UNL     1      -1.761  -0.296   3.848  0.00  0.00    +0.024 A 
ATOM      9  C   UNL     1      -0.997  -1.088   2.975  0.00  0.00    +0.044 A 
ATOM     10  N   UNL     1       0.318  -1.230   3.178  0.00  0.00    -0.284 N 
ATOM     11  C   UNL     1       1.119  -1.979   2.418  0.00  0.00    +0.229 C 
ATOM     12  O   UNL     1       2.309  -2.070   2.659  0.00  0.00    -0.275 OA
ATOM     13  O   UNL     1      -1.496  -3.132  -0.090  0.00  0.00    -0.444 OA
ATOM     14  C   UNL     1      -0.765  -3.114  -1.230  0.00  0.00    +0.198 C 
ATOM     15  C   UNL     1       0.516  -2.689  -1.247  0.00  0.00    +0.095 C 
ATOM     16  H   UNL     1       0.717  -0.766   3.930  0.00  0.00    +0.155 HD
ENDROOT
BRANCH   1  21
ATOM     17  C   UNL     1      -0.017   1.378   0.010  0.00  0.00    +0.000 A 
ATOM     18  C   UNL     1       1.171   2.086   0.002  0.00  0.00    +0.001 A 
ATOM     19  C   UNL     1       2.377   1.412  -0.013  0.00  0.00    +0.020 A 
ATOM     20  C   UNL     1       2.397   0.029  -0.021  0.00  0.00    +0.045 A 
ATOM     21  C   UNL     1       1.208  -0.679  -0.013  0.00  0.00    -0.020 A 
ATOM     22  C   UNL     1       0.002  -0.004   0.002  0.00  0.00    +0.006 A 
ATOM     23 CL   UNL     1       3.912  -0.818  -0.041  0.00  0.00    -0.083 Cl
ENDBRANCH   1  21
BRANCH  14  24
ATOM     24  N   UNL     1      -1.343  -3.541  -2.400  0.00  0.00    -0.328 N 
ATOM     25  H   UNL     1      -2.262  -3.849  -2.402  0.00  0.00    +0.145 HD
ATOM     26  H   UNL     1      -0.831  -3.534  -3.224  0.00  0.00    +0.145 HD
ENDBRANCH  14  24
BRANCH  15  27
ATOM     27  C   UNL     1       1.228  -2.717  -2.489  0.00  0.00    +0.100 C 
ATOM     28  N   UNL     1       1.793  -2.740  -3.475  0.00  0.00    -0.191 NA
ENDBRANCH  15  27
TORSDOF 3
