REMARK  Name = ZINC16256048
REMARK  11 active torsions:
REMARK  status: ('A' for Active; 'I' for Inactive)
REMARK    1  A    between atoms: C_1  and  C_2
REMARK    2  A    between atoms: C_2  and  C_4
REMARK    3  A    between atoms: C_2  and  N_14
REMARK    4  A    between atoms: C_7  and  C_10
REMARK    5  A    between atoms: C_10  and  C_11
REMARK    6  A    between atoms: C_11  and  C_12
REMARK    7  A    between atoms: C_11  and  C_13
REMARK    8  A    between atoms: C_15  and  C_17
REMARK    9  A    between atoms: C_17  and  N_18
REMARK   10  A    between atoms: C_21  and  C_25
REMARK   11  A    between atoms: C_21  and  C_26
REMARK                            x       y       z     vdW  Elec       q    Type
REMARK                         _______ _______ _______ _____ _____    ______ ____
ROOT
ATOM      1  C   UNL     1       2.736  -1.073  -2.455  0.00  0.00    +0.213 C 
ENDROOT
BRANCH   1   2
ATOM      2  N   UNL     1       4.181  -1.104  -2.214  0.00  0.00    -0.215 N 
ATOM      3  C   UNL     1       5.010  -0.068  -2.449  0.00  0.00    +0.251 C 
ATOM      4  O   UNL     1       4.713   1.024  -2.883  0.00  0.00    -0.272 OA
ATOM      5  C   UNL     1       6.392  -0.552  -2.057  0.00  0.00    +0.135 C 
ATOM      6  N   UNL     1       6.160  -1.934  -1.605  0.00  0.00    -0.281 N 
ATOM      7  C   UNL     1       4.840  -2.163  -1.729  0.00  0.00    +0.310 C 
ATOM      8  O   UNL     1       4.306  -3.214  -1.436  0.00  0.00    -0.252 OA
ATOM      9  C   UNL     1       7.332  -0.532  -3.265  0.00  0.00    +0.047 C 
ATOM     10  H   UNL     1       6.827  -2.557  -1.278  0.00  0.00    +0.152 HD
BRANCH   5  11
ATOM     11  C   UNL     1       6.949   0.287  -0.936  0.00  0.00    -0.014 A 
ATOM     12  C   UNL     1       6.578   1.613  -0.815  0.00  0.00    +0.008 A 
ATOM     13  C   UNL     1       7.089   2.384   0.212  0.00  0.00    +0.022 A 
ATOM     14  C   UNL     1       7.971   1.828   1.121  0.00  0.00    +0.059 A 
ATOM     15  C   UNL     1       8.343   0.499   1.000  0.00  0.00    +0.060 A 
ATOM     16  C   UNL     1       7.827  -0.272  -0.026  0.00  0.00    +0.027 A 
ATOM     17 CL   UNL     1       9.450  -0.200   2.139  0.00  0.00    -0.082 Cl
ATOM     18 CL   UNL     1       8.614   2.795   2.412  0.00  0.00    -0.082 Cl
ENDBRANCH   5  11
ENDBRANCH   1   2
BRANCH   1  20
ATOM     19  N   UNL     1       0.688  -0.476  -1.203  0.00  0.00    -0.307 N 
ATOM     20  C   UNL     1       2.031  -0.587  -1.215  0.00  0.00    +0.231 C 
ATOM     21  O   UNL     1       2.672  -0.295  -0.228  0.00  0.00    -0.274 OA
ATOM     22  H   UNL     1       0.175  -0.710  -1.993  0.00  0.00    +0.149 HD
BRANCH  19  24
ATOM     23  C   UNL     1      -0.019   1.526   0.010  0.00  0.00    +0.033 C 
ATOM     24  C   UNL     1       0.002  -0.004   0.002  0.00  0.00    +0.100 C 
BRANCH  24  25
ATOM     25  C   UNL     1      -1.412  -0.526   0.013  0.00  0.00    -0.027 A 
ATOM     26  C   UNL     1      -2.141  -0.569  -1.161  0.00  0.00    +0.006 A 
ATOM     27  C   UNL     1      -3.438  -1.047  -1.151  0.00  0.00    +0.004 A 
ATOM     28  C   UNL     1      -4.005  -1.483   0.032  0.00  0.00    -0.047 A 
ATOM     29  C   UNL     1      -3.275  -1.441   1.205  0.00  0.00    +0.004 A 
ATOM     30  C   UNL     1      -1.977  -0.966   1.195  0.00  0.00    +0.006 A 
BRANCH  28  31
ATOM     31  C   UNL     1      -5.419  -2.004   0.043  0.00  0.00    +0.038 C 
BRANCH  31  32
ATOM     32  C   UNL     1      -5.409  -3.513  -0.210  0.00  0.00    -0.013 C 
ATOM     33  C   UNL     1      -6.831  -4.062  -0.075  0.00  0.00    +0.007 C 
ATOM     34  C   UNL     1      -4.887  -3.790  -1.621  0.00  0.00    +0.007 C 
ENDBRANCH  31  32
ENDBRANCH  28  31
ENDBRANCH  24  25
ENDBRANCH  19  24
ENDBRANCH   1  20
TORSDOF 7
