REMARK  Name = ZINC20100219
REMARK  9 active torsions:
REMARK  status: ('A' for Active; 'I' for Inactive)
REMARK    1  A    between atoms: C_1  and  C_2
REMARK    2  A    between atoms: C_2  and  C_32
REMARK    3  A    between atoms: C_7  and  N_11
REMARK    4  A    between atoms: C_8  and  C_9
REMARK    5  A    between atoms: N_11  and  C_12
REMARK    6  A    between atoms: N_11  and  C_19
REMARK    7  A    between atoms: C_12  and  C_13
REMARK    8  A    between atoms: C_19  and  N_21
REMARK    9  A    between atoms: C_22  and  C_24
REMARK                            x       y       z     vdW  Elec       q    Type
REMARK                         _______ _______ _______ _____ _____    ______ ____
ROOT
ATOM      1  N   UNL     1       4.124  -0.938  -1.425  0.00  0.00    -0.271 N 
ENDROOT
BRANCH   1   8
ATOM      2  C   UNL     1      10.037   2.872  -4.197  0.00  0.00    +0.041 C 
ATOM      3  C   UNL     1       8.594   2.361  -4.195  0.00  0.00    +0.068 C 
ATOM      4  C   UNL     1       8.370   1.476  -2.965  0.00  0.00    +0.071 C 
ATOM      5  C   UNL     1       6.878   1.185  -2.859  0.00  0.00    -0.013 A 
ATOM      6  C   UNL     1       5.993   1.955  -3.535  0.00  0.00    +0.022 A 
ATOM      7  S   UNL     1       4.410   1.277  -3.137  0.00  0.00    -0.074 S 
ATOM      8  C   UNL     1       4.912  -0.009  -2.088  0.00  0.00    +0.092 A 
ATOM      9  C   UNL     1       6.294   0.121  -2.066  0.00  0.00    +0.084 A 
ATOM     10  C   UNL     1       6.328   3.118  -4.415  0.00  0.00    +0.203 C 
ATOM     11  O   UNL     1       7.698   3.475  -4.170  0.00  0.00    -0.368 OA
ATOM     12  C   UNL     1       8.345   1.541  -5.462  0.00  0.00    +0.041 C 
BRANCH   9  13
ATOM     13  C   UNL     1       7.112  -0.764  -1.293  0.00  0.00    +0.102 C 
ATOM     14  N   UNL     1       7.761  -1.467  -0.680  0.00  0.00    -0.191 NA
ENDBRANCH   9  13
ENDBRANCH   1   8
BRANCH   1  15
ATOM     15  C   UNL     1       3.739  -2.066  -2.055  0.00  0.00    +0.144 C 
ATOM     16  S   UNL     1       4.318  -2.408  -3.629  0.00  0.00    -0.018 S 
BRANCH  15  17
ATOM     17  N   UNL     1       2.897  -2.924  -1.445  0.00  0.00    -0.263 N 
ATOM     18  C   UNL     1       2.512  -4.052  -2.075  0.00  0.00    +0.250 C 
ATOM     19  O   UNL     1       2.924  -4.295  -3.192  0.00  0.00    -0.270 OA
ATOM     20  H   UNL     1       2.525  -2.704  -0.434  0.00  0.00    +0.157 HD
BRANCH  18  21
ATOM     21  C   UNL     1       1.590  -4.993  -1.406  0.00  0.00    +0.037 A 
ATOM     22  C   UNL     1       1.120  -4.720  -0.120  0.00  0.00    +0.013 A 
ATOM     23  C   UNL     1       0.255  -5.601   0.496  0.00  0.00    +0.001 A 
ATOM     24  C   UNL     1      -0.138  -6.758  -0.153  0.00  0.00    +0.000 A 
ATOM     25  C   UNL     1       0.328  -7.037  -1.426  0.00  0.00    +0.001 A 
ATOM     26  C   UNL     1       1.189  -6.162  -2.056  0.00  0.00    +0.013 A 
ENDBRANCH  18  21
ENDBRANCH  15  17
ENDBRANCH   1  15
BRANCH   1  27
ATOM     27  C   UNL     1       3.709  -0.694  -0.042  0.00  0.00    +0.148 C 
BRANCH  27  28
ATOM     28  C   UNL     1       2.398   0.049  -0.033  0.00  0.00    -0.030 A 
ATOM     29  C   UNL     1       1.207  -0.651  -0.022  0.00  0.00    +0.005 A 
ATOM     30  C   UNL     1       0.004   0.030  -0.015  0.00  0.00    +0.000 A 
ATOM     31  C   UNL     1      -0.007   1.413  -0.018  0.00  0.00    +0.000 A 
ATOM     32  C   UNL     1       1.185   2.113  -0.029  0.00  0.00    +0.000 A 
ATOM     33  C   UNL     1       2.387   1.432  -0.036  0.00  0.00    +0.005 A 
ENDBRANCH  27  28
ENDBRANCH   1  27
TORSDOF 7
