REMARK  Name = ZINC63818156
REMARK  7 active torsions:
REMARK  status: ('A' for Active; 'I' for Inactive)
REMARK    1  A    between atoms: C_1  and  O_2
REMARK    2  A    between atoms: O_2  and  C_3
REMARK    3  A    between atoms: C_6  and  C_9
REMARK    4  A    between atoms: C_11  and  C_16
REMARK    5  A    between atoms: N_18  and  C_19
REMARK    6  A    between atoms: C_19  and  C_20
REMARK    7  A    between atoms: C_20  and  C_21
REMARK                            x       y       z     vdW  Elec       q    Type
REMARK                         _______ _______ _______ _____ _____    ______ ____
ROOT
ATOM      1  C   UNL     1       3.879  -3.724   2.474  0.00  0.00    +0.229 C 
ATOM      2  O   UNL     1       2.820  -4.156   2.071  0.00  0.00    -0.274 OA
ATOM      3  N   UNL     1       4.977  -3.799   1.697  0.00  0.00    -0.314 N 
ATOM      4  H   UNL     1       5.825  -3.454   2.020  0.00  0.00    +0.149 HD
ENDROOT
BRANCH   1   6
ATOM      5  C   UNL     1       2.677  -2.302   4.193  0.00  0.00    +0.123 C 
ATOM      6  C   UNL     1       3.967  -3.105   3.845  0.00  0.00    +0.171 C 
ATOM      7  S   UNL     1       3.881  -4.384   5.172  0.00  0.00    -0.051 S 
ATOM      8  N   UNL     1       2.140  -4.248   5.571  0.00  0.00    -0.199 NA
ATOM      9  N   UNL     1       1.640  -3.272   4.593  0.00  0.00    -0.238 NA
ATOM     10  H   UNL     1       2.011  -3.912   6.513  0.00  0.00    +0.154 HD
ATOM     11  H   UNL     1       0.818  -2.801   4.939  0.00  0.00    +0.142 HD
BRANCH   5  15
ATOM     12  C   UNL     1       1.367  -0.112   0.765  0.00  0.00    +0.120 A 
ATOM     13  C   UNL     1       2.304   0.441   1.626  0.00  0.00    +0.046 A 
ATOM     14  C   UNL     1       2.725  -0.269   2.734  0.00  0.00    +0.009 A 
ATOM     15  C   UNL     1       2.215  -1.530   2.984  0.00  0.00    -0.027 A 
ATOM     16  C   UNL     1       1.281  -2.083   2.127  0.00  0.00    +0.009 A 
ATOM     17  C   UNL     1       0.852  -1.374   1.022  0.00  0.00    +0.046 A 
BRANCH  12  19
ATOM     18  C   UNL     1       1.523   1.878  -0.526  0.00  0.00    +0.277 C 
ATOM     19  O   UNL     1       0.950   0.585  -0.325  0.00  0.00    -0.495 OA
ENDBRANCH  12  19
ENDBRANCH   5  15
ENDBRANCH   1   6
BRANCH   3  20
ATOM     20  C   UNL     1       4.892  -4.401   0.364  0.00  0.00    +0.108 C 
BRANCH  20  21
ATOM     21  C   UNL     1       6.268  -4.360  -0.303  0.00  0.00    +0.052 C 
BRANCH  21  22
ATOM     22  C   UNL     1       6.180  -4.980  -1.674  0.00  0.00    -0.040 C 
ATOM     23  C   UNL     1       5.998  -4.333  -2.848  0.00  0.00    +0.000 A 
ATOM     24  C   UNL     1       5.832  -2.915  -3.187  0.00  0.00    +0.030 A 
ATOM     25  C   UNL     1       5.663  -2.565  -4.483  0.00  0.00    +0.042 A 
ATOM     26  C   UNL     1       5.642  -3.522  -5.508  0.00  0.00    +0.022 A 
ATOM     27  C   UNL     1       5.787  -4.843  -5.275  0.00  0.00    +0.027 A 
ATOM     28  C   UNL     1       5.972  -5.323  -3.949  0.00  0.00    +0.043 A 
ATOM     29  N   UNL     1       6.132  -6.535  -3.474  0.00  0.00    -0.380 N 
ATOM     30  C   UNL     1       6.284  -6.449  -2.017  0.00  0.00    +0.144 C 
ATOM     31 CL   UNL     1       5.467  -0.888  -4.888  0.00  0.00    -0.084 Cl
ATOM     32  H   UNL     1       6.151  -7.350  -3.998  0.00  0.00    +0.160 HD
ENDBRANCH  21  22
ENDBRANCH  20  21
ENDBRANCH   3  20
TORSDOF 6
