REMARK  Name = ZINC39726992
REMARK  7 active torsions:
REMARK  status: ('A' for Active; 'I' for Inactive)
REMARK    1  A    between atoms: C_4  and  N_7
REMARK    2  A    between atoms: C_12  and  N_16
REMARK    3  A    between atoms: N_19  and  C_22
REMARK    4  A    between atoms: C_22  and  C_23
REMARK    5  A    between atoms: N_25  and  C_26
REMARK    6  A    between atoms: C_26  and  C_27
REMARK    7  A    between atoms: C_27  and  C_28
REMARK                            x       y       z     vdW  Elec       q    Type
REMARK                         _______ _______ _______ _____ _____    ______ ____
ROOT
ATOM      1  N   UNL     1       7.296  -2.474  -0.669  0.00  0.00    -0.296 NA
ATOM      2  C   UNL     1       7.353  -3.921  -0.919  0.00  0.00    +0.066 C 
ATOM      3  C   UNL     1       8.770  -4.429  -0.639  0.00  0.00    -0.063 C 
ATOM      4  N   UNL     1       9.722  -3.726  -1.509  0.00  0.00    +0.387 N 
ATOM      5  C   UNL     1       9.671  -2.285  -1.230  0.00  0.00    -0.063 C 
ATOM      6  C   UNL     1       8.263  -1.759  -1.515  0.00  0.00    +0.066 C 
ATOM      7  H   UNL     1       9.480  -3.890  -2.474  0.00  0.00    -0.081 HD
ENDROOT
BRANCH   1  12
ATOM      8  N   UNL     1       3.622  -0.651  -0.037  0.00  0.00    -0.160 N 
ATOM      9  C   UNL     1       3.641  -1.996   0.052  0.00  0.00    +0.259 C 
ATOM     10  O   UNL     1       2.603  -2.615   0.155  0.00  0.00    -0.272 OA
ATOM     11  C   UNL     1       4.961  -2.725   0.024  0.00  0.00    +0.191 C 
ATOM     12  C   UNL     1       5.936  -1.958  -0.872  0.00  0.00    +0.126 C 
ATOM     13  C   UNL     1       5.899  -0.494  -0.522  0.00  0.00    +0.124 C 
ATOM     14  N   UNL     1       4.817   0.067  -0.150  0.00  0.00    -0.183 NA
ATOM     15 CL   UNL     1       5.628  -2.829   1.695  0.00  0.00    -0.110 Cl
BRANCH   8  19
ATOM     16  C   UNL     1      -0.017   1.378   0.011  0.00  0.00    +0.000 A 
ATOM     17  C   UNL     1       0.154   0.288  -0.822  0.00  0.00    +0.002 A 
ATOM     18  C   UNL     1       1.359  -0.387  -0.841  0.00  0.00    +0.025 A 
ATOM     19  C   UNL     1       2.400   0.031  -0.021  0.00  0.00    +0.060 A 
ATOM     20  C   UNL     1       2.224   1.126   0.815  0.00  0.00    +0.025 A 
ATOM     21  C   UNL     1       1.017   1.796   0.829  0.00  0.00    +0.002 A 
ENDBRANCH   8  19
ENDBRANCH   1  12
BRANCH   4  22
ATOM     22  C   UNL     1      11.080  -4.226  -1.253  0.00  0.00    +0.019 C 
BRANCH  22  23
ATOM     23  C   UNL     1      12.040  -3.596  -2.228  0.00  0.00    +0.196 C 
ATOM     24  O   UNL     1      11.634  -2.807  -3.055  0.00  0.00    -0.278 OA
ATOM     25  N   UNL     1      13.350  -3.908  -2.181  0.00  0.00    -0.317 N 
ATOM     26  H   UNL     1      13.675  -4.539  -1.520  0.00  0.00    +0.149 HD
BRANCH  25  27
ATOM     27  C   UNL     1      14.284  -3.295  -3.129  0.00  0.00    +0.109 C 
BRANCH  27  28
ATOM     28  C   UNL     1      15.697  -3.816  -2.862  0.00  0.00    +0.056 C 
BRANCH  28  29
ATOM     29  C   UNL     1      16.657  -3.186  -3.838  0.00  0.00    -0.021 A 
ATOM     30  C   UNL     1      17.319  -1.887  -3.693  0.00  0.00    +0.003 A 
ATOM     31  C   UNL     1      17.297  -0.890  -2.716  0.00  0.00    +0.010 A 
ATOM     32  C   UNL     1      18.049   0.238  -2.881  0.00  0.00    +0.001 A 
ATOM     33  C   UNL     1      18.836   0.403  -4.013  0.00  0.00    +0.002 A 
ATOM     34  C   UNL     1      18.872  -0.568  -4.990  0.00  0.00    +0.026 A 
ATOM     35  C   UNL     1      18.114  -1.725  -4.842  0.00  0.00    +0.047 A 
ATOM     36  N   UNL     1      17.940  -2.849  -5.618  0.00  0.00    -0.360 N 
ATOM     37  C   UNL     1      17.073  -3.710  -5.001  0.00  0.00    +0.087 A 
ATOM     38  H   UNL     1      18.370  -3.009  -6.473  0.00  0.00    +0.165 HD
ENDBRANCH  28  29
ENDBRANCH  27  28
ENDBRANCH  25  27
ENDBRANCH  22  23
ENDBRANCH   4  22
TORSDOF 7
