REMARK  Name = ZINC39345059
REMARK  10 active torsions:
REMARK  status: ('A' for Active; 'I' for Inactive)
REMARK    1  A    between atoms: C_1  and  C_2
REMARK    2  A    between atoms: C_2  and  C_3
REMARK    3  A    between atoms: C_7  and  C_10
REMARK    4  A    between atoms: C_8  and  O_9
REMARK    5  A    between atoms: C_10  and  N_11
REMARK    6  A    between atoms: C_13  and  C_22
REMARK    7  A    between atoms: C_18  and  C_20
REMARK    8  A    between atoms: C_18  and  C_21
REMARK    9  A    between atoms: C_24  and  C_39
REMARK   10  A    between atoms: C_26  and  C_30
REMARK                            x       y       z     vdW  Elec       q    Type
REMARK                         _______ _______ _______ _____ _____    ______ ____
ROOT
ATOM      1  C   UNL     1      -1.412  -0.526   0.013  0.00  0.00    -0.005 A 
ATOM      2  C   UNL     1      -2.005  -0.859   1.197  0.00  0.00    +0.022 A 
ATOM      3  C   UNL     1      -3.316  -1.342   1.205  0.00  0.00    +0.061 A 
ATOM      4  C   UNL     1      -4.029  -1.481   0.001  0.00  0.00    +0.136 A 
ATOM      5  C   UNL     1      -3.412  -1.142  -1.192  0.00  0.00    +0.020 A 
ATOM      6  C   UNL     1      -2.110  -0.660  -1.184  0.00  0.00    +0.125 A 
ATOM      7  O   UNL     1      -5.304  -1.934  -0.002  0.00  0.00    -0.487 OA
ATOM      8  C   UNL     1      -5.759  -2.710   1.107  0.00  0.00    +0.188 C 
ATOM      9  C   UNL     1      -5.470  -1.952   2.411  0.00  0.00    +0.166 C 
ATOM     10  C   UNL     1      -3.972  -1.712   2.469  0.00  0.00    +0.181 C 
ATOM     11  O   UNL     1      -3.348  -1.822   3.503  0.00  0.00    -0.291 OA
ATOM     12  C   UNL     1      -7.264  -2.951   0.978  0.00  0.00    +0.053 C 
ENDROOT
BRANCH   9  13
ATOM     13  C   UNL     1      -6.202  -0.635   2.411  0.00  0.00    +0.122 A 
ATOM     14  N   UNL     1      -7.368  -0.430   2.952  0.00  0.00    -0.232 NA
ATOM     15  C   UNL     1      -7.734   0.865   2.771  0.00  0.00    +0.089 A 
ATOM     16  C   UNL     1      -8.859   1.609   3.137  0.00  0.00    +0.030 A 
ATOM     17  C   UNL     1      -8.940   2.931   2.801  0.00  0.00    +0.002 A 
ATOM     18  C   UNL     1      -7.914   3.546   2.098  0.00  0.00    +0.002 A 
ATOM     19  C   UNL     1      -6.795   2.832   1.726  0.00  0.00    +0.028 A 
ATOM     20  C   UNL     1      -6.695   1.488   2.058  0.00  0.00    +0.066 A 
ATOM     21  N   UNL     1      -5.738   0.515   1.851  0.00  0.00    -0.341 N 
ATOM     22  H   UNL     1      -4.893   0.629   1.389  0.00  0.00    +0.167 HD
ENDBRANCH   9  13
BRANCH   1  24
ATOM     23  C   UNL     1      -0.019   1.526   0.010  0.00  0.00    +0.009 C 
ATOM     24  C   UNL     1       0.002  -0.004   0.002  0.00  0.00    +0.035 C 
ENDBRANCH   1  24
BRANCH   6  25
ATOM     25  O   UNL     1      -1.511  -0.324  -2.354  0.00  0.00    -0.506 OA
ATOM     26  H   UNL     1      -1.035  -1.052  -2.776  0.00  0.00    +0.292 HD
ENDBRANCH   6  25
BRANCH   5  27
ATOM     27  C   UNL     1      -4.154  -1.290  -2.495  0.00  0.00    -0.035 C 
BRANCH  27  28
ATOM     28  N   UNL     1      -4.864  -0.052  -2.793  0.00  0.00    +0.385 N 
ATOM     29  C   UNL     1      -5.904   0.231  -1.787  0.00  0.00    -0.071 C 
ATOM     30  C   UNL     1      -7.138   0.743  -2.568  0.00  0.00    -0.048 C 
ATOM     31  C   UNL     1      -6.570   1.087  -3.970  0.00  0.00    -0.011 C 
ATOM     32  C   UNL     1      -5.529  -0.058  -4.112  0.00  0.00    -0.067 C 
ATOM     33  C   UNL     1      -6.288  -1.343  -4.372  0.00  0.00    -0.009 C 
ATOM     34  C   UNL     1      -7.550  -1.577  -3.572  0.00  0.00    -0.036 C 
ATOM     35  C   UNL     1      -8.101  -0.428  -2.753  0.00  0.00    +0.011 C 
ATOM     36  C   UNL     1      -7.336  -2.789  -2.643  0.00  0.00    +0.011 C 
ATOM     37  C   UNL     1      -8.656  -1.998  -4.573  0.00  0.00    +0.011 C 
ATOM     38  C   UNL     1      -7.797   1.952  -1.888  0.00  0.00    +0.009 C 
ATOM     39  H   UNL     1      -4.194   0.720  -2.777  0.00  0.00    -0.081 HD
ENDBRANCH  27  28
ENDBRANCH   5  27
TORSDOF 5
