REMARK  Name = ZINC42015234
REMARK  5 active torsions:
REMARK  status: ('A' for Active; 'I' for Inactive)
REMARK    1  A    between atoms: C_1  and  C_2
REMARK    2  A    between atoms: C_5  and  N_21
REMARK    3  A    between atoms: C_7  and  C_8
REMARK    4  A    between atoms: N_12  and  C_13
REMARK    5  A    between atoms: C_17  and  C_19
REMARK                            x       y       z     vdW  Elec       q    Type
REMARK                         _______ _______ _______ _____ _____    ______ ____
ROOT
ATOM      1  C   UNL     1       0.255   0.014   2.525  0.00  0.00    +0.187 A 
ATOM      2  N   UNL     1       0.226   1.323   2.671  0.00  0.00    -0.108 NA
ATOM      3  N   UNL     1      -0.068   1.635   3.881  0.00  0.00    -0.022 NA
ATOM      4  N   UNL     1      -0.247   0.575   4.591  0.00  0.00    -0.039 NA
ATOM      5  N   UNL     1      -0.051  -0.526   3.740  0.00  0.00    -0.193 N 
ENDROOT
BRANCH   5   6
ATOM      6  C   UNL     1      -0.147  -1.886   4.068  0.00  0.00    +0.070 A 
ATOM      7  C   UNL     1      -0.770  -2.770   3.196  0.00  0.00    +0.029 A 
ATOM      8  C   UNL     1      -0.863  -4.108   3.522  0.00  0.00    +0.017 A 
ATOM      9  C   UNL     1      -0.336  -4.569   4.715  0.00  0.00    +0.021 A 
ATOM     10  C   UNL     1       0.285  -3.691   5.585  0.00  0.00    -0.034 A 
ATOM     11  C   UNL     1       0.386  -2.352   5.262  0.00  0.00    +0.032 A 
ATOM     12  C   UNL     1       0.857  -4.197   6.885  0.00  0.00    +0.045 C 
ATOM     13 BR   UNL     1      -0.464  -6.403   5.158  0.00  0.00    -0.050 Br
ENDBRANCH   5   6
BRANCH   1  20
ATOM     14  C   UNL     1      -1.066   0.760   0.064  0.00  0.00    +0.044 C 
ATOM     15  C   UNL     1      -0.077  -0.376   0.087  0.00  0.00    -0.040 A 
ATOM     16  C   UNL     1       0.208  -1.066  -1.074  0.00  0.00    +0.006 A 
ATOM     17  C   UNL     1       1.115  -2.109  -1.059  0.00  0.00    +0.023 A 
ATOM     18  C   UNL     1       1.745  -2.470   0.127  0.00  0.00    +0.025 A 
ATOM     19  C   UNL     1       1.465  -1.783   1.298  0.00  0.00    +0.034 A 
ATOM     20  C   UNL     1       0.555  -0.728   1.280  0.00  0.00    +0.026 A 
BRANCH  18  21
ATOM     21  N   UNL     1       2.660  -3.526   0.138  0.00  0.00    -0.358 N 
ATOM     22  H   UNL     1       2.855  -4.007  -0.682  0.00  0.00    +0.142 HD
ATOM     23  H   UNL     1       3.100  -3.778   0.965  0.00  0.00    +0.142 HD
ENDBRANCH  18  21
ENDBRANCH   1  20
TORSDOF 3
