REMARK  Name = ZINC41906259
REMARK  2 active torsions:
REMARK  status: ('A' for Active; 'I' for Inactive)
REMARK    1  A    between atoms: C_1  and  C_2
REMARK    2  A    between atoms: C_15  and  C_17
REMARK                            x       y       z     vdW  Elec       q    Type
REMARK                         _______ _______ _______ _____ _____    ______ ____
ROOT
ATOM      1  C   UNL     1       1.183   1.923   0.346  0.00  0.00    +0.008 C 
ATOM      2  C   UNL     1       0.856   0.441   0.160  0.00  0.00    -0.008 C 
ATOM      3  C   UNL     1       1.597  -0.098  -1.067  0.00  0.00    +0.022 C 
ATOM      4  C   UNL     1       1.260  -1.579  -1.265  0.00  0.00    +0.108 C 
ATOM      5  N   UNL     1       1.536  -2.307  -0.017  0.00  0.00    -0.294 N 
ATOM      6  C   UNL     1       0.925  -1.815   1.222  0.00  0.00    +0.080 C 
ATOM      7  C   UNL     1       1.298  -0.339   1.398  0.00  0.00    +0.012 C 
ATOM      8  C   UNL     1       0.613   0.204   2.651  0.00  0.00    +0.005 C 
ATOM      9  C   UNL     1       1.102  -0.585   3.869  0.00  0.00    +0.000 C 
ATOM     10  C   UNL     1       0.768  -2.067   3.696  0.00  0.00    +0.002 C 
ATOM     11  C   UNL     1       1.435  -2.608   2.424  0.00  0.00    +0.023 C 
ATOM     12  C   UNL     1       2.329  -3.397  -0.013  0.00  0.00    +0.247 C 
ATOM     13  O   UNL     1       2.635  -3.921   1.041  0.00  0.00    -0.270 OA
ENDROOT
BRANCH  12  14
ATOM     14  C   UNL     1       2.827  -3.953  -1.286  0.00  0.00    +0.039 A 
ATOM     15  C   UNL     1       4.142  -4.413  -1.382  0.00  0.00    +0.017 A 
ATOM     16  C   UNL     1       4.608  -4.933  -2.571  0.00  0.00    +0.048 A 
ATOM     17  C   UNL     1       3.772  -5.000  -3.675  0.00  0.00    +0.142 A 
ATOM     18  C   UNL     1       2.455  -4.542  -3.586  0.00  0.00    +0.076 A 
ATOM     19  C   UNL     1       1.981  -4.025  -2.397  0.00  0.00    +0.040 A 
ATOM     20  N   UNL     1       1.625  -4.617  -4.714  0.00  0.00    -0.280 N 
ATOM     21  C   UNL     1       1.996  -5.404  -5.748  0.00  0.00    +0.255 C 
ATOM     22  O   UNL     1       1.310  -5.462  -6.746  0.00  0.00    -0.272 OA
ATOM     23  C   UNL     1       3.267  -6.210  -5.655  0.00  0.00    +0.325 C 
ATOM     24  O   UNL     1       4.221  -5.512  -4.851  0.00  0.00    -0.481 OA
ATOM     25  H   UNL     1       0.798  -4.113  -4.752  0.00  0.00    +0.155 HD
ENDBRANCH  12  14
TORSDOF 1
