REMARK  Name = ZINC35035840
REMARK  6 active torsions:
REMARK  status: ('A' for Active; 'I' for Inactive)
REMARK    1  A    between atoms: C_1  and  C_2
REMARK    2  A    between atoms: C_2  and  C_3
REMARK    3  A    between atoms: C_3  and  C_5
REMARK    4  A    between atoms: C_3  and  N_16
REMARK    5  A    between atoms: C_20  and  C_23
REMARK    6  A    between atoms: N_26  and  C_27
REMARK                            x       y       z     vdW  Elec       q    Type
REMARK                         _______ _______ _______ _____ _____    ______ ____
ROOT
ATOM      1  N   UNL     1      -1.747  -0.071   1.524  0.00  0.00    +0.388 N 
ATOM      2  C   UNL     1      -3.130  -0.445   1.202  0.00  0.00    -0.058 C 
ATOM      3  C   UNL     1      -3.984  -0.383   2.473  0.00  0.00    +0.091 C 
ATOM      4  N   UNL     1      -3.839   0.955   3.067  0.00  0.00    -0.286 N 
ATOM      5  C   UNL     1      -2.480   1.478   3.275  0.00  0.00    +0.058 C 
ATOM      6  C   UNL     1      -1.697   1.328   1.966  0.00  0.00    -0.055 C 
ATOM      7  C   UNL     1      -2.551   2.954   3.670  0.00  0.00    +0.026 C 
ATOM      8  C   UNL     1      -4.921   1.681   3.412  0.00  0.00    +0.307 C 
ATOM      9  O   UNL     1      -4.785   2.819   3.816  0.00  0.00    -0.252 OA
ATOM     10  N   UNL     1      -6.153   1.145   3.307  0.00  0.00    -0.268 N 
ATOM     11  H   UNL     1      -6.258   0.216   3.049  0.00  0.00    +0.156 HD
ATOM     12  H   UNL     1      -1.403  -0.668   2.261  0.00  0.00    -0.081 HD
ENDROOT
BRANCH  10  13
ATOM     13  C   UNL     1      -7.282   1.929   3.572  0.00  0.00    +0.049 A 
ATOM     14  C   UNL     1      -7.183   3.314   3.571  0.00  0.00    +0.024 A 
ATOM     15  C   UNL     1      -8.299   4.085   3.832  0.00  0.00    +0.002 A 
ATOM     16  C   UNL     1      -9.514   3.480   4.095  0.00  0.00    +0.001 A 
ATOM     17  C   UNL     1      -9.617   2.101   4.097  0.00  0.00    +0.017 A 
ATOM     18  C   UNL     1      -8.505   1.324   3.831  0.00  0.00    +0.039 A 
ATOM     19 BR   UNL     1      -8.648  -0.562   3.827  0.00  0.00    -0.048 Br
ENDBRANCH  10  13
BRANCH   1  20
ATOM     20  C   UNL     1      -0.906  -0.237   0.331  0.00  0.00    -0.001 C 
BRANCH  20  21
ATOM     21  C   UNL     1      -1.462   0.597  -0.795  0.00  0.00    +0.098 A 
ATOM     22  N   UNL     1      -2.460   1.396  -0.537  0.00  0.00    -0.197 NA
ATOM     23  C   UNL     1      -3.010   2.172  -1.490  0.00  0.00    +0.281 A 
ATOM     24  O   UNL     1      -3.943   2.914  -1.234  0.00  0.00    -0.265 OA
ATOM     25  C   UNL     1      -2.452   2.099  -2.852  0.00  0.00    +0.065 A 
ATOM     26  C   UNL     1      -2.956   2.865  -3.901  0.00  0.00    +0.015 A 
ATOM     27  C   UNL     1      -2.393   2.754  -5.153  0.00  0.00    +0.001 A 
ATOM     28  C   UNL     1      -1.331   1.888  -5.373  0.00  0.00    +0.002 A 
ATOM     29  C   UNL     1      -0.821   1.123  -4.344  0.00  0.00    +0.026 A 
ATOM     30  C   UNL     1      -1.376   1.221  -3.075  0.00  0.00    +0.053 A 
ATOM     31  N   UNL     1      -0.899   0.483  -2.010  0.00  0.00    -0.344 N 
ATOM     32  H   UNL     1      -0.155  -0.126  -2.141  0.00  0.00    +0.167 HD
ENDBRANCH  20  21
BRANCH  20  34
ATOM     33  C   UNL     1      -0.237  -2.544   1.018  0.00  0.00    +0.002 C 
ATOM     34  C   UNL     1      -0.893  -1.709  -0.084  0.00  0.00    -0.011 C 
ENDBRANCH  20  34
ENDBRANCH   1  20
TORSDOF 4
