REMARK  Name = ZINC39916442
REMARK  8 active torsions:
REMARK  status: ('A' for Active; 'I' for Inactive)
REMARK    1  A    between atoms: C_1  and  C_2
REMARK    2  A    between atoms: C_2  and  O_3
REMARK    3  A    between atoms: O_3  and  C_4
REMARK    4  A    between atoms: C_4  and  C_6
REMARK    5  A    between atoms: C_7  and  C_20
REMARK    6  A    between atoms: C_12  and  C_14
REMARK    7  A    between atoms: C_20  and  S_21
REMARK    8  A    between atoms: S_21  and  C_22
REMARK                            x       y       z     vdW  Elec       q    Type
REMARK                         _______ _______ _______ _____ _____    ______ ____
ROOT
ATOM      1  C   UNL     1      -2.795  -2.410   0.126  0.00  0.00    +0.079 C 
ATOM      2  C   UNL     1      -2.985  -3.731  -0.085  0.00  0.00    +0.034 C 
ATOM      3  N   UNL     1      -4.241  -4.255  -0.186  0.00  0.00    -0.272 N 
ATOM      4  C   UNL     1      -5.360  -3.526  -0.089  0.00  0.00    +0.304 C 
ATOM      5  O   UNL     1      -6.436  -4.083  -0.192  0.00  0.00    -0.252 OA
ATOM      6  N   UNL     1      -5.333  -2.195   0.121  0.00  0.00    -0.288 N 
ATOM      7  C   UNL     1      -4.024  -1.533   0.251  0.00  0.00    +0.144 C 
ATOM      8  H   UNL     1      -4.328  -5.210  -0.337  0.00  0.00    +0.156 HD
ATOM      9  H   UNL     1      -6.156  -1.686   0.188  0.00  0.00    +0.151 HD
ENDROOT
BRANCH   7  10
ATOM     10  C   UNL     1      -3.974  -0.852   1.594  0.00  0.00    -0.023 A 
ATOM     11  C   UNL     1      -4.360  -1.537   2.731  0.00  0.00    +0.006 A 
ATOM     12  C   UNL     1      -4.314  -0.913   3.964  0.00  0.00    +0.000 A 
ATOM     13  C   UNL     1      -3.882   0.397   4.059  0.00  0.00    +0.000 A 
ATOM     14  C   UNL     1      -3.495   1.082   2.922  0.00  0.00    +0.000 A 
ATOM     15  C   UNL     1      -3.537   0.456   1.691  0.00  0.00    +0.006 A 
ENDBRANCH   7  10
BRANCH   1  16
ATOM     16  C   UNL     1      -1.494  -1.866   0.231  0.00  0.00    +0.339 C 
ATOM     17  O   UNL     1      -1.002  -1.279  -0.714  0.00  0.00    -0.245 OA
BRANCH  16  18
ATOM     18  O   UNL     1      -0.799  -1.996   1.380  0.00  0.00    -0.462 OA
BRANCH  18  20
ATOM     19  C   UNL     1       1.137  -1.669   2.790  0.00  0.00    +0.048 C 
ATOM     20  C   UNL     1       0.509  -1.422   1.417  0.00  0.00    +0.229 C 
ENDBRANCH  18  20
ENDBRANCH  16  18
ENDBRANCH   1  16
BRANCH   2  21
ATOM     21  C   UNL     1      -1.789  -4.640  -0.210  0.00  0.00    +0.127 C 
BRANCH  21  22
ATOM     22  S   UNL     1      -1.597  -5.599   1.318  0.00  0.00    -0.093 S 
BRANCH  22  23
ATOM     23  C   UNL     1      -0.177  -6.599   1.017  0.00  0.00    +0.136 A 
ATOM     24  N   UNL     1       0.584  -6.650  -0.054  0.00  0.00    -0.233 NA
ATOM     25  C   UNL     1       1.651  -7.473  -0.146  0.00  0.00    +0.079 A 
ATOM     26  C   UNL     1       2.544  -7.625  -1.232  0.00  0.00    +0.029 A 
ATOM     27  C   UNL     1       3.586  -8.513  -1.163  0.00  0.00    +0.002 A 
ATOM     28  C   UNL     1       3.801  -9.291  -0.034  0.00  0.00    +0.001 A 
ATOM     29  C   UNL     1       2.946  -9.169   1.046  0.00  0.00    +0.017 A 
ATOM     30  C   UNL     1       1.901  -8.281   0.986  0.00  0.00    +0.040 A 
ATOM     31  S   UNL     1       0.599  -7.797   2.093  0.00  0.00    -0.061 S 
ENDBRANCH  22  23
ENDBRANCH  21  22
ENDBRANCH   2  21
TORSDOF 7
