REMARK  Name = ZINC28927028
REMARK  8 active torsions:
REMARK  status: ('A' for Active; 'I' for Inactive)
REMARK    1  A    between atoms: C_1  and  C_2
REMARK    2  A    between atoms: C_2  and  O_3
REMARK    3  A    between atoms: O_3  and  C_4
REMARK    4  A    between atoms: C_4  and  C_6
REMARK    5  A    between atoms: C_7  and  C_20
REMARK    6  A    between atoms: C_12  and  C_14
REMARK    7  A    between atoms: C_20  and  N_21
REMARK    8  A    between atoms: C_24  and  C_27
REMARK                            x       y       z     vdW  Elec       q    Type
REMARK                         _______ _______ _______ _____ _____    ______ ____
ROOT
ATOM      1  C   UNL     1      -0.908   1.546   1.210  0.00  0.00    +0.076 C 
ATOM      2  C   UNL     1      -0.399   2.559   1.943  0.00  0.00    +0.008 C 
ATOM      3  N   UNL     1       0.880   2.995   1.750  0.00  0.00    -0.274 N 
ATOM      4  C   UNL     1       1.715   2.470   0.844  0.00  0.00    +0.304 C 
ATOM      5  O   UNL     1       2.838   2.926   0.746  0.00  0.00    -0.252 OA
ATOM      6  N   UNL     1       1.352   1.453   0.039  0.00  0.00    -0.288 N 
ATOM      7  C   UNL     1      -0.011   0.909   0.168  0.00  0.00    +0.143 C 
ATOM      8  H   UNL     1       1.277   3.822   2.357  0.00  0.00    +0.156 HD
ATOM      9  H   UNL     1       2.045   1.028  -0.702  0.00  0.00    +0.151 HD
ENDROOT
BRANCH   7  10
ATOM     10  C   UNL     1      -0.691   1.038  -1.171  0.00  0.00    -0.023 A 
ATOM     11  C   UNL     1      -0.569   2.207  -1.898  0.00  0.00    +0.006 A 
ATOM     12  C   UNL     1      -1.190   2.324  -3.128  0.00  0.00    +0.000 A 
ATOM     13  C   UNL     1      -1.939   1.275  -3.627  0.00  0.00    +0.000 A 
ATOM     14  C   UNL     1      -2.065   0.107  -2.897  0.00  0.00    +0.000 A 
ATOM     15  C   UNL     1      -1.441  -0.011  -1.669  0.00  0.00    +0.006 A 
ENDBRANCH   7  10
BRANCH   1  16
ATOM     16  C   UNL     1      -2.234   1.093   1.408  0.00  0.00    +0.339 C 
ATOM     17  O   UNL     1      -2.898   1.540   2.324  0.00  0.00    -0.245 OA
BRANCH  16  18
ATOM     18  O   UNL     1      -2.761   0.166   0.581  0.00  0.00    -0.462 OA
BRANCH  18  20
ATOM     19  C   UNL     1      -4.526  -1.292  -0.192  0.00  0.00    +0.048 C 
ATOM     20  C   UNL     1      -4.105  -0.245   0.840  0.00  0.00    +0.229 C 
ENDBRANCH  18  20
ENDBRANCH  16  18
ENDBRANCH   1  16
BRANCH   2  21
ATOM     21  C   UNL     1      -1.257   3.219   2.991  0.00  0.00    -0.026 C 
BRANCH  21  22
ATOM     22  N   UNL     1      -1.208   2.433   4.231  0.00  0.00    +0.383 N 
ATOM     23  C   UNL     1       0.180   2.166   4.630  0.00  0.00    -0.078 C 
ATOM     24  C   UNL     1       0.194   1.227   5.838  0.00  0.00    -0.016 C 
ATOM     25  C   UNL     1      -0.573   1.878   6.993  0.00  0.00    -0.018 C 
ATOM     26  C   UNL     1      -2.001   2.190   6.536  0.00  0.00    -0.016 C 
ATOM     27  C   UNL     1      -1.950   3.101   5.308  0.00  0.00    -0.078 C 
ATOM     28  C   UNL     1      -0.615   0.918   8.184  0.00  0.00    +0.007 C 
ATOM     29  H   UNL     1      -1.694   1.465   4.039  0.00  0.00    -0.081 HD
ENDBRANCH  21  22
ENDBRANCH   2  21
TORSDOF 6
