REMARK  Name = ZINC49412565
REMARK  4 active torsions:
REMARK  status: ('A' for Active; 'I' for Inactive)
REMARK    1  A    between atoms: C_4  and  N_24
REMARK    2  A    between atoms: C_5  and  N_7
REMARK    3  A    between atoms: C_8  and  C_10
REMARK    4  A    between atoms: N_15  and  C_17
REMARK                            x       y       z     vdW  Elec       q    Type
REMARK                         _______ _______ _______ _____ _____    ______ ____
ROOT
ATOM      1  N   UNL     1       1.239  -2.080  -0.011  0.00  0.00    -0.284 N 
ATOM      2  C   UNL     1       0.086  -2.771   0.096  0.00  0.00    +0.222 C 
ATOM      3  O   UNL     1      -0.974  -2.182   0.113  0.00  0.00    -0.275 OA
ATOM      4  H   UNL     1       2.080  -2.554  -0.106  0.00  0.00    +0.155 HD
ENDROOT
BRANCH   1   9
ATOM      5  C   UNL     1       0.166   1.374   0.665  0.00  0.00    +0.002 A 
ATOM      6  C   UNL     1       1.186   2.091   0.067  0.00  0.00    +0.002 A 
ATOM      7  C   UNL     1       2.227   1.431  -0.558  0.00  0.00    +0.025 A 
ATOM      8  C   UNL     1       2.250   0.044  -0.587  0.00  0.00    +0.052 A 
ATOM      9  C   UNL     1       1.221  -0.679   0.015  0.00  0.00    +0.055 A 
ATOM     10  C   UNL     1       0.181  -0.008   0.640  0.00  0.00    +0.025 A 
BRANCH   8  11
ATOM     11  N   UNL     1       3.303  -0.627  -1.219  0.00  0.00    -0.318 N 
ATOM     12  C   UNL     1       3.239  -0.977  -2.648  0.00  0.00    +0.124 C 
ATOM     13  C   UNL     1       4.383  -0.258  -3.367  0.00  0.00    +0.123 C 
ATOM     14  N   UNL     1       5.633  -0.416  -2.636  0.00  0.00    -0.313 N 
ATOM     15  C   UNL     1       5.718  -0.711  -1.338  0.00  0.00    +0.230 C 
ATOM     16  O   UNL     1       6.816  -0.739  -0.822  0.00  0.00    -0.274 OA
ATOM     17  C   UNL     1       4.519  -1.006  -0.485  0.00  0.00    +0.200 C 
ATOM     18  H   UNL     1       6.461  -0.299  -3.127  0.00  0.00    +0.149 HD
ENDBRANCH   8  11
ENDBRANCH   1   9
BRANCH   2  19
ATOM     19  C   UNL     1       0.114  -4.274   0.195  0.00  0.00    +0.102 C 
ATOM     20  C   UNL     1       0.814  -4.730   1.496  0.00  0.00    +0.110 C 
ATOM     21  C   UNL     1      -0.318  -4.899   2.486  0.00  0.00    +0.221 C 
ATOM     22  O   UNL     1      -0.182  -4.974   3.689  0.00  0.00    -0.275 OA
ATOM     23  N   UNL     1      -1.494  -4.954   1.838  0.00  0.00    -0.271 N 
ATOM     24  C   UNL     1      -1.310  -4.843   0.385  0.00  0.00    +0.127 C 
BRANCH  23  25
ATOM     25  C   UNL     1      -2.737  -5.098   2.468  0.00  0.00    +0.036 A 
ATOM     26  C   UNL     1      -2.820  -5.080   3.854  0.00  0.00    +0.026 A 
ATOM     27  C   UNL     1      -4.046  -5.222   4.473  0.00  0.00    +0.040 A 
ATOM     28  C   UNL     1      -5.192  -5.383   3.712  0.00  0.00    +0.124 A 
ATOM     29  C   UNL     1      -5.111  -5.402   2.330  0.00  0.00    +0.040 A 
ATOM     30  C   UNL     1      -3.888  -5.253   1.707  0.00  0.00    +0.026 A 
ATOM     31  F   UNL     1      -6.391  -5.523   4.320  0.00  0.00    -0.205 F 
ENDBRANCH  23  25
ENDBRANCH   2  19
TORSDOF 4
