REMARK  Name = ZINC04259367
REMARK  9 active torsions:
REMARK  status: ('A' for Active; 'I' for Inactive)
REMARK    1  A    between atoms: C_1  and  C_2
REMARK    2  A    between atoms: C_7  and  C_8
REMARK    3  A    between atoms: C_8  and  O_10
REMARK    4  A    between atoms: O_10  and  C_11
REMARK    5  A    between atoms: C_14  and  C_17
REMARK    6  A    between atoms: N_18  and  N_19
REMARK    7  A    between atoms: C_20  and  C_22
REMARK    8  A    between atoms: C_22  and  N_23
REMARK    9  A    between atoms: C_24  and  C_26
REMARK                            x       y       z     vdW  Elec       q    Type
REMARK                         _______ _______ _______ _____ _____    ______ ____
ROOT
ATOM      1  N   UNL     1      -0.137   4.677   9.307  0.00  0.00    -0.206 N 
ATOM      2  C   UNL     1      -0.248   6.020   9.259  0.00  0.00    +0.249 C 
ATOM      3  O   UNL     1      -0.364   6.581   8.189  0.00  0.00    -0.272 OA
ATOM      4  H   UNL     1      -0.032   4.169  10.277  0.00  0.00    +0.177 HD
ENDROOT
BRANCH   1   6
ATOM      5  C   UNL     1      -0.048   2.637   8.169  0.00  0.00    +0.138 C 
ATOM      6  N   UNL     1      -0.155   3.930   8.122  0.00  0.00    -0.188 NA
BRANCH   5  10
ATOM      7  C   UNL     1      -0.103   0.372   4.579  0.00  0.00    +0.132 A 
ATOM      8  C   UNL     1      -0.212   1.756   4.526  0.00  0.00    +0.047 A 
ATOM      9  C   UNL     1      -0.200   2.495   5.689  0.00  0.00    +0.013 A 
ATOM     10  C   UNL     1      -0.067   1.851   6.922  0.00  0.00    -0.005 A 
ATOM     11  C   UNL     1       0.049   0.459   6.970  0.00  0.00    +0.013 A 
ATOM     12  C   UNL     1       0.030  -0.272   5.802  0.00  0.00    +0.047 A 
BRANCH   7  13
ATOM     13  O   UNL     1      -0.121  -0.353   3.430  0.00  0.00    -0.422 OA
BRANCH  13  14
ATOM     14  C   UNL     1      -1.289  -0.930   3.089  0.00  0.00    +0.345 C 
ATOM     15  O   UNL     1      -2.291  -0.702   3.736  0.00  0.00    -0.245 OA
BRANCH  14  22
ATOM     16  C   UNL     1      -3.742  -2.356   2.521  0.00  0.00    +0.044 C 
ATOM     17  C   UNL     1      -2.530  -2.535   1.644  0.00  0.00    -0.036 A 
ATOM     18  C   UNL     1      -2.579  -3.389   0.562  0.00  0.00    +0.004 A 
ATOM     19  C   UNL     1      -1.469  -3.551  -0.248  0.00  0.00    +0.000 A 
ATOM     20  C   UNL     1      -0.298  -2.866   0.028  0.00  0.00    +0.001 A 
ATOM     21  C   UNL     1      -0.233  -2.014   1.110  0.00  0.00    +0.015 A 
ATOM     22  C   UNL     1      -1.352  -1.842   1.928  0.00  0.00    +0.062 A 
ENDBRANCH  14  22
ENDBRANCH  13  14
ENDBRANCH   7  13
ENDBRANCH   5  10
ENDBRANCH   1   6
BRANCH   2  23
ATOM     23  C   UNL     1      -0.229   6.824  10.533  0.00  0.00    +0.202 C 
BRANCH  23  24
ATOM     24  N   UNL     1      -0.365   8.247  10.214  0.00  0.00    -0.302 N 
ATOM     25  C   UNL     1      -0.373   9.162  11.205  0.00  0.00    +0.253 C 
ATOM     26  O   UNL     1      -0.268   8.805  12.363  0.00  0.00    -0.270 OA
ATOM     27  H   UNL     1      -0.460   8.570   9.167  0.00  0.00    +0.150 HD
BRANCH  25  28
ATOM     28  C   UNL     1      -0.509  10.588  10.885  0.00  0.00    +0.093 A 
ATOM     29  C   UNL     1      -0.544  11.648  11.738  0.00  0.00    +0.068 A 
ATOM     30  C   UNL     1      -0.677  12.954  11.228  0.00  0.00    +0.008 A 
ATOM     31  C   UNL     1      -0.728  14.176  11.947  0.00  0.00    +0.010 A 
ATOM     32  C   UNL     1      -0.867  15.359  11.296  0.00  0.00    +0.001 A 
ATOM     33  C   UNL     1      -0.963  15.422   9.911  0.00  0.00    +0.001 A 
ATOM     34  C   UNL     1      -0.918  14.257   9.173  0.00  0.00    +0.016 A 
ATOM     35  C   UNL     1      -0.778  13.048   9.820  0.00  0.00    +0.021 A 
ATOM     36  S   UNL     1      -0.677  11.358   9.284  0.00  0.00    -0.082 S 
ATOM     37 CL   UNL     1      -0.420  11.392  13.450  0.00  0.00    -0.082 Cl
ENDBRANCH  25  28
ENDBRANCH  23  24
ENDBRANCH   2  23
TORSDOF 8
