REMARK  Name = ZINC40317126
REMARK  9 active torsions:
REMARK  status: ('A' for Active; 'I' for Inactive)
REMARK    1  A    between atoms: C_5  and  O_7
REMARK    2  A    between atoms: O_7  and  C_8
REMARK    3  A    between atoms: C_8  and  C_9
REMARK    4  A    between atoms: C_9  and  C_11
REMARK    5  A    between atoms: C_9  and  O_30
REMARK    6  A    between atoms: C_11  and  N_12
REMARK    7  A    between atoms: N_12  and  C_13
REMARK    8  A    between atoms: N_12  and  C_22
REMARK    9  A    between atoms: C_13  and  C_14
REMARK                            x       y       z     vdW  Elec       q    Type
REMARK                         _______ _______ _______ _____ _____    ______ ____
ROOT
ATOM      1  N   UNL     1      -1.226  -6.446   0.913  0.00  0.00    +0.387 N 
ATOM      2  H   UNL     1      -0.985  -7.081   1.659  0.00  0.00    -0.081 HD
ENDROOT
BRANCH   1   3
ATOM      3  C   UNL     1      -0.051  -6.223   0.061  0.00  0.00    -0.045 C 
ATOM      4  C   UNL     1      -0.417  -5.271  -1.090  0.00  0.00    +0.009 C 
ATOM      5  C   UNL     1       0.702  -5.282  -2.160  0.00  0.00    +0.164 C 
ATOM      6  S   UNL     1       1.420  -6.965  -1.976  0.00  0.00    -0.033 S 
ATOM      7  O   UNL     1       2.776  -6.847  -1.566  0.00  0.00    -0.174 OA
ATOM      8  O   UNL     1       1.103  -7.732  -3.129  0.00  0.00    -0.174 OA
ATOM      9  C   UNL     1       0.415  -7.572  -0.556  0.00  0.00    +0.151 C 
ENDBRANCH   1   3
BRANCH   1  10
ATOM     10  C   UNL     1      -1.669  -5.167   1.483  0.00  0.00    -0.043 C 
BRANCH  10  11
ATOM     11  C   UNL     1      -0.615  -4.655   2.467  0.00  0.00    +0.135 C 
BRANCH  11  12
ATOM     12  O   UNL     1       0.566  -4.287   1.751  0.00  0.00    -0.390 OA
ATOM     13  H   UNL     1       0.445  -3.538   1.151  0.00  0.00    +0.210 HD
ENDBRANCH  11  12
BRANCH  11  14
ATOM     14  C   UNL     1      -1.162  -3.435   3.211  0.00  0.00    +0.258 C 
BRANCH  14  15
ATOM     15  O   UNL     1      -0.225  -3.027   4.210  0.00  0.00    -0.488 OA
BRANCH  15  20
ATOM     16  C   UNL     1      -2.104  -0.201   5.521  0.00  0.00    +0.004 A 
ATOM     17  C   UNL     1      -1.243   0.246   6.507  0.00  0.00    +0.001 A 
ATOM     18  C   UNL     1      -0.041  -0.402   6.724  0.00  0.00    +0.019 A 
ATOM     19  C   UNL     1       0.302  -1.499   5.957  0.00  0.00    +0.059 A 
ATOM     20  C   UNL     1      -0.561  -1.949   4.967  0.00  0.00    +0.135 A 
ATOM     21  C   UNL     1      -1.765  -1.296   4.751  0.00  0.00    +0.047 A 
ATOM     22 BR   UNL     1       1.946  -2.385   6.254  0.00  0.00    -0.047 Br
ENDBRANCH  15  20
ENDBRANCH  14  15
ENDBRANCH  11  14
ENDBRANCH  10  11
ENDBRANCH   1  10
BRANCH   1  23
ATOM     23  C   UNL     1      -2.311  -7.025   0.109  0.00  0.00    -0.038 C 
BRANCH  23  24
ATOM     24  C   UNL     1      -2.197  -8.528   0.120  0.00  0.00    -0.010 A 
ATOM     25  C   UNL     1      -2.051  -9.220  -1.070  0.00  0.00    +0.126 A 
ATOM     26  C   UNL     1      -1.947 -10.601  -1.059  0.00  0.00    +0.038 A 
ATOM     27  C   UNL     1      -1.988 -11.287   0.140  0.00  0.00    +0.004 A 
ATOM     28  C   UNL     1      -2.133 -10.596   1.328  0.00  0.00    +0.020 A 
ATOM     29  C   UNL     1      -2.232  -9.216   1.319  0.00  0.00    +0.045 A 
ATOM     30 CL   UNL     1      -2.407  -8.348   2.813  0.00  0.00    -0.083 Cl
ATOM     31  F   UNL     1      -2.012  -8.549  -2.242  0.00  0.00    -0.205 F 
ENDBRANCH  23  24
ENDBRANCH   1  23
TORSDOF 9
