REMARK  Name = ZINC09080113
REMARK  11 active torsions:
REMARK  status: ('A' for Active; 'I' for Inactive)
REMARK    1  A    between atoms: C_1  and  C_2
REMARK    2  A    between atoms: C_5  and  S_8
REMARK    3  A    between atoms: S_8  and  C_11
REMARK    4  A    between atoms: C_11  and  C_13
REMARK    5  A    between atoms: C_11  and  C_24
REMARK    6  A    between atoms: C_13  and  N_14
REMARK    7  A    between atoms: N_14  and  S_15
REMARK    8  A    between atoms: S_15  and  C_18
REMARK    9  A    between atoms: C_27  and  N_30
REMARK   10  A    between atoms: N_30  and  C_31
REMARK   11  A    between atoms: N_30  and  C_32
REMARK                            x       y       z     vdW  Elec       q    Type
REMARK                         _______ _______ _______ _____ _____    ______ ____
ROOT
ATOM      1  C   UNL     1      -2.513   0.977   0.024  0.00  0.00    +0.181 C 
ENDROOT
BRANCH   1   2
ATOM      2  C   UNL     1      -1.220   1.750   0.021  0.00  0.00    -0.022 A 
ATOM      3  C   UNL     1      -0.013   1.076  -0.003  0.00  0.00    +0.007 A 
ATOM      4  C   UNL     1       1.174   1.782  -0.012  0.00  0.00    +0.023 A 
ATOM      5  C   UNL     1       1.155   3.171   0.009  0.00  0.00    +0.029 A 
ATOM      6  C   UNL     1      -0.060   3.845   0.040  0.00  0.00    +0.023 A 
ATOM      7  C   UNL     1      -1.243   3.133   0.048  0.00  0.00    +0.007 A 
BRANCH   5   8
ATOM      8  N   UNL     1       2.353   3.888   0.000  0.00  0.00    -0.336 N 
ATOM      9  C   UNL     1       3.632   3.179   0.094  0.00  0.00    +0.129 C 
ATOM     10  C   UNL     1       2.332   5.349  -0.104  0.00  0.00    +0.129 C 
ENDBRANCH   5   8
ENDBRANCH   1   2
BRANCH   1  11
ATOM     11  S   UNL     1      -3.454   1.377   1.522  0.00  0.00    +0.005 S 
ATOM     12  O   UNL     1      -4.750   0.797   1.456  0.00  0.00    -0.169 OA
ATOM     13  O   UNL     1      -2.640   1.201   2.673  0.00  0.00    -0.169 OA
BRANCH  11  18
ATOM     14  C   UNL     1      -4.412   7.326   1.208  0.00  0.00    +0.044 C 
ATOM     15  C   UNL     1      -4.173   5.840   1.287  0.00  0.00    -0.050 A 
ATOM     16  C   UNL     1      -5.086   4.963   0.733  0.00  0.00    +0.005 A 
ATOM     17  C   UNL     1      -4.867   3.600   0.805  0.00  0.00    +0.027 A 
ATOM     18  C   UNL     1      -3.734   3.114   1.431  0.00  0.00    +0.089 A 
ATOM     19  C   UNL     1      -2.823   3.991   1.990  0.00  0.00    +0.027 A 
ATOM     20  C   UNL     1      -3.041   5.355   1.914  0.00  0.00    +0.005 A 
ENDBRANCH  11  18
ENDBRANCH   1  11
BRANCH   1  21
ATOM     21  C   UNL     1      -3.335   1.353  -1.210  0.00  0.00    +0.137 C 
BRANCH  21  22
ATOM     22  N   UNL     1      -4.593   0.602  -1.208  0.00  0.00    -0.187 NA
ATOM     23  H   UNL     1      -4.697  -0.166  -0.625  0.00  0.00    +0.148 HD
BRANCH  22  24
ATOM     24  S   UNL     1      -5.835   1.062  -2.201  0.00  0.00    +0.065 S 
ATOM     25  O   UNL     1      -6.890   0.134  -1.990  0.00  0.00    -0.153 OA
ATOM     26  O   UNL     1      -6.004   2.461  -2.017  0.00  0.00    -0.153 OA
BRANCH  24  27
ATOM     27  C   UNL     1      -5.288   0.835  -3.860  0.00  0.00    +0.144 A 
ATOM     28  C   UNL     1      -5.398  -0.260  -4.652  0.00  0.00    +0.038 A 
ATOM     29  C   UNL     1      -4.890  -0.211  -5.937  0.00  0.00    +0.030 A 
ATOM     30  C   UNL     1      -4.297   0.931  -6.367  0.00  0.00    +0.080 A 
ATOM     31  S   UNL     1      -4.453   1.988  -4.937  0.00  0.00    -0.057 S 
ATOM     32 CL   UNL     1      -3.580   1.277  -7.909  0.00  0.00    -0.076 Cl
ENDBRANCH  24  27
ENDBRANCH  22  24
ENDBRANCH  21  22
ENDBRANCH   1  21
TORSDOF 8
