REMARK  Name = ZINC14275785
REMARK  9 active torsions:
REMARK  status: ('A' for Active; 'I' for Inactive)
REMARK    1  A    between atoms: C_1  and  C_2
REMARK    2  A    between atoms: C_2  and  C_3
REMARK    3  A    between atoms: C_6  and  N_9
REMARK    4  A    between atoms: C_13  and  C_33
REMARK    5  A    between atoms: C_14  and  N_18
REMARK    6  A    between atoms: N_18  and  C_19
REMARK    7  A    between atoms: C_19  and  N_21
REMARK    8  A    between atoms: C_22  and  C_24
REMARK    9  A    between atoms: C_25  and  C_26
REMARK                            x       y       z     vdW  Elec       q    Type
REMARK                         _______ _______ _______ _____ _____    ______ ____
ROOT
ATOM      1  N   UNL     1       0.729  -8.195   0.253  0.00  0.00    -0.149 N 
ATOM      2  N   UNL     1       2.014  -8.119   0.292  0.00  0.00    -0.147 NA
ATOM      3  C   UNL     1       2.370  -6.845   0.225  0.00  0.00    +0.114 A 
ATOM      4  C   UNL     1       3.577  -6.125   0.221  0.00  0.00    +0.037 A 
ATOM      5  C   UNL     1       3.549  -4.770   0.136  0.00  0.00    -0.027 A 
ATOM      6  C   UNL     1       2.342  -4.064   0.051  0.00  0.00    +0.038 A 
ATOM      7  C   UNL     1       1.137  -4.705   0.055  0.00  0.00    +0.055 A 
ATOM      8  C   UNL     1       1.101  -6.107   0.136  0.00  0.00    +0.115 A 
ATOM      9  N   UNL     1       0.164  -7.042   0.162  0.00  0.00    -0.147 NA
ATOM     10  C   UNL     1       4.849  -4.007   0.132  0.00  0.00    +0.046 C 
ENDROOT
BRANCH   1  14
ATOM     11  C   UNL     1      -1.374 -11.790   0.403  0.00  0.00    -0.047 A 
ATOM     12  C   UNL     1      -2.059 -10.592   0.306  0.00  0.00    +0.006 A 
ATOM     13  C   UNL     1      -1.365  -9.400   0.257  0.00  0.00    +0.030 A 
ATOM     14  C   UNL     1       0.022  -9.403   0.304  0.00  0.00    +0.086 A 
ATOM     15  C   UNL     1       0.708 -10.607   0.396  0.00  0.00    +0.030 A 
ATOM     16  C   UNL     1       0.008 -11.796   0.451  0.00  0.00    +0.006 A 
BRANCH  11  18
ATOM     17  C   UNL     1      -2.343 -13.617  -0.964  0.00  0.00    +0.009 C 
ATOM     18  C   UNL     1      -2.134 -13.089   0.457  0.00  0.00    +0.032 C 
ENDBRANCH  11  18
ENDBRANCH   1  14
BRANCH   6  19
ATOM     19  N   UNL     1       2.373  -2.667  -0.035  0.00  0.00    -0.296 N 
ATOM     20  H   UNL     1       2.957  -2.159   0.548  0.00  0.00    +0.154 HD
BRANCH  19  21
ATOM     21  C   UNL     1       1.590  -2.030  -0.928  0.00  0.00    +0.141 C 
ATOM     22  S   UNL     1       0.664  -2.930  -2.052  0.00  0.00    -0.018 S 
BRANCH  21  23
ATOM     23  N   UNL     1       1.536  -0.683  -0.936  0.00  0.00    -0.264 N 
ATOM     24  C   UNL     1       0.753  -0.045  -1.829  0.00  0.00    +0.242 C 
ATOM     25  O   UNL     1       0.095  -0.686  -2.627  0.00  0.00    -0.270 OA
ATOM     26  H   UNL     1       2.061  -0.173  -0.299  0.00  0.00    +0.157 HD
BRANCH  24  27
ATOM     27  C   UNL     1       0.695   1.416  -1.837  0.00  0.00    +0.068 C 
ATOM     28  C   UNL     1      -0.085   2.054  -2.735  0.00  0.00    +0.013 C 
BRANCH  28  29
ATOM     29  C   UNL     1      -0.144   3.525  -2.744  0.00  0.00    -0.025 A 
ATOM     30  C   UNL     1       0.602   4.263  -1.820  0.00  0.00    +0.009 A 
ATOM     31  C   UNL     1       0.546   5.640  -1.837  0.00  0.00    +0.020 A 
ATOM     32  C   UNL     1      -0.255   6.293  -2.760  0.00  0.00    +0.041 A 
ATOM     33  C   UNL     1      -1.001   5.567  -3.675  0.00  0.00    +0.020 A 
ATOM     34  C   UNL     1      -0.951   4.190  -3.673  0.00  0.00    +0.009 A 
ATOM     35 CL   UNL     1      -0.326   8.027  -2.770  0.00  0.00    -0.084 Cl
ENDBRANCH  28  29
ENDBRANCH  24  27
ENDBRANCH  21  23
ENDBRANCH  19  21
ENDBRANCH   6  19
TORSDOF 7
