REMARK  Name = ZINC11416338
REMARK  12 active torsions:
REMARK  status: ('A' for Active; 'I' for Inactive)
REMARK    1  A    between atoms: C_1  and  C_2
REMARK    2  A    between atoms: C_2  and  C_4
REMARK    3  A    between atoms: C_2  and  N_67
REMARK    4  A    between atoms: C_7  and  S_16
REMARK    5  A    between atoms: N_8  and  C_9
REMARK    6  A    between atoms: S_16  and  C_17
REMARK    7  A    between atoms: C_17  and  C_18
REMARK    8  A    between atoms: N_20  and  C_21
REMARK    9  A    between atoms: C_21  and  C_22
REMARK   10  A    between atoms: C_22  and  C_23
REMARK   11  A    between atoms: C_28  and  O_29
REMARK   12  A    between atoms: O_29  and  C_30
REMARK                            x       y       z     vdW  Elec       q    Type
REMARK                         _______ _______ _______ _____ _____    ______ ____
ROOT
ATOM      1  C   UNL     1      -1.815   2.548  -8.323  0.00  0.00    +0.125 A 
ATOM      2  N   UNL     1      -2.390   3.012  -7.250  0.00  0.00    -0.135 NA
ATOM      3  N   UNL     1      -1.683   2.735  -6.213  0.00  0.00    -0.122 NA
ATOM      4  C   UNL     1      -0.606   2.074  -6.570  0.00  0.00    +0.197 A 
ATOM      5  N   UNL     1      -0.653   1.938  -7.930  0.00  0.00    -0.275 N 
ENDROOT
BRANCH   5   6
ATOM      6  C   UNL     1       0.290   1.302  -8.752  0.00  0.00    +0.050 A 
ATOM      7  C   UNL     1       1.009   2.039  -9.684  0.00  0.00    +0.029 A 
ATOM      8  C   UNL     1       1.941   1.412 -10.487  0.00  0.00    +0.040 A 
ATOM      9  C   UNL     1       2.151   0.048 -10.372  0.00  0.00    +0.124 A 
ATOM     10  C   UNL     1       1.431  -0.689  -9.447  0.00  0.00    +0.040 A 
ATOM     11  C   UNL     1       0.502  -0.065  -8.638  0.00  0.00    +0.029 A 
ATOM     12  F   UNL     1       3.059  -0.564 -11.163  0.00  0.00    -0.205 F 
ENDBRANCH   5   6
BRANCH   1  14
ATOM     13  C   UNL     1      -3.511   1.716  -9.928  0.00  0.00    -0.005 C 
ATOM     14  C   UNL     1      -2.328   2.667  -9.735  0.00  0.00    -0.002 C 
BRANCH  14  20
ATOM     15  C   UNL     1      -3.245   4.208 -11.361  0.00  0.00    -0.078 C 
ATOM     16  C   UNL     1      -3.825   5.613 -11.540  0.00  0.00    -0.019 C 
ATOM     17  C   UNL     1      -2.740   6.650 -11.233  0.00  0.00    -0.004 C 
ATOM     18  C   UNL     1      -2.223   6.430  -9.809  0.00  0.00    -0.019 C 
ATOM     19  C   UNL     1      -1.690   5.001  -9.680  0.00  0.00    -0.078 C 
ATOM     20  N   UNL     1      -2.788   4.052  -9.964  0.00  0.00    +0.386 N 
ATOM     21  H   UNL     1      -3.572   4.252  -9.332  0.00  0.00    -0.081 HD
ENDBRANCH  14  20
ENDBRANCH   1  14
BRANCH   4  22
ATOM     22  S   UNL     1       0.663   1.481  -5.501  0.00  0.00    -0.076 S 
BRANCH  22  23
ATOM     23  C   UNL     1       0.020   2.048  -3.906  0.00  0.00    +0.173 C 
BRANCH  23  24
ATOM     24  C   UNL     1       0.970   1.642  -2.809  0.00  0.00    +0.223 C 
ATOM     25  O   UNL     1       1.981   1.029  -3.078  0.00  0.00    -0.275 OA
ATOM     26  N   UNL     1       0.695   1.959  -1.528  0.00  0.00    -0.314 N 
ATOM     27  H   UNL     1      -0.114   2.449  -1.313  0.00  0.00    +0.149 HD
BRANCH  26  28
ATOM     28  C   UNL     1       1.618   1.564  -0.461  0.00  0.00    +0.109 C 
BRANCH  28  29
ATOM     29  C   UNL     1       1.074   2.043   0.886  0.00  0.00    +0.057 C 
BRANCH  29  30
ATOM     30  C   UNL     1       2.024   1.636   1.984  0.00  0.00    -0.004 A 
ATOM     31  C   UNL     1       1.805   0.469   2.690  0.00  0.00    +0.007 A 
ATOM     32  C   UNL     1       2.678   0.093   3.694  0.00  0.00    +0.000 A 
ATOM     33  C   UNL     1       3.767   0.889   4.000  0.00  0.00    +0.004 A 
ATOM     34  C   UNL     1       3.987   2.060   3.301  0.00  0.00    +0.046 A 
ATOM     35  C   UNL     1       3.115   2.437   2.290  0.00  0.00    +0.123 A 
BRANCH  35  36
ATOM     36  O   UNL     1       3.329   3.588   1.600  0.00  0.00    -0.495 OA
ATOM     37  C   UNL     1       4.472   4.362   1.969  0.00  0.00    +0.277 C 
ENDBRANCH  35  36
ENDBRANCH  29  30
ENDBRANCH  28  29
ENDBRANCH  26  28
ENDBRANCH  23  24
ENDBRANCH  22  23
ENDBRANCH   4  22
TORSDOF 10
