REMARK  Name = ZINC14112342
REMARK  6 active torsions:
REMARK  status: ('A' for Active; 'I' for Inactive)
REMARK    1  A    between atoms: C_1  and  C_2
REMARK    2  A    between atoms: C_7  and  C_14
REMARK    3  A    between atoms: C_11  and  C_12
REMARK    4  A    between atoms: C_14  and  S_15
REMARK    5  A    between atoms: S_15  and  C_16
REMARK    6  A    between atoms: N_20  and  C_21
REMARK                            x       y       z     vdW  Elec       q    Type
REMARK                         _______ _______ _______ _____ _____    ______ ____
ROOT
ATOM      1  C   UNL     1       2.433   1.005  -0.478  0.00  0.00    +0.044 C 
ATOM      2  C   UNL     1       1.162   1.772  -0.219  0.00  0.00    -0.045 A 
ATOM      3  C   UNL     1      -0.021   1.076   0.021  0.00  0.00    +0.004 A 
ATOM      4  C   UNL     1      -1.187   1.740   0.253  0.00  0.00    +0.010 A 
ATOM      5  C   UNL     1      -1.197   3.144   0.261  0.00  0.00    +0.001 A 
ATOM      6  C   UNL     1      -2.381   3.868   0.501  0.00  0.00    +0.017 A 
ATOM      7  C   UNL     1      -2.317   5.231   0.488  0.00  0.00    +0.000 A 
ATOM      8  C   UNL     1      -1.100   5.868   0.242  0.00  0.00    +0.134 A 
ATOM      9  N   UNL     1       0.000   5.191   0.018  0.00  0.00    -0.235 NA
ATOM     10  C   UNL     1       0.005   3.853   0.017  0.00  0.00    +0.076 A 
ATOM     11  C   UNL     1       1.188   3.132  -0.224  0.00  0.00    -0.022 A 
ATOM     12  C   UNL     1       2.479   3.863  -0.487  0.00  0.00    +0.046 C 
ATOM     13 CL   UNL     1      -1.042   7.603   0.230  0.00  0.00    -0.062 Cl
ENDROOT
BRANCH   7  14
ATOM     14  C   UNL     1      -3.558   6.047   0.740  0.00  0.00    +0.115 C 
BRANCH  14  15
ATOM     15  S   UNL     1      -4.394   6.373  -0.832  0.00  0.00    -0.080 S 
BRANCH  15  16
ATOM     16  C   UNL     1      -5.769   7.314  -0.258  0.00  0.00    +0.210 A 
ATOM     17  N   UNL     1      -6.028   7.638   0.990  0.00  0.00    -0.102 NA
ATOM     18  N   UNL     1      -7.108   8.329   1.061  0.00  0.00    -0.022 NA
ATOM     19  N   UNL     1      -7.612   8.495  -0.114  0.00  0.00    -0.043 NA
ATOM     20  N   UNL     1      -6.755   7.845  -1.020  0.00  0.00    -0.217 N 
BRANCH  20  21
ATOM     21  C   UNL     1      -6.899   7.759  -2.475  0.00  0.00    +0.112 C 
ATOM     22  C   UNL     1      -7.987   8.613  -3.129  0.00  0.00    +0.029 C 
ATOM     23  C   UNL     1      -8.166   7.096  -3.021  0.00  0.00    +0.029 C 
ENDBRANCH  20  21
ENDBRANCH  15  16
ENDBRANCH  14  15
ENDBRANCH   7  14
TORSDOF 4
