REMARK  Name = ZINC09859551
REMARK  6 active torsions:
REMARK  status: ('A' for Active; 'I' for Inactive)
REMARK    1  A    between atoms: C_1  and  O_2
REMARK    2  A    between atoms: O_2  and  C_3
REMARK    3  A    between atoms: C_6  and  C_9
REMARK    4  A    between atoms: C_13  and  S_15
REMARK    5  A    between atoms: S_15  and  C_16
REMARK    6  A    between atoms: C_16  and  C_17
REMARK                            x       y       z     vdW  Elec       q    Type
REMARK                         _______ _______ _______ _____ _____    ______ ____
ROOT
ATOM      1  C   UNL     1      -5.719   1.414  -1.079  0.00  0.00    +0.165 A 
ATOM      2  N   UNL     1      -4.572   0.863  -0.706  0.00  0.00    -0.193 NA
ATOM      3  C   UNL     1      -3.539   1.620  -0.343  0.00  0.00    +0.228 A 
ATOM      4  C   UNL     1      -3.677   2.998  -0.358  0.00  0.00    +0.051 A 
ATOM      5  C   UNL     1      -4.895   3.546  -0.755  0.00  0.00    +0.108 A 
ATOM      6  N   UNL     1      -5.886   2.729  -1.106  0.00  0.00    -0.221 NA
ATOM      7  C   UNL     1      -2.542   3.896   0.045  0.00  0.00    +0.082 C 
ATOM      8  C   UNL     1      -1.241   3.138   0.029  0.00  0.00    +0.001 A 
ATOM      9  C   UNL     1      -0.049   3.840   0.021  0.00  0.00    +0.022 A 
ATOM     10  C   UNL     1       1.157   3.164   0.007  0.00  0.00    +0.018 A 
ATOM     11  C   UNL     1       1.174   1.780   0.000  0.00  0.00    +0.019 A 
ATOM     12  C   UNL     1      -0.013   1.076   0.008  0.00  0.00    +0.048 A 
ATOM     13  C   UNL     1      -1.227   1.753   0.017  0.00  0.00    +0.134 A 
ATOM     14  O   UNL     1      -2.380   1.040   0.033  0.00  0.00    -0.437 OA
ATOM     15 BR   UNL     1       2.783   4.130  -0.003  0.00  0.00    -0.050 Br
ENDROOT
BRANCH   1  19
ATOM     16  C   UNL     1      -8.950  -1.105  -2.217  0.00  0.00    +0.120 A 
ATOM     17  C   UNL     1      -7.741  -1.664  -1.825  0.00  0.00    +0.046 A 
ATOM     18  C   UNL     1      -6.691  -0.850  -1.455  0.00  0.00    +0.015 A 
ATOM     19  C   UNL     1      -6.845   0.536  -1.476  0.00  0.00    +0.019 A 
ATOM     20  C   UNL     1      -8.062   1.094  -1.866  0.00  0.00    +0.015 A 
ATOM     21  C   UNL     1      -9.106   0.275  -2.239  0.00  0.00    +0.046 A 
BRANCH  16  23
ATOM     22  C   UNL     1     -11.198  -1.269  -2.973  0.00  0.00    +0.277 C 
ATOM     23  O   UNL     1      -9.982  -1.910  -2.580  0.00  0.00    -0.495 OA
ENDBRANCH  16  23
ENDBRANCH   1  19
BRANCH   5  24
ATOM     24  S   UNL     1      -5.121   5.293  -0.793  0.00  0.00    -0.096 S 
BRANCH  24  25
ATOM     25  C   UNL     1      -6.836   5.376  -1.367  0.00  0.00    +0.171 C 
BRANCH  25  26
ATOM     26  C   UNL     1      -7.259   6.818  -1.478  0.00  0.00    +0.221 C 
ATOM     27  O   UNL     1      -6.478   7.703  -1.197  0.00  0.00    -0.275 OA
ATOM     28  N   UNL     1      -8.505   7.125  -1.890  0.00  0.00    -0.329 N 
ATOM     29  H   UNL     1      -8.814   8.178  -1.971  0.00  0.00    +0.145 HD
ATOM     30  H   UNL     1      -9.213   6.323  -2.145  0.00  0.00    +0.145 HD
ENDBRANCH  25  26
ENDBRANCH  24  25
ENDBRANCH   5  24
TORSDOF 5
