REMARK  Name = ZINC42081130
REMARK  4 active torsions:
REMARK  status: ('A' for Active; 'I' for Inactive)
REMARK    1  A    between atoms: C_1  and  C_2
REMARK    2  A    between atoms: C_2  and  C_3
REMARK    3  A    between atoms: C_9  and  N_11
REMARK    4  A    between atoms: N_11  and  C_12
REMARK                            x       y       z     vdW  Elec       q    Type
REMARK                         _______ _______ _______ _____ _____    ______ ____
ROOT
ATOM      1  C   UNL     1      -0.346  -4.069   0.811  0.00  0.00    +0.049 C 
ATOM      2  C   UNL     1       0.218  -4.267  -0.577  0.00  0.00    -0.030 A 
ATOM      3  C   UNL     1       1.414  -3.912  -1.161  0.00  0.00    +0.004 A 
ATOM      4  C   UNL     1       1.658  -4.234  -2.484  0.00  0.00    +0.001 A 
ATOM      5  C   UNL     1       0.700  -4.912  -3.216  0.00  0.00    +0.017 A 
ATOM      6  C   UNL     1      -0.499  -5.269  -2.633  0.00  0.00    +0.039 A 
ATOM      7  C   UNL     1      -0.752  -4.948  -1.300  0.00  0.00    +0.049 A 
ATOM      8  N   UNL     1      -1.868  -5.194  -0.498  0.00  0.00    -0.285 N 
ATOM      9  C   UNL     1      -1.714  -4.715   0.751  0.00  0.00    +0.208 C 
ATOM     10  O   UNL     1      -2.517  -4.787   1.657  0.00  0.00    -0.277 OA
ATOM     11 BR   UNL     1      -1.802  -6.194  -3.644  0.00  0.00    -0.048 Br
ATOM     12  H   UNL     1      -2.663  -5.657  -0.805  0.00  0.00    +0.155 HD
ENDROOT
BRANCH   1  13
ATOM     13  N   UNL     1      -0.466  -2.637   1.119  0.00  0.00    +0.391 N 
ATOM     14  H   UNL     1      -1.014  -2.518   1.957  0.00  0.00    -0.084 HD
ATOM     15  H   UNL     1      -0.920  -2.166   0.350  0.00  0.00    -0.084 HD
BRANCH  13  21
ATOM     16  C   UNL     1       0.756  -0.553   1.519  0.00  0.00    -0.025 C 
ATOM     17  C   UNL     1      -0.115  -0.263   2.743  0.00  0.00    +0.002 C 
ATOM     18  C   UNL     1       0.523  -0.890   3.983  0.00  0.00    +0.000 C 
ATOM     19  C   UNL     1       0.639  -2.403   3.788  0.00  0.00    -0.002 C 
ATOM     20  C   UNL     1       1.510  -2.694   2.564  0.00  0.00    -0.015 C 
ATOM     21  C   UNL     1       0.872  -2.066   1.323  0.00  0.00    -0.067 C 
BRANCH  16  23
ATOM     22  C   UNL     1       0.116   1.597   0.420  0.00  0.00    +0.004 C 
ATOM     23  C   UNL     1       0.118   0.074   0.278  0.00  0.00    -0.002 C 
ENDBRANCH  16  23
ENDBRANCH  13  21
ENDBRANCH   1  13
TORSDOF 3
