REMARK  Name = ZINC22616224
REMARK  8 active torsions:
REMARK  status: ('A' for Active; 'I' for Inactive)
REMARK    1  A    between atoms: C_1  and  C_2
REMARK    2  A    between atoms: C_6  and  N_8
REMARK    3  A    between atoms: C_12  and  S_14
REMARK    4  A    between atoms: S_14  and  C_15
REMARK    5  A    between atoms: C_15  and  C_17
REMARK    6  A    between atoms: C_15  and  C_18
REMARK    7  A    between atoms: C_24  and  C_30
REMARK    8  A    between atoms: C_25  and  C_29
REMARK                            x       y       z     vdW  Elec       q    Type
REMARK                         _______ _______ _______ _____ _____    ______ ____
ROOT
ATOM      1  S   UNL     1      -0.353  -8.497   3.374  0.00  0.00    -0.086 S 
ENDROOT
BRANCH   1   6
ATOM      2  N   UNL     1       0.050  -2.797   2.390  0.00  0.00    -0.292 N 
ATOM      3  C   UNL     1      -0.037  -4.185   2.383  0.00  0.00    +0.187 A 
ATOM      4  N   UNL     1      -0.044  -5.016   1.359  0.00  0.00    -0.125 NA
ATOM      5  N   UNL     1      -0.139  -6.371   1.578  0.00  0.00    -0.133 NA
ATOM      6  C   UNL     1      -0.222  -6.832   2.811  0.00  0.00    +0.161 A 
ATOM      7  S   UNL     1      -0.161  -5.319   3.757  0.00  0.00    -0.024 S 
ATOM      8  H   UNL     1       0.129  -2.321   3.232  0.00  0.00    +0.154 HD
BRANCH   2  14
ATOM      9  C   UNL     1      -1.263  -2.539  -2.339  0.00  0.00    +0.044 C 
ATOM     10  C   UNL     1      -0.605  -1.940  -1.123  0.00  0.00    -0.049 A 
ATOM     11  C   UNL     1      -0.025  -0.686  -1.198  0.00  0.00    +0.003 A 
ATOM     12  C   UNL     1       0.580  -0.133  -0.085  0.00  0.00    +0.002 A 
ATOM     13  C   UNL     1       0.607  -0.830   1.107  0.00  0.00    +0.023 A 
ATOM     14  C   UNL     1       0.025  -2.089   1.186  0.00  0.00    +0.033 A 
ATOM     15  C   UNL     1      -0.587  -2.640   0.067  0.00  0.00    +0.026 A 
ENDBRANCH   2  14
ENDBRANCH   1   6
BRANCH   1  16
ATOM     16  C   UNL     1      -0.347  -9.478   1.848  0.00  0.00    +0.116 C 
ATOM     17  C   UNL     1      -1.602  -9.159   1.033  0.00  0.00    +0.027 C 
BRANCH  16  18
ATOM     18  C   UNL     1      -0.332 -10.944   2.194  0.00  0.00    +0.124 A 
ATOM     19  N   UNL     1      -0.829 -11.353   3.390  0.00  0.00    -0.309 N 
ATOM     20  H   UNL     1      -1.188 -10.695   4.005  0.00  0.00    +0.170 HD
ATOM     21  C   UNL     1      -0.835 -12.653   3.738  0.00  0.00    +0.260 A 
ATOM     22  O   UNL     1      -1.286 -13.004   4.815  0.00  0.00    -0.267 OA
ATOM     23  C   UNL     1      -0.303 -13.619   2.823  0.00  0.00    +0.075 A 
ATOM     24  C   UNL     1      -0.197 -15.059   2.963  0.00  0.00    -0.026 A 
ATOM     25  C   UNL     1       0.343 -15.777   1.965  0.00  0.00    -0.008 A 
ATOM     26  S   UNL     1       0.755 -14.543   0.745  0.00  0.00    -0.073 S 
ATOM     27  C   UNL     1       0.190 -13.101   1.611  0.00  0.00    +0.116 A 
ATOM     28  N   UNL     1       0.155 -11.801   1.336  0.00  0.00    -0.225 NA
ATOM     29  C   UNL     1       0.552 -17.267   1.893  0.00  0.00    +0.052 C 
ATOM     30  C   UNL     1      -0.687 -15.742   4.214  0.00  0.00    +0.045 C 
ENDBRANCH  16  18
ENDBRANCH   1  16
TORSDOF 4
