REMARK  Name = ZINC65305862
REMARK  15 active torsions:
REMARK  status: ('A' for Active; 'I' for Inactive)
REMARK    1  A    between atoms: C_1  and  C_2
REMARK    2  A    between atoms: C_2  and  O_3
REMARK    3  A    between atoms: O_3  and  C_4
REMARK    4  A    between atoms: C_7  and  C_13
REMARK    5  A    between atoms: C_9  and  O_10
REMARK    6  A    between atoms: O_10  and  C_11
REMARK    7  A    between atoms: C_11  and  C_12
REMARK    8  A    between atoms: C_13  and  C_14
REMARK    9  A    between atoms: N_16  and  C_17
REMARK   10  A    between atoms: C_17  and  C_19
REMARK   11  A    between atoms: C_17  and  C_23
REMARK   12  A    between atoms: C_19  and  C_20
REMARK   13  A    between atoms: C_20  and  C_21
REMARK   14  A    between atoms: C_20  and  C_22
REMARK   15  A    between atoms: N_25  and  C_26
REMARK                            x       y       z     vdW  Elec       q    Type
REMARK                         _______ _______ _______ _____ _____    ______ ____
ROOT
ATOM      1  C   UNL     1       3.882  -8.298   0.058  0.00  0.00    +0.159 C 
ENDROOT
BRANCH   1   4
ATOM      2  C   UNL     1       2.749  -6.261   0.767  0.00  0.00    +0.218 C 
ATOM      3  O   UNL     1       3.488  -5.630   0.041  0.00  0.00    -0.275 OA
ATOM      4  N   UNL     1       2.901  -7.595   0.888  0.00  0.00    -0.304 N 
ATOM      5  H   UNL     1       2.361  -8.088   1.524  0.00  0.00    +0.149 HD
BRANCH   2   6
ATOM      6  C   UNL     1       1.662  -5.554   1.534  0.00  0.00    +0.131 C 
BRANCH   6  10
ATOM      7  C   UNL     1       1.784  -1.371   0.652  0.00  0.00    +0.162 A 
ATOM      8  C   UNL     1       1.009  -2.222  -0.119  0.00  0.00    +0.050 A 
ATOM      9  C   UNL     1       0.972  -3.573   0.168  0.00  0.00    +0.008 A 
ATOM     10  C   UNL     1       1.706  -4.079   1.225  0.00  0.00    -0.035 A 
ATOM     11  C   UNL     1       2.482  -3.236   1.998  0.00  0.00    +0.053 A 
ATOM     12  C   UNL     1       2.528  -1.881   1.712  0.00  0.00    +0.162 A 
BRANCH   7  13
ATOM     13  O   UNL     1       1.823  -0.041   0.371  0.00  0.00    -0.489 OA
BRANCH  13  15
ATOM     14  C   UNL     1       1.203   1.924  -0.893  0.00  0.00    +0.048 C 
ATOM     15  C   UNL     1       1.034   0.412  -0.732  0.00  0.00    +0.226 C 
ENDBRANCH  13  15
ENDBRANCH   7  13
BRANCH  12  16
ATOM     16  O   UNL     1       3.295  -1.050   2.468  0.00  0.00    -0.489 OA
BRANCH  16  17
ATOM     17  C   UNL     1       4.031  -1.643   3.540  0.00  0.00    +0.226 C 
ATOM     18  C   UNL     1       4.828  -0.562   4.271  0.00  0.00    +0.048 C 
ENDBRANCH  16  17
ENDBRANCH  12  16
ENDBRANCH   6  10
ENDBRANCH   2   6
ENDBRANCH   1   4
BRANCH   1  19
ATOM     19  C   UNL     1       4.266  -9.595   0.725  0.00  0.00    +0.236 C 
ATOM     20  O   UNL     1       3.760  -9.906   1.782  0.00  0.00    -0.274 OA
ATOM     21  N   UNL     1       5.171 -10.408   0.145  0.00  0.00    -0.277 N 
ATOM     22  H   UNL     1       5.576 -10.159  -0.700  0.00  0.00    +0.152 HD
BRANCH  21  23
ATOM     23  C   UNL     1       5.544 -11.668   0.793  0.00  0.00    +0.269 C 
ATOM     24  N   UNL     1       6.484 -11.412   1.891  0.00  0.00    -0.348 N 
ATOM     25  C   UNL     1       7.588 -12.044   1.617  0.00  0.00    +0.061 A 
ATOM     26  C   UNL     1       8.870 -12.168   2.322  0.00  0.00    +0.027 A 
ATOM     27  C   UNL     1       9.858 -12.910   1.782  0.00  0.00    +0.002 A 
ATOM     28  C   UNL     1       9.717 -13.582   0.555  0.00  0.00    +0.002 A 
ATOM     29  C   UNL     1       8.583 -13.534  -0.173  0.00  0.00    +0.027 A 
ATOM     30  C   UNL     1       7.438 -12.756   0.318  0.00  0.00    +0.061 A 
ATOM     31  N   UNL     1       6.247 -12.536  -0.160  0.00  0.00    -0.348 N 
ATOM     32  H   UNL     1       6.313 -10.870   2.678  0.00  0.00    +0.163 HD
ATOM     33  H   UNL     1       5.890 -12.882  -0.993  0.00  0.00    +0.163 HD
ENDBRANCH  21  23
ENDBRANCH   1  19
BRANCH   1  34
ATOM     34  C   UNL     1       3.274  -8.591  -1.314  0.00  0.00    +0.034 C 
BRANCH  34  35
ATOM     35  C   UNL     1       1.944  -9.325  -1.136  0.00  0.00    -0.015 C 
ATOM     36  C   UNL     1       1.246  -9.452  -2.492  0.00  0.00    +0.007 C 
ATOM     37  C   UNL     1       2.204 -10.720  -0.564  0.00  0.00    +0.007 C 
ENDBRANCH  34  35
ENDBRANCH   1  34
TORSDOF 11
