REMARK  Name = ZINC45247619
REMARK  9 active torsions:
REMARK  status: ('A' for Active; 'I' for Inactive)
REMARK    1  A    between atoms: C_1  and  C_2
REMARK    2  A    between atoms: C_2  and  C_4
REMARK    3  A    between atoms: C_2  and  N_11
REMARK    4  A    between atoms: C_12  and  C_14
REMARK    5  A    between atoms: C_14  and  C_16
REMARK    6  A    between atoms: C_14  and  O_17
REMARK    7  A    between atoms: O_17  and  C_18
REMARK    8  A    between atoms: C_18  and  C_20
REMARK    9  A    between atoms: C_25  and  N_26
REMARK                            x       y       z     vdW  Elec       q    Type
REMARK                         _______ _______ _______ _____ _____    ______ ____
ROOT
ATOM      1  C   UNL     1      -0.498  -0.809  -7.128  0.00  0.00    +0.080 A 
ATOM      2  C   UNL     1      -1.864  -1.062  -7.015  0.00  0.00    +0.017 A 
ATOM      3  C   UNL     1      -2.692  -0.945  -8.116  0.00  0.00    +0.013 A 
ATOM      4  C   UNL     1      -2.171  -0.573  -9.352  0.00  0.00    +0.035 A 
ATOM      5  C   UNL     1      -0.795  -0.314  -9.485  0.00  0.00    +0.054 A 
ATOM      6  C   UNL     1       0.045  -0.426  -8.369  0.00  0.00    +0.050 A 
ATOM      7  C   UNL     1      -0.240   0.079 -10.791  0.00  0.00    +0.196 C 
ATOM      8  O   UNL     1       0.950   0.302 -10.904  0.00  0.00    -0.287 OA
ATOM      9  C   UNL     1      -1.129   0.202 -11.966  0.00  0.00    +0.033 A 
ATOM     10  C   UNL     1      -0.611   0.572 -13.203  0.00  0.00    +0.012 A 
ATOM     11  C   UNL     1      -1.451   0.684 -14.297  0.00  0.00    +0.001 A 
ATOM     12  C   UNL     1      -2.805   0.431 -14.170  0.00  0.00    +0.001 A 
ATOM     13  C   UNL     1      -3.337   0.062 -12.947  0.00  0.00    +0.012 A 
ATOM     14  C   UNL     1      -2.505  -0.056 -11.836  0.00  0.00    +0.033 A 
ATOM     15  C   UNL     1      -3.063  -0.450 -10.527  0.00  0.00    +0.195 C 
ATOM     16  O   UNL     1      -4.252  -0.674 -10.414  0.00  0.00    -0.287 OA
ENDROOT
BRANCH   6  17
ATOM     17  N   UNL     1       1.395  -0.170  -8.486  0.00  0.00    -0.357 N 
ATOM     18  H   UNL     1       2.031  -0.657  -7.940  0.00  0.00    +0.142 HD
ATOM     19  H   UNL     1       1.709   0.499  -9.116  0.00  0.00    +0.142 HD
ENDBRANCH   6  17
BRANCH   1  20
ATOM     20  C   UNL     1       0.377  -0.937  -5.947  0.00  0.00    +0.342 C 
ATOM     21  O   UNL     1       1.573  -0.751  -6.055  0.00  0.00    -0.245 OA
BRANCH  20  22
ATOM     22  O   UNL     1      -0.150  -1.259  -4.750  0.00  0.00    -0.449 OA
BRANCH  22  23
ATOM     23  C   UNL     1       0.756  -1.365  -3.650  0.00  0.00    +0.259 C 
ATOM     24  C   UNL     1       1.270  -2.803  -3.550  0.00  0.00    +0.062 C 
BRANCH  23  26
ATOM     25  N   UNL     1       0.727  -0.927  -1.216  0.00  0.00    -0.306 N 
ATOM     26  C   UNL     1       0.043  -0.997  -2.374  0.00  0.00    +0.254 C 
ATOM     27  O   UNL     1      -1.147  -0.763  -2.391  0.00  0.00    -0.272 OA
ATOM     28  H   UNL     1       1.679  -1.115  -1.202  0.00  0.00    +0.149 HD
BRANCH  25  30
ATOM     29  C   UNL     1      -0.039   0.954   0.146  0.00  0.00    +0.033 C 
ATOM     30  C   UNL     1       0.034  -0.569   0.024  0.00  0.00    +0.100 C 
BRANCH  30  31
ATOM     31  C   UNL     1       0.788  -1.132   1.202  0.00  0.00    -0.027 A 
ATOM     32  C   UNL     1       2.170  -1.096   1.218  0.00  0.00    +0.008 A 
ATOM     33  C   UNL     1       2.862  -1.611   2.298  0.00  0.00    +0.038 A 
ATOM     34  C   UNL     1       2.171  -2.163   3.363  0.00  0.00    +0.123 A 
ATOM     35  C   UNL     1       0.787  -2.199   3.345  0.00  0.00    +0.038 A 
ATOM     36  C   UNL     1       0.097  -1.678   2.267  0.00  0.00    +0.008 A 
ATOM     37  F   UNL     1       2.847  -2.667   4.419  0.00  0.00    -0.205 F 
ENDBRANCH  30  31
ENDBRANCH  25  30
ENDBRANCH  23  26
ENDBRANCH  22  23
ENDBRANCH  20  22
ENDBRANCH   1  20
TORSDOF 7
