REMARK  Name = ZINC01325198
REMARK  9 active torsions:
REMARK  status: ('A' for Active; 'I' for Inactive)
REMARK    1  A    between atoms: C_1  and  C_2
REMARK    2  A    between atoms: C_2  and  C_3
REMARK    3  A    between atoms: C_3  and  C_5
REMARK    4  A    between atoms: C_3  and  N_15
REMARK    5  A    between atoms: N_9  and  C_10
REMARK    6  A    between atoms: N_15  and  C_16
REMARK    7  A    between atoms: N_15  and  C_26
REMARK    8  A    between atoms: C_16  and  C_17
REMARK    9  A    between atoms: C_26  and  C_27
REMARK                            x       y       z     vdW  Elec       q    Type
REMARK                         _______ _______ _______ _____ _____    ______ ____
ROOT
ATOM      1  N   UNL     1      -1.796  -0.048  -1.076  0.00  0.00    -0.284 NA
ENDROOT
BRANCH   1   2
ATOM      2  C   UNL     1      -1.578  -0.749   0.196  0.00  0.00    +0.127 C 
BRANCH   2   3
ATOM      3  C   UNL     1      -0.213  -0.401   0.733  0.00  0.00    +0.169 A 
ATOM      4  N   UNL     1       0.309   0.798   0.826  0.00  0.00    -0.112 NA
ATOM      5  N   UNL     1       1.487   0.680   1.335  0.00  0.00    -0.023 NA
ATOM      6  N   UNL     1       1.730  -0.562   1.569  0.00  0.00    -0.044 NA
ATOM      7  N   UNL     1       0.703  -1.260   1.216  0.00  0.00    -0.225 N 
BRANCH   7   8
ATOM      8  C   UNL     1       0.563  -2.715   1.319  0.00  0.00    +0.111 C 
ATOM      9  C   UNL     1       0.762  -3.163   2.782  0.00  0.00    +0.027 C 
ATOM     10  C   UNL     1       1.521  -4.508   2.668  0.00  0.00    +0.002 C 
ATOM     11  C   UNL     1       2.487  -4.256   1.484  0.00  0.00    +0.002 C 
ATOM     12  C   UNL     1       1.660  -3.410   0.494  0.00  0.00    +0.027 C 
ENDBRANCH   7   8
ENDBRANCH   2   3
BRANCH   2  14
ATOM     13  C   UNL     1      -4.026  -0.742   0.694  0.00  0.00    +0.006 C 
ATOM     14  C   UNL     1      -2.647  -0.321   1.204  0.00  0.00    +0.023 C 
ENDBRANCH   2  14
ENDBRANCH   1   2
BRANCH   1  15
ATOM     15  C   UNL     1      -0.931  -0.591  -2.132  0.00  0.00    +0.120 C 
BRANCH  15  16
ATOM     16  C   UNL     1      -1.480  -1.913  -2.601  0.00  0.00    -0.030 A 
ATOM     17  C   UNL     1      -1.123  -3.079  -1.950  0.00  0.00    +0.009 A 
ATOM     18  C   UNL     1      -1.625  -4.295  -2.377  0.00  0.00    +0.050 A 
ATOM     19  C   UNL     1      -2.488  -4.346  -3.460  0.00  0.00    +0.166 A 
ATOM     20  C   UNL     1      -2.848  -3.172  -4.116  0.00  0.00    +0.167 A 
ATOM     21  C   UNL     1      -2.345  -1.957  -3.679  0.00  0.00    +0.054 A 
ATOM     22  O   UNL     1      -3.697  -3.485  -5.137  0.00  0.00    -0.453 OA
ATOM     23  C   UNL     1      -3.532  -4.899  -5.355  0.00  0.00    +0.466 C 
ATOM     24  O   UNL     1      -3.112  -5.396  -4.070  0.00  0.00    -0.453 OA
ENDBRANCH  15  16
ENDBRANCH   1  15
BRANCH   1  25
ATOM     25  C   UNL     1      -1.594   1.399  -0.922  0.00  0.00    +0.126 C 
BRANCH  25  26
ATOM     26  C   UNL     1      -2.219   2.120  -2.088  0.00  0.00    +0.031 A 
ATOM     27  C   UNL     1      -3.491   2.584  -1.994  0.00  0.00    +0.020 A 
ATOM     28  C   UNL     1      -4.069   3.280  -3.142  0.00  0.00    +0.003 A 
ATOM     29  C   UNL     1      -5.377   3.778  -3.102  0.00  0.00    +0.059 A 
ATOM     30  C   UNL     1      -5.895   4.432  -4.200  0.00  0.00    +0.163 A 
ATOM     31  C   UNL     1      -5.118   4.600  -5.351  0.00  0.00    +0.164 A 
ATOM     32  C   UNL     1      -3.825   4.108  -5.400  0.00  0.00    +0.075 A 
ATOM     33  C   UNL     1      -3.289   3.447  -4.303  0.00  0.00    +0.053 A 
ATOM     34  N   UNL     1      -2.001   2.951  -4.334  0.00  0.00    -0.322 N 
ATOM     35  H   UNL     1      -1.464   3.066  -5.134  0.00  0.00    +0.169 HD
ATOM     36  C   UNL     1      -1.478   2.317  -3.271  0.00  0.00    +0.254 A 
ATOM     37  O   UNL     1      -0.335   1.897  -3.333  0.00  0.00    -0.268 OA
ATOM     38  O   UNL     1      -5.619   5.251  -6.435  0.00  0.00    -0.485 OA
ATOM     39  C   UNL     1      -7.041   5.404  -6.495  0.00  0.00    +0.270 C 
ATOM     40  C   UNL     1      -7.532   5.889  -5.125  0.00  0.00    +0.270 C 
ATOM     41  O   UNL     1      -7.170   4.909  -4.146  0.00  0.00    -0.485 OA
ENDBRANCH  25  26
ENDBRANCH   1  25
TORSDOF 8
