REMARK  Name = ZINC38600141
REMARK  5 active torsions:
REMARK  status: ('A' for Active; 'I' for Inactive)
REMARK    1  A    between atoms: C_1  and  C_2
REMARK    2  A    between atoms: C_2  and  C_3
REMARK    3  A    between atoms: C_5  and  C_17
REMARK    4  A    between atoms: C_7  and  C_15
REMARK    5  A    between atoms: C_8  and  N_14
REMARK                            x       y       z     vdW  Elec       q    Type
REMARK                         _______ _______ _______ _____ _____    ______ ____
ROOT
ATOM      1  C   UNL     1       0.842  -0.603  -1.551  0.00  0.00    +0.069 C 
ATOM      2  C   UNL     1       2.108  -0.921  -1.430  0.00  0.00    +0.030 C 
ATOM      3  C   UNL     1       3.060  -0.961  -0.266  0.00  0.00    +0.100 C 
ATOM      4  C   UNL     1       3.854  -2.244  -0.434  0.00  0.00    +0.098 C 
ATOM      5  C   UNL     1       3.766  -2.991  -1.554  0.00  0.00    +0.195 C 
ATOM      6  O   UNL     1       2.988  -2.748  -2.623  0.00  0.00    -0.448 OA
ATOM      7  C   UNL     1       2.531  -1.406  -2.817  0.00  0.00    +0.343 C 
ATOM      8  N   UNL     1       1.267  -1.352  -3.558  0.00  0.00    -0.138 NA
ATOM      9  N   UNL     1       0.402  -0.888  -2.804  0.00  0.00    -0.155 NA
ENDROOT
BRANCH   3  10
ATOM     10  C   UNL     1       3.979   0.233  -0.304  0.00  0.00    +0.002 A 
ATOM     11  C   UNL     1       4.926   0.409   0.689  0.00  0.00    +0.046 A 
ATOM     12  C   UNL     1       5.770   1.505   0.653  0.00  0.00    +0.020 A 
ATOM     13  C   UNL     1       5.666   2.424  -0.374  0.00  0.00    +0.003 A 
ATOM     14  C   UNL     1       4.721   2.248  -1.366  0.00  0.00    +0.020 A 
ATOM     15  C   UNL     1       3.881   1.149  -1.335  0.00  0.00    +0.046 A 
ATOM     16 CL   UNL     1       2.698   0.925  -2.586  0.00  0.00    -0.083 Cl
ATOM     17 CL   UNL     1       5.055  -0.745   1.980  0.00  0.00    -0.083 Cl
ENDBRANCH   3  10
BRANCH   5  18
ATOM     18  N   UNL     1       4.552  -4.114  -1.607  0.00  0.00    -0.329 N 
ATOM     19  H   UNL     1       5.133  -4.336  -0.862  0.00  0.00    +0.145 HD
ATOM     20  H   UNL     1       4.528  -4.687  -2.390  0.00  0.00    +0.145 HD
ENDBRANCH   5  18
BRANCH   1  22
ATOM     21  C   UNL     1      -0.025   1.512  -0.590  0.00  0.00    +0.010 C 
ATOM     22  C   UNL     1      -0.006  -0.012  -0.455  0.00  0.00    +0.054 C 
ENDBRANCH   1  22
BRANCH   4  23
ATOM     23  C   UNL     1       4.718  -2.672   0.625  0.00  0.00    +0.101 C 
ATOM     24  N   UNL     1       5.404  -3.011   1.464  0.00  0.00    -0.191 NA
ENDBRANCH   4  23
TORSDOF 4
