REMARK  Name = ZINC18197837
REMARK  2 active torsions:
REMARK  status: ('A' for Active; 'I' for Inactive)
REMARK    1  A    between atoms: C_1  and  C_2
REMARK    2  A    between atoms: C_7  and  C_12
REMARK                            x       y       z     vdW  Elec       q    Type
REMARK                         _______ _______ _______ _____ _____    ______ ____
ROOT
ATOM      1  C   UNL     1      -5.948  -2.479   1.053  0.00  0.00    +0.038 C 
ATOM      2  C   UNL     1      -4.936  -3.012   0.037  0.00  0.00    +0.142 C 
ATOM      3  C   UNL     1      -3.805  -2.018  -0.113  0.00  0.00    +0.036 C 
ATOM      4  C   UNL     1      -3.334  -1.644  -1.321  0.00  0.00    +0.020 C 
ATOM      5  C   UNL     1      -2.206  -0.647  -1.440  0.00  0.00    +0.060 C 
ATOM      6  C   UNL     1      -1.282  -0.765  -0.226  0.00  0.00    +0.039 C 
ATOM      7  C   UNL     1      -2.113  -0.516   1.038  0.00  0.00    +0.088 C 
ATOM      8  C   UNL     1      -3.255  -1.492   1.071  0.00  0.00    +0.163 C 
ATOM      9  O   UNL     1      -3.714  -1.834   2.143  0.00  0.00    -0.292 OA
ATOM     10  N   UNL     1      -3.857  -2.145  -2.489  0.00  0.00    -0.287 N 
ATOM     11  C   UNL     1      -5.074  -2.804  -2.428  0.00  0.00    +0.218 A 
ATOM     12  N   UNL     1      -5.598  -3.212  -1.245  0.00  0.00    -0.226 N 
ATOM     13  N   UNL     1      -6.818  -3.818  -1.541  0.00  0.00    -0.156 NA
ATOM     14  C   UNL     1      -6.966  -3.755  -2.841  0.00  0.00    +0.247 A 
ATOM     15  N   UNL     1      -5.905  -3.140  -3.375  0.00  0.00    -0.201 NA
ATOM     16  H   UNL     1      -3.387  -2.041  -3.332  0.00  0.00    +0.155 HD
ENDROOT
BRANCH   6  17
ATOM     17  C   UNL     1      -0.183   0.262  -0.322  0.00  0.00    -0.006 A 
ATOM     18  C   UNL     1       1.159   0.074  -0.363  0.00  0.00    +0.011 A 
ATOM     19  C   UNL     1       1.987   1.177  -0.453  0.00  0.00    +0.008 A 
ATOM     20  C   UNL     1       1.433   2.413  -0.498  0.00  0.00    +0.045 A 
ATOM     21  S   UNL     1      -0.310   2.040  -0.411  0.00  0.00    -0.101 S 
ENDBRANCH   6  17
TORSDOF 1
