REMARK  Name = ZINC15230113
REMARK  13 active torsions:
REMARK  status: ('A' for Active; 'I' for Inactive)
REMARK    1  A    between atoms: C_1  and  C_2
REMARK    2  A    between atoms: C_4  and  C_36
REMARK    3  A    between atoms: C_5  and  C_9
REMARK    4  A    between atoms: C_6  and  C_8
REMARK    5  A    between atoms: C_9  and  C_35
REMARK    6  A    between atoms: C_11  and  C_13
REMARK    7  A    between atoms: C_13  and  C_26
REMARK    8  A    between atoms: N_14  and  O_15
REMARK    9  A    between atoms: O_15  and  C_16
REMARK   10  A    between atoms: C_16  and  C_17
REMARK   11  A    between atoms: C_17  and  C_19
REMARK   12  A    between atoms: C_17  and  O_25
REMARK   13  A    between atoms: C_19  and  N_76
REMARK                            x       y       z     vdW  Elec       q    Type
REMARK                         _______ _______ _______ _____ _____    ______ ____
ROOT
ATOM      1  C   UNL     1       4.208  -2.148   1.828  0.00  0.00    +0.125 C 
ATOM      2  N   UNL     1       4.165  -2.737   0.673  0.00  0.00    -0.086 NA
ENDROOT
BRANCH   1   3
ATOM      3  C   UNL     1       4.290  -2.946   3.057  0.00  0.00    +0.154 A 
ATOM      4  C   UNL     1       4.329  -4.303   3.106  0.00  0.00    +0.059 A 
ATOM      5  C   UNL     1       4.409  -4.655   4.524  0.00  0.00    +0.021 A 
ATOM      6  C   UNL     1       4.477  -5.861   5.226  0.00  0.00    +0.011 A 
ATOM      7  C   UNL     1       4.544  -5.847   6.591  0.00  0.00    +0.001 A 
ATOM      8  C   UNL     1       4.548  -4.644   7.283  0.00  0.00    +0.004 A 
ATOM      9  C   UNL     1       4.482  -3.443   6.608  0.00  0.00    +0.047 A 
ATOM     10  C   UNL     1       4.412  -3.433   5.221  0.00  0.00    +0.136 A 
ATOM     11  O   UNL     1       4.346  -2.443   4.307  0.00  0.00    -0.453 OA
ENDBRANCH   1   3
BRANCH   1  14
ATOM     12  C   UNL     1       6.186  -0.021   1.698  0.00  0.00    -0.005 C 
ATOM     13  C   UNL     1       4.954   0.052   0.781  0.00  0.00    +0.021 C 
ATOM     14  C   UNL     1       4.172  -0.643   1.907  0.00  0.00    +0.046 C 
ATOM     15  C   UNL     1       5.205  -0.053   2.882  0.00  0.00    +0.021 C 
ATOM     16  C   UNL     1       6.997  -1.308   1.538  0.00  0.00    +0.016 C 
BRANCH  12  21
ATOM     17  C   UNL     1       9.467   4.734   1.545  0.00  0.00    +0.044 C 
ATOM     18  C   UNL     1       8.615   3.492   1.585  0.00  0.00    -0.050 A 
ATOM     19  C   UNL     1       8.153   2.933   0.408  0.00  0.00    +0.007 A 
ATOM     20  C   UNL     1       7.366   1.797   0.445  0.00  0.00    -0.046 A 
ATOM     21  C   UNL     1       7.043   1.219   1.658  0.00  0.00    -0.036 A 
ATOM     22  C   UNL     1       7.505   1.778   2.835  0.00  0.00    -0.046 A 
ATOM     23  C   UNL     1       8.292   2.914   2.798  0.00  0.00    +0.007 A 
ATOM     24  C   UNL     1       7.153   1.148   4.158  0.00  0.00    +0.044 C 
ATOM     25  C   UNL     1       6.863   1.187  -0.838  0.00  0.00    +0.044 C 
ENDBRANCH  12  21
ENDBRANCH   1  14
BRANCH   2  26
ATOM     26  O   UNL     1       3.910  -1.982  -0.497  0.00  0.00    -0.391 OA
BRANCH  26  27
ATOM     27  C   UNL     1       3.779  -2.772  -1.681  0.00  0.00    +0.292 C 
BRANCH  27  28
ATOM     28  C   UNL     1       3.631  -1.853  -2.894  0.00  0.00    +0.138 C 
BRANCH  28  29
ATOM     29  O   UNL     1       2.407  -1.122  -2.792  0.00  0.00    -0.390 OA
ATOM     30  H   UNL     1       1.618  -1.680  -2.759  0.00  0.00    +0.210 HD
ENDBRANCH  28  29
BRANCH  28  31
ATOM     31  C   UNL     1       3.618  -2.693  -4.173  0.00  0.00    -0.044 C 
BRANCH  31  37
ATOM     32  C   UNL     1       3.019  -2.544  -6.514  0.00  0.00    -0.079 C 
ATOM     33  C   UNL     1       2.776  -1.566  -7.666  0.00  0.00    -0.019 C 
ATOM     34  C   UNL     1       4.083  -0.843  -7.999  0.00  0.00    -0.004 C 
ATOM     35  C   UNL     1       4.593  -0.124  -6.747  0.00  0.00    -0.019 C 
ATOM     36  C   UNL     1       4.784  -1.144  -5.622  0.00  0.00    -0.079 C 
ATOM     37  N   UNL     1       3.485  -1.787  -5.332  0.00  0.00    +0.381 N 
ATOM     38  H   UNL     1       2.795  -1.060  -5.110  0.00  0.00    -0.082 HD
ENDBRANCH  31  37
ENDBRANCH  28  31
ENDBRANCH  27  28
ENDBRANCH  26  27
ENDBRANCH   2  26
TORSDOF 9
