REMARK  Name = ZINC65265870
REMARK  2 active torsions:
REMARK  status: ('A' for Active; 'I' for Inactive)
REMARK    1  A    between atoms: C_14  and  C_16
REMARK    2  A    between atoms: N_24  and  C_25
REMARK                            x       y       z     vdW  Elec       q    Type
REMARK                         _______ _______ _______ _____ _____    ______ ____
ROOT
ATOM      1  C   UNL     1       0.139   1.431  -0.037  0.00  0.00    +0.000 A 
ATOM      2  C   UNL     1       1.333   2.128  -0.079  0.00  0.00    +0.002 A 
ATOM      3  C   UNL     1       2.524   1.431  -0.105  0.00  0.00    +0.023 A 
ATOM      4  C   UNL     1       2.521   0.043  -0.093  0.00  0.00    +0.037 A 
ATOM      5  C   UNL     1       1.326  -0.666  -0.062  0.00  0.00    -0.012 A 
ATOM      6  C   UNL     1       0.136   0.053  -0.027  0.00  0.00    +0.007 A 
ATOM      7  C   UNL     1       1.213  -2.169  -0.080  0.00  0.00    +0.119 C 
ATOM      8  N   UNL     1       2.353  -2.831   0.570  0.00  0.00    -0.299 NA
ATOM      9  C   UNL     1       3.448  -3.059  -0.397  0.00  0.00    +0.091 C 
ATOM     10  C   UNL     1       4.620  -3.794   0.276  0.00  0.00    +0.050 C 
ATOM     11  C   UNL     1       4.200  -5.278   0.169  0.00  0.00    +0.110 C 
ATOM     12  N   UNL     1       3.210  -5.375  -0.915  0.00  0.00    -0.295 N 
ATOM     13  C   UNL     1       3.011  -4.033  -1.500  0.00  0.00    +0.137 C 
ATOM     14  C   UNL     1       2.588  -6.503  -1.311  0.00  0.00    +0.247 C 
ATOM     15  O   UNL     1       1.713  -6.452  -2.152  0.00  0.00    -0.270 OA
ATOM     16  C   UNL     1       3.860  -1.734  -0.942  0.00  0.00    +0.095 C 
ATOM     17  N   UNL     1       3.724  -0.656  -0.101  0.00  0.00    -0.303 N 
ATOM     18  N   UNL     1       4.321  -1.606  -2.143  0.00  0.00    -0.372 N 
ATOM     19  H   UNL     1       2.676  -2.298   1.364  0.00  0.00    +0.123 HD
ATOM     20  H   UNL     1       4.406  -2.384  -2.716  0.00  0.00    +0.161 HD
ATOM     21  H   UNL     1       4.455  -0.386   0.477  0.00  0.00    +0.153 HD
ENDROOT
BRANCH  14  22
ATOM     22  C   UNL     1       2.970  -7.807  -0.719  0.00  0.00    +0.040 A 
ATOM     23  C   UNL     1       2.446  -9.003  -1.217  0.00  0.00    +0.033 A 
ATOM     24  C   UNL     1       2.830 -10.196  -0.635  0.00  0.00    +0.111 A 
ATOM     25  N   UNL     1       3.677 -10.215   0.375  0.00  0.00    -0.263 NA
ATOM     26  C   UNL     1       4.194  -9.110   0.875  0.00  0.00    +0.111 A 
ATOM     27  C   UNL     1       3.869  -7.874   0.350  0.00  0.00    +0.033 A 
ENDBRANCH  14  22
BRANCH  18  28
ATOM     28  C   UNL     1       4.714  -0.285  -2.640  0.00  0.00    +0.080 C 
ATOM     29  C   UNL     1       3.497   0.429  -3.264  0.00  0.00    +0.024 C 
ATOM     30  C   UNL     1       4.084   1.190  -4.479  0.00  0.00    +0.002 C 
ATOM     31  C   UNL     1       5.140   0.197  -5.026  0.00  0.00    +0.002 C 
ATOM     32  C   UNL     1       5.758  -0.432  -3.760  0.00  0.00    +0.024 C 
ENDBRANCH  18  28
TORSDOF 2
