REMARK  Name = ZINC10059502
REMARK  6 active torsions:
REMARK  status: ('A' for Active; 'I' for Inactive)
REMARK    1  A    between atoms: C_3  and  S_16
REMARK    2  A    between atoms: C_6  and  N_7
REMARK    3  A    between atoms: S_16  and  N_19
REMARK    4  A    between atoms: N_19  and  C_20
REMARK    5  A    between atoms: C_23  and  S_26
REMARK    6  A    between atoms: S_26  and  N_29
REMARK                            x       y       z     vdW  Elec       q    Type
REMARK                         _______ _______ _______ _____ _____    ______ ____
ROOT
ATOM      1  S   UNL     1       2.334  -2.791  -1.008  0.00  0.00    +0.072 S 
ATOM      2  O   UNL     1       2.093  -4.147  -0.660  0.00  0.00    -0.150 OA
ATOM      3  O   UNL     1       2.281  -2.328  -2.350  0.00  0.00    -0.150 OA
ENDROOT
BRANCH   1   6
ATOM      4  C   UNL     1       5.780  -2.869   1.054  0.00  0.00    +0.025 A 
ATOM      5  C   UNL     1       4.522  -3.179   0.576  0.00  0.00    +0.030 A 
ATOM      6  C   UNL     1       3.939  -2.392  -0.400  0.00  0.00    +0.109 A 
ATOM      7  C   UNL     1       4.614  -1.296  -0.903  0.00  0.00    +0.030 A 
ATOM      8  C   UNL     1       5.870  -0.977  -0.425  0.00  0.00    +0.025 A 
ATOM      9  C   UNL     1       6.459  -1.766   0.555  0.00  0.00    +0.035 A 
BRANCH   9  10
ATOM     10  N   UNL     1       7.734  -1.449   1.038  0.00  0.00    -0.269 N 
ATOM     11  C   UNL     1       8.572  -2.432   1.422  0.00  0.00    +0.306 C 
ATOM     12  O   UNL     1       8.260  -3.595   1.260  0.00  0.00    -0.252 OA
ATOM     13  N   UNL     1       9.757  -2.124   1.987  0.00  0.00    -0.285 N 
ATOM     14  C   UNL     1      10.102  -0.728   2.290  0.00  0.00    +0.109 C 
ATOM     15  C   UNL     1      10.501  -0.634   3.770  0.00  0.00    +0.019 C 
ATOM     16  C   UNL     1      11.624  -1.635   4.055  0.00  0.00    +0.003 C 
ATOM     17  C   UNL     1      11.125  -3.055   3.780  0.00  0.00    +0.019 C 
ATOM     18  C   UNL     1      10.730  -3.178   2.305  0.00  0.00    +0.109 C 
ATOM     19  H   UNL     1       8.014  -0.522   1.096  0.00  0.00    +0.156 HD
ENDBRANCH   9  10
ENDBRANCH   1   6
BRANCH   1  20
ATOM     20  N   UNL     1       1.246  -1.882  -0.151  0.00  0.00    -0.216 N 
ATOM     21  H   UNL     1       0.692  -1.231  -0.608  0.00  0.00    +0.174 HD
BRANCH  20  22
ATOM     22  C   UNL     1       1.127  -2.055   1.230  0.00  0.00    +0.048 A 
ATOM     23  C   UNL     1       1.087  -0.948   2.069  0.00  0.00    +0.026 A 
ATOM     24  C   UNL     1       0.970  -1.122   3.434  0.00  0.00    +0.030 A 
ATOM     25  C   UNL     1       0.891  -2.396   3.966  0.00  0.00    +0.105 A 
ATOM     26  C   UNL     1       0.931  -3.500   3.134  0.00  0.00    +0.030 A 
ATOM     27  C   UNL     1       1.048  -3.333   1.768  0.00  0.00    +0.026 A 
BRANCH  25  28
ATOM     28  S   UNL     1       0.742  -2.613   5.708  0.00  0.00    +0.056 S 
ATOM     29  O   UNL     1       1.236  -3.913   5.999  0.00  0.00    -0.153 OA
ATOM     30  O   UNL     1       1.277  -1.442   6.311  0.00  0.00    -0.153 OA
BRANCH  28  31
ATOM     31  N   UNL     1      -0.875  -2.631   6.063  0.00  0.00    -0.204 NA
ATOM     32  H   UNL     1      -1.529  -2.530   5.353  0.00  0.00    +0.144 HD
ATOM     33  H   UNL     1      -1.170  -2.742   6.980  0.00  0.00    +0.144 HD
ENDBRANCH  28  31
ENDBRANCH  25  28
ENDBRANCH  20  22
ENDBRANCH   1  20
TORSDOF 6
