REMARK  Name = ZINC08719959
REMARK  6 active torsions:
REMARK  status: ('A' for Active; 'I' for Inactive)
REMARK    1  A    between atoms: C_1  and  C_2
REMARK    2  A    between atoms: C_2  and  N_3
REMARK    3  A    between atoms: C_11  and  S_12
REMARK    4  A    between atoms: S_12  and  C_13
REMARK    5  A    between atoms: C_13  and  C_14
REMARK    6  A    between atoms: C_22  and  N_24
REMARK                            x       y       z     vdW  Elec       q    Type
REMARK                         _______ _______ _______ _____ _____    ______ ____
ROOT
ATOM      1  C   UNL     1       0.111  -2.919  -0.015  0.00  0.00    +0.153 C 
ENDROOT
BRANCH   1   2
ATOM      2  C   UNL     1       0.289  -4.416  -0.025  0.00  0.00    +0.142 A 
ATOM      3  N   UNL     1       0.347  -5.032  -1.182  0.00  0.00    -0.231 NA
ATOM      4  C   UNL     1       0.509  -6.362  -1.236  0.00  0.00    +0.076 A 
ATOM      5  C   UNL     1       0.581  -7.052  -2.454  0.00  0.00    +0.028 A 
ATOM      6  C   UNL     1       0.741  -8.406  -2.452  0.00  0.00    +0.002 A 
ATOM      7  C   UNL     1       0.835  -9.116  -1.258  0.00  0.00    +0.001 A 
ATOM      8  C   UNL     1       0.769  -8.475  -0.056  0.00  0.00    +0.013 A 
ATOM      9  C   UNL     1       0.606  -7.086  -0.023  0.00  0.00    +0.040 A 
ATOM     10  C   UNL     1       0.530  -6.365   1.194  0.00  0.00    +0.127 A 
ATOM     11  N   UNL     1       0.374  -5.049   1.133  0.00  0.00    -0.216 NA
BRANCH  10  12
ATOM     12  N   UNL     1       0.618  -7.013   2.407  0.00  0.00    -0.343 N 
ATOM     13  H   UNL     1       0.565  -6.506   3.233  0.00  0.00    +0.144 HD
ATOM     14  H   UNL     1       0.733  -7.976   2.436  0.00  0.00    +0.144 HD
ENDBRANCH  10  12
ENDBRANCH   1   2
BRANCH   1  15
ATOM     15  S   UNL     1       1.735  -2.119  -0.026  0.00  0.00    -0.080 S 
BRANCH  15  24
ATOM     16  N   UNL     1       2.096   0.639  -0.015  0.00  0.00    -0.319 N 
ATOM     17  C   UNL     1       1.320   1.787  -0.001  0.00  0.00    +0.069 A 
ATOM     18  C   UNL     1       1.609   3.143   0.004  0.00  0.00    +0.028 A 
ATOM     19  C   UNL     1       0.582   4.064   0.018  0.00  0.00    +0.002 A 
ATOM     20  C   UNL     1      -0.739   3.643   0.029  0.00  0.00    +0.002 A 
ATOM     21  C   UNL     1      -1.045   2.300   0.029  0.00  0.00    +0.030 A 
ATOM     22  C   UNL     1      -0.016   1.355   0.009  0.00  0.00    +0.090 A 
ATOM     23  N   UNL     1       0.002  -0.004   0.002  0.00  0.00    -0.222 NA
ATOM     24  C   UNL     1       1.242  -0.427  -0.012  0.00  0.00    +0.170 A 
BRANCH  16  26
ATOM     25  C   UNL     1       4.056   0.568  -1.476  0.00  0.00    +0.027 C 
ATOM     26  C   UNL     1       3.560   0.581  -0.029  0.00  0.00    +0.121 C 
ENDBRANCH  16  26
ENDBRANCH  15  24
ENDBRANCH   1  15
TORSDOF 5
