REMARK  Name = ZINC20464648
REMARK  14 active torsions:
REMARK  status: ('A' for Active; 'I' for Inactive)
REMARK    1  A    between atoms: C_1  and  C_2
REMARK    2  A    between atoms: C_2  and  O_36
REMARK    3  A    between atoms: C_5  and  C_28
REMARK    4  A    between atoms: C_9  and  C_26
REMARK    5  A    between atoms: C_9  and  C_27
REMARK    6  A    between atoms: C_11  and  N_13
REMARK    7  A    between atoms: C_14  and  C_16
REMARK    8  A    between atoms: C_19  and  C_22
REMARK    9  A    between atoms: C_22  and  C_23
REMARK   10  A    between atoms: C_22  and  C_24
REMARK   11  A    between atoms: C_22  and  C_25
REMARK   12  A    between atoms: C_28  and  C_29
REMARK   13  A    between atoms: C_29  and  C_30
REMARK   14  A    between atoms: N_32  and  C_33
REMARK                            x       y       z     vdW  Elec       q    Type
REMARK                         _______ _______ _______ _____ _____    ______ ____
ROOT
ATOM      1  C   UNL     1       0.247   1.705  -0.137  0.00  0.00    +0.041 C 
ATOM      2  C   UNL     1       0.257   0.178  -0.226  0.00  0.00    +0.064 C 
ATOM      3  C   UNL     1      -1.182  -0.348  -0.198  0.00  0.00    +0.035 C 
ATOM      4  C   UNL     1      -1.143  -1.867  -0.365  0.00  0.00    +0.012 C 
ATOM      5  C   UNL     1      -0.338  -2.521   0.734  0.00  0.00    -0.007 C 
ATOM      6  C   UNL     1       1.075  -1.927   0.882  0.00  0.00    +0.005 C 
ATOM      7  C   UNL     1       1.012  -0.400   0.968  0.00  0.00    +0.039 C 
ATOM      8  C   UNL     1       1.482  -2.435   2.297  0.00  0.00    -0.030 C 
ATOM      9  C   UNL     1       0.184  -2.308   3.124  0.00  0.00    +0.029 C 
ATOM     10  C   UNL     1      -0.983  -2.357   2.116  0.00  0.00    +0.080 C 
ATOM     11  C   UNL     1       2.584  -1.553   2.888  0.00  0.00    +0.011 C 
ATOM     12  C   UNL     1       1.937  -3.895   2.233  0.00  0.00    +0.011 C 
ENDROOT
BRANCH  10  13
ATOM     13  N   UNL     1      -1.853  -3.499   2.406  0.00  0.00    -0.308 N 
ATOM     14  C   UNL     1      -2.954  -3.332   3.165  0.00  0.00    +0.244 C 
ATOM     15  O   UNL     1      -3.226  -2.233   3.608  0.00  0.00    -0.270 OA
ATOM     16  H   UNL     1      -1.636  -4.376   2.053  0.00  0.00    +0.149 HD
BRANCH  14  17
ATOM     17  C   UNL     1      -3.832  -4.485   3.458  0.00  0.00    +0.037 A 
ATOM     18  C   UNL     1      -3.520  -5.749   2.955  0.00  0.00    +0.013 A 
ATOM     19  C   UNL     1      -4.343  -6.821   3.232  0.00  0.00    +0.005 A 
ATOM     20  C   UNL     1      -5.476  -6.645   4.006  0.00  0.00    -0.042 A 
ATOM     21  C   UNL     1      -5.791  -5.394   4.508  0.00  0.00    +0.005 A 
ATOM     22  C   UNL     1      -4.973  -4.316   4.243  0.00  0.00    +0.013 A 
BRANCH  20  23
ATOM     23  C   UNL     1      -6.371  -7.820   4.305  0.00  0.00    -0.013 C 
ATOM     24  C   UNL     1      -5.573  -8.892   5.051  0.00  0.00    +0.015 C 
ATOM     25  C   UNL     1      -7.544  -7.361   5.173  0.00  0.00    +0.015 C 
ATOM     26  C   UNL     1      -6.903  -8.402   2.994  0.00  0.00    +0.015 C 
ENDBRANCH  20  23
ENDBRANCH  14  17
ENDBRANCH  10  13
BRANCH   2  27
ATOM     27  O   UNL     1       0.895  -0.228  -1.439  0.00  0.00    -0.389 OA
ATOM     28  H   UNL     1       0.464   0.101  -2.239  0.00  0.00    +0.210 HD
ENDBRANCH   2  27
BRANCH   5  29
ATOM     29  C   UNL     1      -0.196  -4.013   0.427  0.00  0.00    +0.018 C 
BRANCH  29  30
ATOM     30  C   UNL     1       0.652  -4.196  -0.834  0.00  0.00    +0.096 C 
BRANCH  30  31
ATOM     31  C   UNL     1       0.908  -5.663  -1.058  0.00  0.00    +0.213 C 
ATOM     32  O   UNL     1       0.456  -6.483  -0.287  0.00  0.00    -0.276 OA
ATOM     33  N   UNL     1       1.639  -6.066  -2.117  0.00  0.00    -0.312 N 
ATOM     34  H   UNL     1       2.000  -5.410  -2.734  0.00  0.00    +0.149 HD
BRANCH  33  35
ATOM     35  C   UNL     1       1.887  -7.493  -2.336  0.00  0.00    +0.073 C 
ATOM     36  C   UNL     1       3.305  -7.911  -2.731  0.00  0.00    +0.024 C 
ATOM     37  C   UNL     1       2.179  -7.948  -3.767  0.00  0.00    +0.024 C 
ENDBRANCH  33  35
ENDBRANCH  30  31
ENDBRANCH  29  30
ENDBRANCH   5  29
TORSDOF 8
