REMARK  Name = ZINC64507258
REMARK  5 active torsions:
REMARK  status: ('A' for Active; 'I' for Inactive)
REMARK    1  A    between atoms: C_1  and  C_2
REMARK    2  A    between atoms: C_5  and  C_8
REMARK    3  A    between atoms: C_11  and  C_14
REMARK    4  A    between atoms: C_16  and  C_23
REMARK    5  A    between atoms: C_18  and  C_22
REMARK                            x       y       z     vdW  Elec       q    Type
REMARK                         _______ _______ _______ _____ _____    ______ ____
ROOT
ATOM      1  C   UNL     1       0.059  -4.253  -0.021  0.00  0.00    +0.168 C 
ATOM      2  N   UNL     1       0.069  -4.977  -1.092  0.00  0.00    -0.067 NA
ATOM      3  O   UNL     1       0.088  -6.355  -0.770  0.00  0.00    -0.368 OA
ATOM      4  C   UNL     1       0.089  -6.440   0.663  0.00  0.00    +0.308 C 
ATOM      5  N   UNL     1       0.075  -5.040   1.115  0.00  0.00    -0.289 N 
ATOM      6  H   UNL     1       0.075  -4.730   2.034  0.00  0.00    +0.151 HD
ENDROOT
BRANCH   4   7
ATOM      7  C   UNL     1      -1.157  -7.180   1.155  0.00  0.00    +0.164 C 
ATOM      8  C   UNL     1      -1.102  -8.598   0.620  0.00  0.00    -0.054 C 
ATOM      9  C   UNL     1      -1.123  -9.596   1.516  0.00  0.00    +0.020 C 
ATOM     10  C   UNL     1      -1.194  -9.332   2.897  0.00  0.00    +0.031 C 
ATOM     11  N   UNL     1      -1.243  -8.134   3.412  0.00  0.00    -0.185 NA
ATOM     12  C   UNL     1      -1.230  -7.026   2.660  0.00  0.00    +0.249 C 
ATOM     13  O   UNL     1      -1.276  -5.926   3.173  0.00  0.00    -0.273 OA
ATOM     14  C   UNL     1      -1.214 -10.507   3.840  0.00  0.00    +0.063 C 
ATOM     15  C   UNL     1      -1.028  -8.875  -0.860  0.00  0.00    +0.040 C 
ENDBRANCH   4   7
BRANCH   1  20
ATOM     16  C   UNL     1      -0.018   1.503   0.010  0.00  0.00    +0.044 C 
ATOM     17  C   UNL     1       0.002  -0.004   0.002  0.00  0.00    -0.050 A 
ATOM     18  C   UNL     1       0.006  -0.686  -1.201  0.00  0.00    +0.004 A 
ATOM     19  C   UNL     1       0.024  -2.066  -1.216  0.00  0.00    +0.011 A 
ATOM     20  C   UNL     1       0.040  -2.773  -0.013  0.00  0.00    +0.018 A 
ATOM     21  C   UNL     1       0.036  -2.079   1.197  0.00  0.00    +0.011 A 
ATOM     22  C   UNL     1       0.023  -0.699   1.198  0.00  0.00    +0.004 A 
ENDBRANCH   1  20
TORSDOF 2
