REMARK  Name = ZINC41512310
REMARK  6 active torsions:
REMARK  status: ('A' for Active; 'I' for Inactive)
REMARK    1  A    between atoms: C_1  and  C_2
REMARK    2  A    between atoms: C_4  and  O_33
REMARK    3  A    between atoms: C_5  and  C_24
REMARK    4  A    between atoms: C_11  and  C_12
REMARK    5  A    between atoms: C_24  and  N_25
REMARK    6  A    between atoms: C_29  and  C_32
REMARK                            x       y       z     vdW  Elec       q    Type
REMARK                         _______ _______ _______ _____ _____    ______ ____
ROOT
ATOM      1  C   UNL     1       1.269   1.344   0.059  0.00  0.00    +0.045 C 
ATOM      2  C   UNL     1       0.857  -0.105   0.033  0.00  0.00    -0.033 A 
ATOM      3  C   UNL     1       0.759  -0.768  -1.158  0.00  0.00    +0.050 A 
ATOM      4  C   UNL     1       0.379  -2.107  -1.184  0.00  0.00    +0.122 A 
ATOM      5  C   UNL     1       0.096  -2.782  -0.008  0.00  0.00    +0.020 A 
ATOM      6  C   UNL     1       0.190  -2.123   1.211  0.00  0.00    +0.145 A 
ATOM      7  C   UNL     1       0.580  -0.774   1.226  0.00  0.00    +0.071 A 
ATOM      8  C   UNL     1       0.595  -0.360   2.640  0.00  0.00    +0.232 C 
ATOM      9  O   UNL     1       0.874   0.736   3.095  0.00  0.00    -0.283 OA
ATOM     10  C   UNL     1       0.197  -1.566   3.381  0.00  0.00    +0.176 C 
ATOM     11  C   UNL     1       0.068  -1.674   4.729  0.00  0.00    +0.061 C 
ATOM     12  O   UNL     1      -0.028  -2.547   2.475  0.00  0.00    -0.451 OA
ENDROOT
BRANCH  11  13
ATOM     13  C   UNL     1       0.169  -0.478   5.573  0.00  0.00    +0.022 A 
ATOM     14  C   UNL     1      -0.447   0.716   5.179  0.00  0.00    +0.027 A 
ATOM     15  C   UNL     1      -0.345   1.835   5.978  0.00  0.00    +0.019 A 
ATOM     16  C   UNL     1       0.365   1.783   7.167  0.00  0.00    +0.024 A 
ATOM     17  C   UNL     1       0.978   0.610   7.569  0.00  0.00    +0.022 A 
ATOM     18  C   UNL     1       0.879  -0.527   6.785  0.00  0.00    +0.136 A 
ATOM     19  O   UNL     1       1.463  -1.689   7.175  0.00  0.00    -0.465 OA
ATOM     20  C   UNL     1       2.456  -1.602   8.200  0.00  0.00    +0.395 C 
ATOM     21  O   UNL     1       1.946  -0.785   9.262  0.00  0.00    -0.339 OA
ATOM     22  C   UNL     1       1.749   0.579   8.865  0.00  0.00    +0.202 C 
ATOM     23 BR   UNL     1      -1.178   3.448   5.448  0.00  0.00    -0.050 Br
ENDBRANCH  11  13
BRANCH   4  24
ATOM     24  O   UNL     1       0.285  -2.756  -2.372  0.00  0.00    -0.506 OA
ATOM     25  H   UNL     1       1.105  -3.186  -2.652  0.00  0.00    +0.292 HD
ENDBRANCH   4  24
BRANCH   5  26
ATOM     26  C   UNL     1      -0.315  -4.231  -0.051  0.00  0.00    -0.036 C 
BRANCH  26  27
ATOM     27  N   UNL     1       0.880  -5.082   0.036  0.00  0.00    +0.383 N 
ATOM     28  C   UNL     1       1.717  -4.871  -1.151  0.00  0.00    -0.078 C 
ATOM     29  C   UNL     1       3.001  -5.693  -1.026  0.00  0.00    -0.018 C 
ATOM     30  C   UNL     1       2.642  -7.177  -0.910  0.00  0.00    -0.001 C 
ATOM     31  C   UNL     1       1.708  -7.374   0.288  0.00  0.00    -0.031 C 
ATOM     32  C   UNL     1       0.472  -6.489   0.115  0.00  0.00    -0.075 C 
ATOM     33  C   UNL     1       1.281  -8.841   0.367  0.00  0.00    +0.005 C 
ATOM     34  H   UNL     1       1.404  -4.838   0.863  0.00  0.00    -0.081 HD
ENDBRANCH  26  27
ENDBRANCH   5  26
TORSDOF 4
