REMARK  Name = ZINC30990673
REMARK  5 active torsions:
REMARK  status: ('A' for Active; 'I' for Inactive)
REMARK    1  A    between atoms: C_1  and  N_2
REMARK    2  A    between atoms: N_7  and  C_8
REMARK    3  A    between atoms: C_8  and  C_10
REMARK    4  A    between atoms: C_10  and  C_11
REMARK    5  A    between atoms: C_11  and  C_12
REMARK                            x       y       z     vdW  Elec       q    Type
REMARK                         _______ _______ _______ _____ _____    ______ ____
ROOT
ATOM      1  C   UNL     1       0.089  -1.173   7.250  0.00  0.00    +0.111 A 
ATOM      2  N   UNL     1       0.116  -2.044   8.292  0.00  0.00    -0.310 N 
ATOM      3  H   UNL     1       0.131  -2.997   8.114  0.00  0.00    +0.170 HD
ATOM      4  C   UNL     1       0.123  -1.611   9.567  0.00  0.00    +0.260 A 
ATOM      5  O   UNL     1       0.149  -2.405  10.491  0.00  0.00    -0.267 OA
ATOM      6  C   UNL     1       0.102  -0.200   9.819  0.00  0.00    +0.075 A 
ATOM      7  C   UNL     1       0.104   0.493  11.107  0.00  0.00    -0.023 A 
ATOM      8  C   UNL     1       0.080   1.842  11.076  0.00  0.00    -0.004 A 
ATOM      9  S   UNL     1       0.055   2.262   9.354  0.00  0.00    -0.073 S 
ATOM     10  C   UNL     1       0.074   0.620   8.680  0.00  0.00    +0.116 A 
ATOM     11  N   UNL     1       0.074   0.118   7.448  0.00  0.00    -0.227 NA
ATOM     12  C   UNL     1       0.075   2.777  12.247  0.00  0.00    +0.043 C 
ATOM     13  C   UNL     1      -0.274   1.973  13.507  0.00  0.00    +0.005 C 
ATOM     14  C   UNL     1       0.586   0.706  13.535  0.00  0.00    +0.005 C 
ATOM     15  C   UNL     1       0.130  -0.256  12.436  0.00  0.00    +0.037 C 
ENDROOT
BRANCH   1  16
ATOM     16  C   UNL     1       0.082  -1.706   5.841  0.00  0.00    +0.083 C 
BRANCH  16  17
ATOM     17  C   UNL     1       0.057  -0.537   4.854  0.00  0.00    +0.105 C 
BRANCH  17  18
ATOM     18  C   UNL     1       0.050  -1.070   3.444  0.00  0.00    +0.239 C 
ATOM     19  O   UNL     1       0.064  -2.271   3.248  0.00  0.00    -0.274 OA
BRANCH  18  26
ATOM     20  C   UNL     1      -0.018   1.461   0.010  0.00  0.00    +0.150 C 
ATOM     21  N   UNL     1       0.002  -0.004   0.002  0.00  0.00    -0.331 N 
ATOM     22  C   UNL     1       0.006  -0.689  -1.173  0.00  0.00    +0.094 A 
ATOM     23  C   UNL     1       0.024  -2.025  -1.103  0.00  0.00    +0.066 A 
ATOM     24  S   UNL     1       0.036  -2.304   0.658  0.00  0.00    -0.061 S 
ATOM     25  C   UNL     1       0.023  -0.702   1.169  0.00  0.00    +0.165 A 
ATOM     26  N   UNL     1       0.029  -0.230   2.418  0.00  0.00    -0.156 NA
ENDBRANCH  18  26
ENDBRANCH  17  18
ENDBRANCH  16  17
ENDBRANCH   1  16
TORSDOF 4
