REMARK  Name = ZINC36597827
REMARK  17 active torsions:
REMARK  status: ('A' for Active; 'I' for Inactive)
REMARK    1  A    between atoms: C_1  and  C_2
REMARK    2  A    between atoms: C_5  and  C_7
REMARK    3  A    between atoms: C_7  and  N_8
REMARK    4  A    between atoms: N_8  and  C_9
REMARK    5  A    between atoms: C_9  and  C_11
REMARK    6  A    between atoms: C_9  and  C_18
REMARK    7  A    between atoms: N_20  and  C_21
REMARK    8  A    between atoms: C_21  and  C_22
REMARK    9  A    between atoms: C_21  and  C_23
REMARK   10  A    between atoms: C_21  and  C_24
REMARK   11  A    between atoms: C_24  and  C_25
REMARK   12  A    between atoms: C_25  and  C_26
REMARK   13  A    between atoms: C_25  and  C_27
REMARK   14  A    between atoms: C_25  and  C_28
REMARK   15  A    between atoms: C_29  and  C_31
REMARK   16  A    between atoms: C_35  and  O_38
REMARK   17  A    between atoms: C_36  and  O_37
REMARK                            x       y       z     vdW  Elec       q    Type
REMARK                         _______ _______ _______ _____ _____    ______ ____
ROOT
ATOM      1  N   UNL     1       1.434  -2.998  -1.251  0.00  0.00    -0.275 N 
ATOM      2  C   UNL     1       0.810  -4.070  -0.724  0.00  0.00    +0.252 C 
ATOM      3  O   UNL     1       0.099  -3.940   0.254  0.00  0.00    -0.270 OA
ENDROOT
BRANCH   2   4
ATOM      4  C   UNL     1       0.990  -5.402  -1.334  0.00  0.00    +0.082 A 
ATOM      5  C   UNL     1       1.870  -5.570  -2.407  0.00  0.00    +0.017 A 
ATOM      6  C   UNL     1       2.035  -6.815  -2.973  0.00  0.00    +0.005 A 
ATOM      7  C   UNL     1       1.333  -7.905  -2.485  0.00  0.00    +0.049 A 
ATOM      8  C   UNL     1       0.458  -7.754  -1.423  0.00  0.00    +0.159 A 
ATOM      9  C   UNL     1       0.284  -6.504  -0.837  0.00  0.00    +0.171 A 
BRANCH   9  10
ATOM     10  O   UNL     1      -0.568  -6.354   0.209  0.00  0.00    -0.503 OA
ATOM     11  H   UNL     1      -1.475  -6.141  -0.051  0.00  0.00    +0.292 HD
ENDBRANCH   9  10
BRANCH   8  12
ATOM     12  O   UNL     1      -0.228  -8.829  -0.950  0.00  0.00    -0.503 OA
ATOM     13  H   UNL     1       0.231  -9.310  -0.247  0.00  0.00    +0.292 HD
ENDBRANCH   8  12
ENDBRANCH   2   4
BRANCH   1  14
ATOM     14  C   UNL     1       1.199  -1.665  -0.690  0.00  0.00    +0.183 C 
BRANCH  14  19
ATOM     15  C   UNL     1      -1.265   1.224  -4.010  0.00  0.00    +0.086 C 
ATOM     16  C   UNL     1      -0.995   0.261  -2.883  0.00  0.00    +0.102 A 
ATOM     17  C   UNL     1      -1.928  -0.349  -2.130  0.00  0.00    +0.045 A 
ATOM     18  C   UNL     1      -1.237  -1.159  -1.199  0.00  0.00    +0.046 A 
ATOM     19  C   UNL     1       0.076  -0.996  -1.440  0.00  0.00    +0.122 A 
ATOM     20  O   UNL     1       0.216  -0.140  -2.465  0.00  0.00    -0.463 OA
ENDBRANCH  14  19
ENDBRANCH   1  14
BRANCH   1  21
ATOM     21  C   UNL     1       2.348  -3.166  -2.384  0.00  0.00    +0.193 C 
BRANCH  21  22
ATOM     22  C   UNL     1       3.558  -3.948  -1.942  0.00  0.00    -0.018 A 
ATOM     23  C   UNL     1       3.906  -3.985  -0.605  0.00  0.00    +0.007 A 
ATOM     24  C   UNL     1       5.016  -4.702  -0.199  0.00  0.00    +0.020 A 
ATOM     25  C   UNL     1       5.778  -5.383  -1.132  0.00  0.00    +0.041 A 
ATOM     26  C   UNL     1       5.429  -5.346  -2.470  0.00  0.00    +0.020 A 
ATOM     27  C   UNL     1       4.315  -4.633  -2.874  0.00  0.00    +0.007 A 
ATOM     28 CL   UNL     1       7.172  -6.283  -0.623  0.00  0.00    -0.084 Cl
ENDBRANCH  21  22
BRANCH  21  29
ATOM     29  C   UNL     1       2.780  -1.812  -2.885  0.00  0.00    +0.239 C 
ATOM     30  O   UNL     1       2.387  -0.807  -2.332  0.00  0.00    -0.273 OA
ATOM     31  N   UNL     1       3.603  -1.718  -3.948  0.00  0.00    -0.308 N 
ATOM     32  H   UNL     1       3.917  -2.522  -4.391  0.00  0.00    +0.149 HD
BRANCH  31  33
ATOM     33  C   UNL     1       4.023  -0.402  -4.435  0.00  0.00    +0.030 C 
ATOM     34  C   UNL     1       2.841   0.292  -5.113  0.00  0.00    +0.031 C 
ATOM     35  C   UNL     1       4.507   0.447  -3.258  0.00  0.00    +0.031 C 
BRANCH  33  36
ATOM     36  C   UNL     1       5.162  -0.571  -5.443  0.00  0.00    +0.031 C 
BRANCH  36  37
ATOM     37  C   UNL     1       6.137  -1.636  -4.938  0.00  0.00    -0.036 C 
ATOM     38  C   UNL     1       5.453  -3.004  -4.957  0.00  0.00    +0.010 C 
ATOM     39  C   UNL     1       7.370  -1.669  -5.842  0.00  0.00    +0.010 C 
ATOM     40  C   UNL     1       6.563  -1.299  -3.507  0.00  0.00    +0.010 C 
ENDBRANCH  36  37
ENDBRANCH  33  36
ENDBRANCH  31  33
ENDBRANCH  21  29
ENDBRANCH   1  21
TORSDOF 11
