REMARK  Name = ZINC00250336
REMARK  4 active torsions:
REMARK  status: ('A' for Active; 'I' for Inactive)
REMARK    1  A    between atoms: C_4  and  N_7
REMARK    2  A    between atoms: C_16  and  N_18
REMARK    3  A    between atoms: N_18  and  C_19
REMARK    4  A    between atoms: C_19  and  C_20
REMARK                            x       y       z     vdW  Elec       q    Type
REMARK                         _______ _______ _______ _____ _____    ______ ____
ROOT
ATOM      1  N   UNL     1       3.621  -0.650  -0.036  0.00  0.00    -0.284 N 
ATOM      2  C   UNL     1       3.645  -2.031   0.061  0.00  0.00    +0.222 A 
ATOM      3  N   UNL     1       2.498  -2.684   0.060  0.00  0.00    -0.214 NA
ATOM      4  C   UNL     1       2.479  -4.022   0.153  0.00  0.00    +0.078 A 
ATOM      5  C   UNL     1       1.280  -4.748   0.155  0.00  0.00    +0.028 A 
ATOM      6  C   UNL     1       1.317  -6.107   0.251  0.00  0.00    +0.002 A 
ATOM      7  C   UNL     1       2.527  -6.787   0.346  0.00  0.00    +0.001 A 
ATOM      8  C   UNL     1       3.712  -6.112   0.347  0.00  0.00    +0.013 A 
ATOM      9  C   UNL     1       3.710  -4.716   0.250  0.00  0.00    +0.040 A 
ATOM     10  C   UNL     1       4.910  -3.961   0.245  0.00  0.00    +0.132 A 
ATOM     11  N   UNL     1       4.822  -2.643   0.144  0.00  0.00    -0.199 NA
ATOM     12  H   UNL     1       4.451  -0.155  -0.123  0.00  0.00    +0.155 HD
ENDROOT
BRANCH   1  16
ATOM     13  C   UNL     1      -0.015   1.381   0.045  0.00  0.00    +0.000 A 
ATOM     14  C   UNL     1       0.147   0.226   0.788  0.00  0.00    +0.002 A 
ATOM     15  C   UNL     1       1.351  -0.450   0.763  0.00  0.00    +0.023 A 
ATOM     16  C   UNL     1       2.400   0.032  -0.009  0.00  0.00    +0.034 A 
ATOM     17  C   UNL     1       2.235   1.192  -0.754  0.00  0.00    +0.023 A 
ATOM     18  C   UNL     1       1.028   1.864  -0.725  0.00  0.00    +0.002 A 
ENDBRANCH   1  16
BRANCH  10  19
ATOM     19  N   UNL     1       6.136  -4.583   0.337  0.00  0.00    -0.326 N 
ATOM     20  H   UNL     1       6.186  -5.550   0.407  0.00  0.00    +0.148 HD
BRANCH  19  21
ATOM     21  C   UNL     1       7.365  -3.785   0.331  0.00  0.00    +0.134 C 
BRANCH  21  22
ATOM     22  C   UNL     1       8.576  -4.713   0.444  0.00  0.00    +0.135 C 
ATOM     23  C   UNL     1       9.868  -3.875   0.559  0.00  0.00    +0.035 C 
ATOM     24  C   UNL     1      10.866  -4.688  -0.309  0.00  0.00    +0.031 C 
ATOM     25  C   UNL     1       9.922  -5.234  -1.410  0.00  0.00    +0.160 C 
ATOM     26  O   UNL     1       8.684  -5.517  -0.736  0.00  0.00    -0.375 OA
ENDBRANCH  21  22
ENDBRANCH  19  21
ENDBRANCH  10  19
TORSDOF 4
