REMARK  Name = ZINC15108541
REMARK  6 active torsions:
REMARK  status: ('A' for Active; 'I' for Inactive)
REMARK    1  A    between atoms: C_6  and  C_7
REMARK    2  A    between atoms: C_7  and  N_8
REMARK    3  A    between atoms: C_9  and  C_11
REMARK    4  A    between atoms: C_11  and  S_12
REMARK    5  A    between atoms: S_12  and  C_13
REMARK    6  A    between atoms: C_17  and  C_22
REMARK                            x       y       z     vdW  Elec       q    Type
REMARK                         _______ _______ _______ _____ _____    ______ ____
ROOT
ATOM      1  S   UNL     1       1.453  -2.755  -2.515  0.00  0.00    -0.058 S 
ENDROOT
BRANCH   1   2
ATOM      2  C   UNL     1       1.334  -4.496  -2.272  0.00  0.00    +0.258 A 
ATOM      3  N   UNL     1       1.806  -5.402  -3.092  0.00  0.00    -0.203 NA
ATOM      4  C   UNL     1       1.532  -6.635  -2.583  0.00  0.00    +0.111 A 
ATOM      5  C   UNL     1       1.791  -7.936  -3.018  0.00  0.00    +0.035 A 
ATOM      6  C   UNL     1       1.374  -9.006  -2.258  0.00  0.00    -0.039 A 
ATOM      7  C   UNL     1       0.698  -8.798  -1.065  0.00  0.00    +0.008 A 
ATOM      8  C   UNL     1       0.435  -7.517  -0.624  0.00  0.00    +0.049 A 
ATOM      9  C   UNL     1       0.848  -6.429  -1.376  0.00  0.00    +0.156 A 
ATOM     10  O   UNL     1       0.750  -5.089  -1.216  0.00  0.00    -0.431 OA
BRANCH   6  11
ATOM     11  C   UNL     1       1.653 -10.411  -2.725  0.00  0.00    -0.003 C 
ATOM     12  C   UNL     1       3.164 -10.614  -2.856  0.00  0.00    +0.015 C 
ATOM     13  C   UNL     1       3.447 -12.041  -3.331  0.00  0.00    -0.010 C 
ATOM     14  C   UNL     1       2.885 -13.038  -2.316  0.00  0.00    +0.007 C 
ATOM     15  C   UNL     1       1.374 -12.834  -2.184  0.00  0.00    -0.010 C 
ATOM     16  C   UNL     1       1.091 -11.408  -1.710  0.00  0.00    +0.015 C 
ATOM     17  C   UNL     1       0.709 -13.061  -3.544  0.00  0.00    +0.007 C 
ATOM     18  C   UNL     1       1.271 -12.064  -4.559  0.00  0.00    -0.010 C 
ATOM     19  C   UNL     1       2.782 -12.268  -4.690  0.00  0.00    +0.007 C 
ATOM     20  C   UNL     1       0.988 -10.638  -4.084  0.00  0.00    +0.015 C 
ENDBRANCH   6  11
ENDBRANCH   1   2
BRANCH   1  21
ATOM     21  C   UNL     1       0.606  -2.171  -1.026  0.00  0.00    +0.174 C 
BRANCH  21  23
ATOM     22  N   UNL     1       0.002  -0.004   0.002  0.00  0.00    -0.311 N 
ATOM     23  C   UNL     1       0.585  -0.664  -1.018  0.00  0.00    +0.224 C 
ATOM     24  O   UNL     1       1.093  -0.046  -1.929  0.00  0.00    -0.275 OA
ATOM     25  H   UNL     1      -0.404  -0.499   0.731  0.00  0.00    +0.149 HD
BRANCH  22  26
ATOM     26  C   UNL     1      -0.018   1.461   0.010  0.00  0.00    +0.139 C 
BRANCH  26  32
ATOM     27  C   UNL     1      -2.088   2.164   1.226  0.00  0.00    +0.007 A 
ATOM     28  C   UNL     1      -2.739   2.605   2.362  0.00  0.00    +0.024 A 
ATOM     29  C   UNL     1      -2.018   2.840   3.526  0.00  0.00    +0.037 A 
ATOM     30  C   UNL     1      -0.646   2.626   3.544  0.00  0.00    -0.025 A 
ATOM     31  C   UNL     1      -0.002   2.180   2.407  0.00  0.00    +0.010 A 
ATOM     32  C   UNL     1      -0.723   1.947   1.250  0.00  0.00    -0.030 A 
ATOM     33  C   UNL     1       0.135   2.880   4.807  0.00  0.00    +0.046 C 
ATOM     34  C   UNL     1      -0.484   4.056   5.563  0.00  0.00    +0.101 C 
ATOM     35  C   UNL     1      -1.973   3.868   5.673  0.00  0.00    +0.218 C 
ATOM     36  O   UNL     1      -2.551   4.241   6.672  0.00  0.00    -0.275 OA
ATOM     37  N   UNL     1      -2.670   3.291   4.677  0.00  0.00    -0.285 N 
ATOM     38  H   UNL     1      -3.631   3.188   4.759  0.00  0.00    +0.155 HD
ENDBRANCH  26  32
ENDBRANCH  22  26
ENDBRANCH  21  23
ENDBRANCH   1  21
TORSDOF 6
