REMARK  Name = ZINC49395570
REMARK  4 active torsions:
REMARK  status: ('A' for Active; 'I' for Inactive)
REMARK    1  A    between atoms: C_1  and  C_2
REMARK    2  A    between atoms: N_6  and  C_10
REMARK    3  A    between atoms: C_10  and  C_11
REMARK    4  A    between atoms: C_16  and  N_17
REMARK                            x       y       z     vdW  Elec       q    Type
REMARK                         _______ _______ _______ _____ _____    ______ ____
ROOT
ATOM      1  C   UNL     1      -2.728  -3.414   1.187  0.00  0.00    -0.004 A 
ATOM      2  C   UNL     1      -3.474  -3.733   0.069  0.00  0.00    +0.007 A 
ATOM      3  C   UNL     1      -3.563  -5.046  -0.353  0.00  0.00    +0.000 A 
ATOM      4  C   UNL     1      -2.906  -6.045   0.342  0.00  0.00    +0.002 A 
ATOM      5  C   UNL     1      -2.159  -5.733   1.461  0.00  0.00    +0.028 A 
ATOM      6  C   UNL     1      -2.063  -4.413   1.884  0.00  0.00    +0.070 A 
ENDROOT
BRANCH   6   7
ATOM      7  N   UNL     1      -1.300  -4.092   3.015  0.00  0.00    -0.240 N 
ATOM      8  C   UNL     1      -0.514  -4.943   3.713  0.00  0.00    +0.114 A 
ATOM      9  C   UNL     1       0.047  -4.246   4.728  0.00  0.00    +0.041 A 
ATOM     10  C   UNL     1      -0.410  -2.926   4.649  0.00  0.00    +0.135 A 
ATOM     11  N   UNL     1      -1.213  -2.832   3.620  0.00  0.00    -0.175 NA
ENDBRANCH   6   7
BRANCH   1  12
ATOM     12  C   UNL     1      -2.632  -1.982   1.646  0.00  0.00    +0.152 C 
BRANCH  12  17
ATOM     13  C   UNL     1      -5.765   1.311   0.461  0.00  0.00    +0.038 C 
ATOM     14  C   UNL     1      -5.237  -0.005  -0.114  0.00  0.00    +0.155 C 
ATOM     15  C   UNL     1      -4.790  -0.932   0.998  0.00  0.00    +0.241 C 
ATOM     16  O   UNL     1      -5.475  -1.393   1.887  0.00  0.00    -0.273 OA
ATOM     17  N   UNL     1      -3.474  -1.138   0.795  0.00  0.00    -0.248 N 
ATOM     18  C   UNL     1      -3.032  -0.477  -0.281  0.00  0.00    +0.140 C 
ATOM     19  S   UNL     1      -1.408  -0.520  -0.823  0.00  0.00    -0.018 S 
ATOM     20  N   UNL     1      -4.007   0.226  -0.892  0.00  0.00    -0.315 N 
ATOM     21  H   UNL     1      -3.918   0.776  -1.686  0.00  0.00    +0.148 HD
ENDBRANCH  12  17
ENDBRANCH   1  12
TORSDOF 3
