REMARK  Name = ZINC06283603
REMARK  3 active torsions:
REMARK  status: ('A' for Active; 'I' for Inactive)
REMARK    1  A    between atoms: C_8  and  C_10
REMARK    2  A    between atoms: C_10  and  S_11
REMARK    3  A    between atoms: S_11  and  C_12
REMARK                            x       y       z     vdW  Elec       q    Type
REMARK                         _______ _______ _______ _____ _____    ______ ____
ROOT
ATOM      1  C   UNL     1       2.570   5.384  -0.108  0.00  0.00    +0.195 A 
ATOM      2  N   UNL     1       1.429   6.067  -0.137  0.00  0.00    -0.189 NA
ATOM      3  C   UNL     1       0.267   5.422  -0.120  0.00  0.00    +0.218 A 
ATOM      4  N   UNL     1       0.245   4.093  -0.075  0.00  0.00    -0.181 NA
ATOM      5  C   UNL     1       1.385   3.410  -0.047  0.00  0.00    +0.223 A 
ATOM      6  N   UNL     1       2.548   4.055  -0.058  0.00  0.00    -0.189 NA
ATOM      7  N   UNL     1       1.362   2.030   0.000  0.00  0.00    -0.295 N 
ATOM      8  C   UNL     1      -0.019   1.527   0.010  0.00  0.00    +0.136 C 
ATOM      9  C   UNL     1       0.002  -0.004   0.002  0.00  0.00    +0.179 C 
ATOM     10  O   UNL     1       0.757  -0.472   1.123  0.00  0.00    -0.377 OA
ATOM     11  C   UNL     1       2.108  -0.001   1.144  0.00  0.00    +0.179 C 
ATOM     12  C   UNL     1       2.108   1.530   1.164  0.00  0.00    +0.136 C 
ATOM     13  N   UNL     1      -0.916   6.131  -0.150  0.00  0.00    -0.327 N 
ATOM     14  H   UNL     1      -1.764   5.660  -0.138  0.00  0.00    +0.145 HD
ATOM     15  H   UNL     1      -0.900   7.100  -0.182  0.00  0.00    +0.145 HD
ENDROOT
BRANCH   1  16
ATOM     16  S   UNL     1       4.110   6.239  -0.131  0.00  0.00    -0.079 S 
BRANCH  16  17
ATOM     17  C   UNL     1       3.519   7.949  -0.193  0.00  0.00    +0.140 C 
BRANCH  17  25
ATOM     18  C   UNL     1       8.199  11.616  -1.850  0.00  0.00    +0.002 A 
ATOM     19  C   UNL     1       8.518  11.920  -0.534  0.00  0.00    +0.001 A 
ATOM     20  C   UNL     1       7.774  11.366   0.491  0.00  0.00    +0.017 A 
ATOM     21  C   UNL     1       6.732  10.524   0.188  0.00  0.00    +0.039 A 
ATOM     22  C   UNL     1       6.385  10.196  -1.143  0.00  0.00    +0.079 A 
ATOM     23  C   UNL     1       7.169  10.783  -2.160  0.00  0.00    +0.029 A 
ATOM     24  N   UNL     1       5.335   9.355  -1.256  0.00  0.00    -0.243 NA
ATOM     25  C   UNL     1       4.699   8.887  -0.220  0.00  0.00    +0.090 A 
ATOM     26  S   UNL     1       5.530   9.610   1.122  0.00  0.00    -0.071 S 
ENDBRANCH  17  25
ENDBRANCH  16  17
ENDBRANCH   1  16
TORSDOF 3
