REMARK  Name = ZINC28059638
REMARK  7 active torsions:
REMARK  status: ('A' for Active; 'I' for Inactive)
REMARK    1  A    between atoms: C_1  and  C_2
REMARK    2  A    between atoms: C_10  and  C_18
REMARK    3  A    between atoms: C_21  and  O_26
REMARK    4  A    between atoms: C_22  and  O_24
REMARK    5  A    between atoms: O_24  and  C_25
REMARK    6  A    between atoms: O_26  and  C_27
REMARK    7  A    between atoms: C_28  and  C_31
REMARK                            x       y       z     vdW  Elec       q    Type
REMARK                         _______ _______ _______ _____ _____    ______ ____
ROOT
ATOM      1  C   UNL     1       4.012  -6.416  -1.578  0.00  0.00    +0.044 C 
ATOM      2  C   UNL     1       2.623  -5.965  -1.206  0.00  0.00    -0.050 A 
ATOM      3  C   UNL     1       1.597  -6.891  -1.125  0.00  0.00    +0.007 A 
ATOM      4  C   UNL     1       0.316  -6.492  -0.787  0.00  0.00    +0.046 A 
ATOM      5  C   UNL     1       0.059  -5.159  -0.528  0.00  0.00    +0.131 A 
ATOM      6  C   UNL     1       1.096  -4.221  -0.608  0.00  0.00    +0.038 A 
ATOM      7  C   UNL     1       2.379  -4.630  -0.949  0.00  0.00    +0.016 A 
ATOM      8  C   UNL     1       0.785  -2.800  -0.324  0.00  0.00    +0.050 C 
ATOM      9  C   UNL     1      -0.494  -2.416  -0.326  0.00  0.00    +0.025 C 
ATOM     10  C   UNL     1      -0.913  -1.002  -0.010  0.00  0.00    +0.174 C 
ATOM     11  N   UNL     1       0.245  -0.120  -0.029  0.00  0.00    -0.201 N 
ATOM     12  C   UNL     1       1.531  -0.559  -0.042  0.00  0.00    +0.240 A 
ATOM     13  N   UNL     1       2.299   0.492  -0.048  0.00  0.00    -0.092 NA
ATOM     14  N   UNL     1       1.587   1.567  -0.047  0.00  0.00    -0.021 NA
ATOM     15  N   UNL     1       0.327   1.272  -0.036  0.00  0.00    -0.042 NA
ATOM     16  N   UNL     1       1.831  -1.911  -0.051  0.00  0.00    -0.282 N 
ATOM     17  C   UNL     1      -1.567  -3.431  -0.651  0.00  0.00    +0.234 C 
ATOM     18  O   UNL     1      -1.185  -4.728  -0.195  0.00  0.00    -0.479 OA
ATOM     19  H   UNL     1       2.843  -2.296   0.145  0.00  0.00    +0.155 HD
ENDROOT
BRANCH  17  20
ATOM     20  C   UNL     1      -1.778  -3.471  -2.142  0.00  0.00    -0.000 A 
ATOM     21  C   UNL     1      -2.894  -2.873  -2.698  0.00  0.00    +0.008 A 
ATOM     22  C   UNL     1      -3.087  -2.904  -4.066  0.00  0.00    +0.003 A 
ATOM     23  C   UNL     1      -2.169  -3.543  -4.880  0.00  0.00    +0.038 A 
ATOM     24  C   UNL     1      -1.054  -4.146  -4.324  0.00  0.00    +0.124 A 
ATOM     25  C   UNL     1      -0.859  -4.109  -2.953  0.00  0.00    +0.046 A 
ATOM     26  F   UNL     1      -0.157  -4.770  -5.117  0.00  0.00    -0.205 F 
ENDBRANCH  17  20
BRANCH  10  27
ATOM     27  C   UNL     1      -1.549  -0.962   1.356  0.00  0.00    -0.015 A 
ATOM     28  C   UNL     1      -0.819  -1.341   2.467  0.00  0.00    +0.010 A 
ATOM     29  C   UNL     1      -1.398  -1.307   3.722  0.00  0.00    +0.050 A 
ATOM     30  C   UNL     1      -2.712  -0.892   3.868  0.00  0.00    +0.162 A 
ATOM     31  C   UNL     1      -3.446  -0.511   2.750  0.00  0.00    +0.162 A 
ATOM     32  C   UNL     1      -2.859  -0.542   1.495  0.00  0.00    +0.055 A 
BRANCH  31  33
ATOM     33  O   UNL     1      -4.736  -0.103   2.888  0.00  0.00    -0.491 OA
ATOM     34  C   UNL     1      -5.429   0.273   1.696  0.00  0.00    +0.277 C 
ENDBRANCH  31  33
BRANCH  30  35
ATOM     35  O   UNL     1      -3.283  -0.858   5.102  0.00  0.00    -0.491 OA
ATOM     36  C   UNL     1      -2.469  -1.264   6.205  0.00  0.00    +0.277 C 
ENDBRANCH  30  35
ENDBRANCH  10  27
TORSDOF 4
