REMARK  Name = ZINC15410634
REMARK  5 active torsions:
REMARK  status: ('A' for Active; 'I' for Inactive)
REMARK    1  A    between atoms: C_4  and  C_7
REMARK    2  A    between atoms: C_7  and  C_9
REMARK    3  A    between atoms: C_7  and  N_15
REMARK    4  A    between atoms: N_18  and  S_21
REMARK    5  A    between atoms: S_21  and  C_24
REMARK                            x       y       z     vdW  Elec       q    Type
REMARK                         _______ _______ _______ _____ _____    ______ ____
ROOT
ATOM      1  C   UNL     1       0.746  -1.946   1.243  0.00  0.00    +0.174 C 
ENDROOT
BRANCH   1   2
ATOM      2  C   UNL     1      -0.685  -2.337   1.510  0.00  0.00    +0.242 C 
ATOM      3  O   UNL     1      -1.543  -1.484   1.583  0.00  0.00    -0.273 OA
ATOM      4  N   UNL     1      -1.010  -3.635   1.669  0.00  0.00    -0.239 N 
ATOM      5  C   UNL     1      -2.289  -3.986   1.908  0.00  0.00    +0.303 C 
ATOM      6  O   UNL     1      -3.149  -3.131   1.981  0.00  0.00    -0.253 OA
ATOM      7  N   UNL     1      -2.614  -5.284   2.066  0.00  0.00    -0.313 N 
ATOM      8  H   UNL     1      -0.231  -4.409   1.602  0.00  0.00    +0.159 HD
ATOM      9  H   UNL     1      -3.658  -5.570   2.261  0.00  0.00    +0.146 HD
ATOM     10  H   UNL     1      -1.835  -6.058   1.999  0.00  0.00    +0.146 HD
ENDBRANCH   1   2
BRANCH   1  14
ATOM     11  C   UNL     1       3.207  -3.237   4.487  0.00  0.00    +0.000 A 
ATOM     12  C   UNL     1       3.155  -3.978   3.321  0.00  0.00    +0.000 A 
ATOM     13  C   UNL     1       2.359  -3.560   2.271  0.00  0.00    +0.005 A 
ATOM     14  C   UNL     1       1.614  -2.401   2.388  0.00  0.00    -0.021 A 
ATOM     15  C   UNL     1       1.670  -1.658   3.551  0.00  0.00    +0.005 A 
ATOM     16  C   UNL     1       2.462  -2.078   4.603  0.00  0.00    +0.000 A 
ENDBRANCH   1  14
BRANCH   1  17
ATOM     17  N   UNL     1       0.837  -0.485   1.111  0.00  0.00    -0.285 NA
ATOM     18  C   UNL     1       0.002  -0.004   0.002  0.00  0.00    +0.102 C 
ATOM     19  C   UNL     1      -0.019   1.528   0.010  0.00  0.00    +0.125 C 
ATOM     20  N   UNL     1       1.369   2.014  -0.000  0.00  0.00    -0.174 NA
ATOM     21  C   UNL     1       2.304   1.472   0.998  0.00  0.00    +0.125 C 
ATOM     22  C   UNL     1       2.233  -0.058   0.950  0.00  0.00    +0.102 C 
BRANCH  20  23
ATOM     23  S   UNL     1       1.866   3.142  -1.106  0.00  0.00    +0.061 S 
ATOM     24  O   UNL     1       3.273   2.988  -1.239  0.00  0.00    -0.153 OA
ATOM     25  O   UNL     1       0.981   3.044  -2.213  0.00  0.00    -0.153 OA
BRANCH  23  26
ATOM     26  C   UNL     1       1.600   4.729  -0.388  0.00  0.00    +0.106 A 
ATOM     27  C   UNL     1       0.395   5.380  -0.579  0.00  0.00    +0.030 A 
ATOM     28  C   UNL     1       0.183   6.622  -0.011  0.00  0.00    +0.022 A 
ATOM     29  C   UNL     1       1.181   7.219   0.740  0.00  0.00    +0.041 A 
ATOM     30  C   UNL     1       2.388   6.569   0.926  0.00  0.00    +0.022 A 
ATOM     31  C   UNL     1       2.597   5.324   0.362  0.00  0.00    +0.030 A 
ATOM     32 CL   UNL     1       0.918   8.782   1.448  0.00  0.00    -0.084 Cl
ENDBRANCH  23  26
ENDBRANCH  20  23
ENDBRANCH   1  17
TORSDOF 5
