REMARK  Name = ZINC08928035
REMARK  8 active torsions:
REMARK  status: ('A' for Active; 'I' for Inactive)
REMARK    1  A    between atoms: C_1  and  C_2
REMARK    2  A    between atoms: C_2  and  N_55
REMARK    3  A    between atoms: C_10  and  O_31
REMARK    4  A    between atoms: C_12  and  C_15
REMARK    5  A    between atoms: C_19  and  O_21
REMARK    6  A    between atoms: O_21  and  C_22
REMARK    7  A    between atoms: C_22  and  C_24
REMARK    8  A    between atoms: C_25  and  C_26
REMARK                            x       y       z     vdW  Elec       q    Type
REMARK                         _______ _______ _______ _____ _____    ______ ____
ROOT
ATOM      1  C   UNL     1      -2.423   7.449   0.531  0.00  0.00    -0.074 C 
ATOM      2  C   UNL     1      -2.416   6.002   1.032  0.00  0.00    +0.018 C 
ATOM      3  C   UNL     1      -2.008   5.099  -0.126  0.00  0.00    -0.027 A 
ATOM      4  C   UNL     1      -2.076   5.559  -1.399  0.00  0.00    -0.021 A 
ATOM      5  S   UNL     1      -1.520   4.208  -2.402  0.00  0.00    -0.080 S 
ATOM      6  C   UNL     1      -1.213   3.067  -1.164  0.00  0.00    +0.080 A 
ATOM      7  C   UNL     1      -1.534   3.736   0.024  0.00  0.00    +0.067 A 
ATOM      8  C   UNL     1      -1.356   2.988   1.295  0.00  0.00    +0.220 C 
ATOM      9  N   UNL     1      -0.732   1.845   1.245  0.00  0.00    -0.223 NA
ATOM     10  C   UNL     1      -0.104   1.291   0.051  0.00  0.00    +0.224 C 
ATOM     11  N   UNL     1      -0.759   1.770  -1.180  0.00  0.00    -0.313 N 
ATOM     12  C   UNL     1      -2.528   6.919  -1.830  0.00  0.00    -0.035 C 
ATOM     13  H   UNL     1      -0.864   1.201  -1.958  0.00  0.00    +0.149 HD
ATOM     14  N   UNL     1      -3.247   7.540  -0.692  0.00  0.00    +0.383 N 
ATOM     15  H   UNL     1      -4.129   7.038  -0.539  0.00  0.00    -0.081 HD
ENDROOT
BRANCH  10  16
ATOM     16  C   UNL     1       1.347   1.697   0.026  0.00  0.00    -0.002 A 
ATOM     17  C   UNL     1       2.004   1.838  -1.183  0.00  0.00    +0.007 A 
ATOM     18  C   UNL     1       3.333   2.215  -1.210  0.00  0.00    +0.004 A 
ATOM     19  C   UNL     1       4.013   2.442  -0.029  0.00  0.00    +0.046 A 
ATOM     20  C   UNL     1       3.358   2.296   1.185  0.00  0.00    +0.132 A 
ATOM     21  C   UNL     1       2.021   1.922   1.210  0.00  0.00    +0.053 A 
BRANCH  20  22
ATOM     22  O   UNL     1       4.024   2.518   2.349  0.00  0.00    -0.423 OA
BRANCH  22  23
ATOM     23  C   UNL     1       4.286   1.457   3.141  0.00  0.00    +0.337 C 
ATOM     24  O   UNL     1       4.023   0.332   2.759  0.00  0.00    -0.245 OA
BRANCH  23  25
ATOM     25  C   UNL     1       4.867   1.652   4.415  0.00  0.00    +0.095 C 
ATOM     26  C   UNL     1       5.131   0.585   5.211  0.00  0.00    +0.053 C 
BRANCH  26  27
ATOM     27  C   UNL     1       5.712   0.781   6.487  0.00  0.00    +0.128 A 
ATOM     28  C   UNL     1       6.027  -0.207   7.397  0.00  0.00    +0.049 A 
ATOM     29  C   UNL     1       6.581   0.440   8.512  0.00  0.00    +0.042 A 
ATOM     30  C   UNL     1       6.574   1.766   8.249  0.00  0.00    +0.195 A 
ATOM     31  O   UNL     1       6.052   1.968   7.032  0.00  0.00    -0.464 OA
ENDBRANCH  26  27
ENDBRANCH  23  25
ENDBRANCH  22  23
ENDBRANCH  20  22
ENDBRANCH  10  16
BRANCH  14  33
ATOM     32  C   UNL     1      -4.571   9.013  -2.130  0.00  0.00    -0.017 C 
ATOM     33  C   UNL     1      -3.547   8.957  -0.995  0.00  0.00    -0.082 C 
ENDBRANCH  14  33
BRANCH   8  34
ATOM     34  O   UNL     1      -1.827   3.476   2.466  0.00  0.00    -0.492 OA
ATOM     35  H   UNL     1      -1.654   2.906   3.228  0.00  0.00    +0.294 HD
ENDBRANCH   8  34
TORSDOF 7
