REMARK  Name = ZINC12673272
REMARK  8 active torsions:
REMARK  status: ('A' for Active; 'I' for Inactive)
REMARK    1  A    between atoms: C_1  and  C_2
REMARK    2  A    between atoms: C_2  and  C_4
REMARK    3  A    between atoms: C_2  and  N_45
REMARK    4  A    between atoms: N_6  and  C_7
REMARK    5  A    between atoms: C_9  and  N_14
REMARK    6  A    between atoms: C_17  and  C_19
REMARK    7  A    between atoms: C_17  and  C_25
REMARK    8  A    between atoms: C_17  and  N_45
REMARK                            x       y       z     vdW  Elec       q    Type
REMARK                         _______ _______ _______ _____ _____    ______ ____
ROOT
ATOM      1  C   UNL     1      -5.324   1.012  -1.130  0.00  0.00    -0.004 C 
ATOM      2  C   UNL     1      -4.260   2.111  -1.178  0.00  0.00    +0.014 C 
ENDROOT
BRANCH   2   3
ATOM      3  C   UNL     1      -4.891   3.402  -1.633  0.00  0.00    +0.203 C 
ATOM      4  O   UNL     1      -4.496   3.947  -2.642  0.00  0.00    -0.277 OA
ATOM      5  N   UNL     1      -5.894   3.950  -0.919  0.00  0.00    -0.286 N 
ATOM      6  H   UNL     1      -6.253   3.482  -0.149  0.00  0.00    +0.155 HD
BRANCH   5   7
ATOM      7  C   UNL     1      -6.417   5.195  -1.288  0.00  0.00    +0.054 A 
ATOM      8  C   UNL     1      -6.497   5.546  -2.629  0.00  0.00    +0.057 A 
ATOM      9  C   UNL     1      -7.014   6.775  -2.990  0.00  0.00    +0.128 A 
ATOM     10  C   UNL     1      -7.450   7.656  -2.018  0.00  0.00    +0.034 A 
ATOM     11  C   UNL     1      -7.371   7.311  -0.682  0.00  0.00    +0.024 A 
ATOM     12  C   UNL     1      -6.861   6.080  -0.314  0.00  0.00    +0.062 A 
ATOM     13 CL   UNL     1      -6.769   5.644   1.364  0.00  0.00    -0.082 Cl
BRANCH   9  14
ATOM     14  N   UNL     1      -7.101   7.149  -4.420  0.00  0.00    +0.056 N 
ATOM     15  O   UNL     1      -6.717   6.372  -5.277  0.00  0.00    -0.126 OA
ATOM     16  O   UNL     1      -7.556   8.232  -4.739  0.00  0.00    -0.126 OA
ENDBRANCH   9  14
ENDBRANCH   5   7
ENDBRANCH   2   3
BRANCH   2  17
ATOM     17  N   UNL     1      -3.200   1.729  -2.129  0.00  0.00    +0.391 N 
ATOM     18  H   UNL     1      -2.739   2.576  -2.482  0.00  0.00    -0.084 HD
ATOM     19  H   UNL     1      -3.618   1.215  -2.914  0.00  0.00    -0.084 HD
BRANCH  17  20
ATOM     20  C   UNL     1      -2.200   0.872  -1.464  0.00  0.00    -0.037 C 
BRANCH  20  21
ATOM     21  C   UNL     1      -1.513   0.018  -2.499  0.00  0.00    -0.061 A 
ATOM     22  C   UNL     1      -1.187   0.554  -3.731  0.00  0.00    +0.002 A 
ATOM     23  C   UNL     1      -0.553  -0.229  -4.678  0.00  0.00    +0.000 A 
ATOM     24  C   UNL     1      -0.254  -1.548  -4.397  0.00  0.00    +0.000 A 
ATOM     25  C   UNL     1      -0.586  -2.085  -3.167  0.00  0.00    +0.000 A 
ATOM     26  C   UNL     1      -1.215  -1.302  -2.218  0.00  0.00    +0.002 A 
ENDBRANCH  20  21
BRANCH  20  27
ATOM     27  C   UNL     1      -1.164   1.750  -0.759  0.00  0.00    -0.021 C 
ATOM     28  C   UNL     1      -0.030   1.044  -0.013  0.00  0.00    +0.002 C 
ATOM     29  C   UNL     1      -1.147   1.735   0.772  0.00  0.00    +0.002 C 
ENDBRANCH  20  27
ENDBRANCH  17  20
ENDBRANCH   2  17
TORSDOF 7
