REMARK  Name = ZINC24425373
REMARK  8 active torsions:
REMARK  status: ('A' for Active; 'I' for Inactive)
REMARK    1  A    between atoms: C_1  and  C_2
REMARK    2  A    between atoms: C_3  and  C_25
REMARK    3  A    between atoms: C_4  and  C_24
REMARK    4  A    between atoms: C_5  and  S_10
REMARK    5  A    between atoms: C_6  and  C_9
REMARK    6  A    between atoms: C_7  and  C_8
REMARK    7  A    between atoms: S_10  and  N_13
REMARK    8  A    between atoms: N_13  and  C_14
REMARK                            x       y       z     vdW  Elec       q    Type
REMARK                         _______ _______ _______ _____ _____    ______ ____
ROOT
ATOM      1  S   UNL     1      -1.021   5.892   0.678  0.00  0.00    +0.073 S 
ATOM      2  O   UNL     1      -1.426   4.684   0.048  0.00  0.00    -0.150 OA
ATOM      3  O   UNL     1       0.151   6.597   0.292  0.00  0.00    -0.150 OA
ENDROOT
BRANCH   1   8
ATOM      4  C   UNL     1      -0.441   4.662   6.556  0.00  0.00    +0.044 C 
ATOM      5  C   UNL     1      -0.586   4.970   5.088  0.00  0.00    -0.044 A 
ATOM      6  C   UNL     1       0.069   6.057   4.541  0.00  0.00    -0.043 A 
ATOM      7  C   UNL     1      -0.064   6.339   3.195  0.00  0.00    -0.020 A 
ATOM      8  C   UNL     1      -0.852   5.533   2.394  0.00  0.00    +0.115 A 
ATOM      9  C   UNL     1      -1.511   4.448   2.942  0.00  0.00    -0.020 A 
ATOM     10  C   UNL     1      -1.375   4.164   4.288  0.00  0.00    -0.043 A 
ATOM     11  C   UNL     1      -2.089   2.978   4.884  0.00  0.00    +0.044 C 
ATOM     12  C   UNL     1      -2.375   3.574   2.071  0.00  0.00    +0.046 C 
ATOM     13  C   UNL     1       0.651   7.524   2.599  0.00  0.00    +0.046 C 
ATOM     14  C   UNL     1       0.929   6.935   5.414  0.00  0.00    +0.044 C 
ENDBRANCH   1   8
BRANCH   1  15
ATOM     15  N   UNL     1      -2.283   6.953   0.522  0.00  0.00    -0.214 N 
ATOM     16  H   UNL     1      -3.187   6.654  -0.030  0.00  0.00    +0.174 HD
BRANCH  15  17
ATOM     17  C   UNL     1      -2.200   8.227   1.090  0.00  0.00    +0.073 A 
ATOM     18  C   UNL     1      -1.581   9.255   0.404  0.00  0.00    +0.026 A 
ATOM     19  C   UNL     1      -1.500  10.525   0.961  0.00  0.00    +0.003 A 
ATOM     20  C   UNL     1      -2.017  10.779   2.197  0.00  0.00    +0.011 A 
ATOM     21  C   UNL     1      -2.650   9.755   2.916  0.00  0.00    +0.021 A 
ATOM     22  C   UNL     1      -2.741   8.469   2.357  0.00  0.00    +0.088 A 
ATOM     23  N   UNL     1      -3.401   7.688   3.273  0.00  0.00    -0.275 N 
ATOM     24  H   UNL     1      -3.593   6.627   3.054  0.00  0.00    +0.189 HD
ATOM     25  N   UNL     1      -3.710   8.486   4.381  0.00  0.00    -0.181 NA
ATOM     26  C   UNL     1      -3.276   9.698   4.185  0.00  0.00    +0.142 A 
ENDBRANCH  15  17
ENDBRANCH   1  15
TORSDOF 3
