REMARK  Name = ZINC36207120
REMARK  13 active torsions:
REMARK  status: ('A' for Active; 'I' for Inactive)
REMARK    1  A    between atoms: C_1  and  O_2
REMARK    2  A    between atoms: O_2  and  C_3
REMARK    3  A    between atoms: C_8  and  C_9
REMARK    4  A    between atoms: C_18  and  C_20
REMARK    5  A    between atoms: C_20  and  N_21
REMARK    6  A    between atoms: N_21  and  C_22
REMARK    7  A    between atoms: N_21  and  C_28
REMARK    8  A    between atoms: C_22  and  C_23
REMARK    9  A    between atoms: C_28  and  C_29
REMARK   10  A    between atoms: C_29  and  C_31
REMARK   11  A    between atoms: C_29  and  O_35
REMARK   12  A    between atoms: C_31  and  C_32
REMARK   13  A    between atoms: C_32  and  C_33
REMARK                            x       y       z     vdW  Elec       q    Type
REMARK                         _______ _______ _______ _____ _____    ______ ____
ROOT
ATOM      1  C   UNL     1       0.230  -3.898   0.435  0.00  0.00    +0.007 A 
ATOM      2  C   UNL     1       0.912  -4.620   1.357  0.00  0.00    +0.056 A 
ATOM      3  S   UNL     1      -0.361  -5.169   2.476  0.00  0.00    -0.076 S 
ATOM      4  C   UNL     1      -1.766  -4.424   1.689  0.00  0.00    +0.116 A 
ATOM      5  C   UNL     1      -1.214  -3.762   0.580  0.00  0.00    +0.080 A 
ATOM      6  C   UNL     1      -2.145  -3.057  -0.248  0.00  0.00    +0.260 A 
ATOM      7  O   UNL     1      -1.762  -2.455  -1.236  0.00  0.00    -0.267 OA
ATOM      8  N   UNL     1      -3.450  -3.068   0.082  0.00  0.00    -0.312 N 
ATOM      9  H   UNL     1      -4.085  -2.592  -0.475  0.00  0.00    +0.170 HD
ATOM     10  C   UNL     1      -3.894  -3.733   1.179  0.00  0.00    +0.094 A 
ATOM     11  N   UNL     1      -3.071  -4.394   1.948  0.00  0.00    -0.229 NA
ENDROOT
BRANCH   1  17
ATOM     12  C   UNL     1       0.978  -1.860  -0.798  0.00  0.00    +0.128 A 
ATOM     13  C   UNL     1       1.648  -1.266  -1.855  0.00  0.00    +0.046 A 
ATOM     14  C   UNL     1       2.272  -2.050  -2.808  0.00  0.00    +0.004 A 
ATOM     15  C   UNL     1       2.231  -3.430  -2.713  0.00  0.00    +0.001 A 
ATOM     16  C   UNL     1       1.567  -4.035  -1.665  0.00  0.00    +0.012 A 
ATOM     17  C   UNL     1       0.940  -3.254  -0.696  0.00  0.00    +0.025 A 
BRANCH  12  19
ATOM     18  C   UNL     1       0.446   0.327  -0.031  0.00  0.00    +0.277 C 
ATOM     19  O   UNL     1       0.365  -1.090   0.139  0.00  0.00    -0.495 OA
ENDBRANCH  12  19
ENDBRANCH   1  17
BRANCH  10  20
ATOM     20  C   UNL     1      -5.365  -3.717   1.510  0.00  0.00    -0.003 C 
BRANCH  20  21
ATOM     21  N   UNL     1      -5.601  -4.499   2.731  0.00  0.00    +0.391 N 
ATOM     22  H   UNL     1      -5.193  -5.417   2.627  0.00  0.00    -0.080 HD
BRANCH  21  23
ATOM     23  C   UNL     1      -4.984  -3.817   3.876  0.00  0.00    -0.002 C 
BRANCH  23  24
ATOM     24  C   UNL     1      -5.146  -4.663   5.112  0.00  0.00    +0.089 A 
ATOM     25  C   UNL     1      -4.335  -5.667   5.490  0.00  0.00    +0.042 A 
ATOM     26  C   UNL     1      -4.855  -6.182   6.699  0.00  0.00    +0.041 A 
ATOM     27  C   UNL     1      -5.954  -5.462   6.988  0.00  0.00    +0.195 A 
ATOM     28  O   UNL     1      -6.122  -4.540   6.027  0.00  0.00    -0.470 OA
ENDBRANCH  23  24
ENDBRANCH  21  23
BRANCH  21  29
ATOM     29  C   UNL     1      -7.046  -4.629   2.958  0.00  0.00    -0.046 C 
BRANCH  29  30
ATOM     30  C   UNL     1      -7.656  -5.515   1.869  0.00  0.00    +0.098 C 
BRANCH  30  31
ATOM     31  O   UNL     1      -7.643  -4.815   0.623  0.00  0.00    -0.394 OA
ATOM     32  H   UNL     1      -8.144  -3.988   0.631  0.00  0.00    +0.210 HD
ENDBRANCH  30  31
BRANCH  30  33
ATOM     33  C   UNL     1      -9.098  -5.864   2.244  0.00  0.00    +0.033 C 
BRANCH  33  34
ATOM     34  C   UNL     1      -9.666  -6.849   1.221  0.00  0.00    +0.029 C 
BRANCH  34  35
ATOM     35  C   UNL     1     -11.086  -7.193   1.590  0.00  0.00    -0.034 C 
ATOM     36  C   UNL     1     -12.049  -7.023   0.718  0.00  0.00    +0.004 C 
ENDBRANCH  34  35
ENDBRANCH  33  34
ENDBRANCH  30  33
ENDBRANCH  29  30
ENDBRANCH  21  29
ENDBRANCH  20  21
ENDBRANCH  10  20
TORSDOF 12
