REMARK  Name = ZINC25220190
REMARK  5 active torsions:
REMARK  status: ('A' for Active; 'I' for Inactive)
REMARK    1  A    between atoms: C_4  and  N_31
REMARK    2  A    between atoms: C_5  and  N_7
REMARK    3  A    between atoms: N_10  and  C_13
REMARK    4  A    between atoms: C_13  and  C_14
REMARK    5  A    between atoms: C_22  and  C_24
REMARK                            x       y       z     vdW  Elec       q    Type
REMARK                         _______ _______ _______ _____ _____    ______ ____
ROOT
ATOM      1  C   UNL     1      -0.664  -5.804  -0.033  0.00  0.00    -0.001 C 
ENDROOT
BRANCH   1   2
ATOM      2  C   UNL     1      -0.410  -6.715  -1.207  0.00  0.00    +0.117 A 
ATOM      3  N   UNL     1      -1.011  -6.440  -2.352  0.00  0.00    -0.195 NA
ATOM      4  C   UNL     1      -0.813  -7.221  -3.413  0.00  0.00    +0.288 A 
ATOM      5  O   UNL     1      -1.420  -6.953  -4.595  0.00  0.00    -0.265 OA
ATOM      6  C   UNL     1       0.028  -8.309  -3.279  0.00  0.00    +0.104 A 
ATOM      7  C   UNL     1       0.665  -8.593  -2.050  0.00  0.00    +0.086 A 
ATOM      8  N   UNL     1       0.396  -7.730  -1.038  0.00  0.00    -0.233 NA
ATOM      9  C   UNL     1       1.492  -9.725  -2.046  0.00  0.00    +0.044 A 
ATOM     10  C   UNL     1       1.635 -10.464  -3.179  0.00  0.00    +0.022 A 
ATOM     11  S   UNL     1       0.598  -9.603  -4.349  0.00  0.00    -0.081 S 
BRANCH  10  12
ATOM     12  C   UNL     1       2.449 -11.681  -3.390  0.00  0.00    -0.011 A 
ATOM     13  C   UNL     1       3.197 -12.213  -2.340  0.00  0.00    +0.012 A 
ATOM     14  C   UNL     1       3.955 -13.348  -2.542  0.00  0.00    +0.039 A 
ATOM     15  C   UNL     1       3.973 -13.959  -3.785  0.00  0.00    +0.123 A 
ATOM     16  C   UNL     1       3.232 -13.435  -4.832  0.00  0.00    +0.039 A 
ATOM     17  C   UNL     1       2.467 -12.304  -4.639  0.00  0.00    +0.012 A 
ATOM     18  F   UNL     1       4.717 -15.071  -3.978  0.00  0.00    -0.205 F 
ENDBRANCH  10  12
ENDBRANCH   1   2
BRANCH   1  22
ATOM     19  N   UNL     1       1.238  -2.077  -0.021  0.00  0.00    -0.332 N 
ATOM     20  C   UNL     1       1.256  -2.841   1.236  0.00  0.00    +0.086 C 
ATOM     21  C   UNL     1       0.153  -3.902   1.176  0.00  0.00    -0.059 C 
ATOM     22  N   UNL     1       0.326  -4.719  -0.032  0.00  0.00    +0.386 N 
ATOM     23  C   UNL     1       0.141  -3.888  -1.228  0.00  0.00    -0.059 C 
ATOM     24  C   UNL     1       1.238  -2.826  -1.287  0.00  0.00    +0.086 C 
ATOM     25  H   UNL     1       1.254  -5.114  -0.039  0.00  0.00    -0.081 HD
BRANCH  19  30
ATOM     26  C   UNL     1      -0.017   1.377   0.010  0.00  0.00    +0.002 A 
ATOM     27  C   UNL     1       1.171   2.086   0.002  0.00  0.00    +0.002 A 
ATOM     28  C   UNL     1       2.380   1.416  -0.013  0.00  0.00    +0.034 A 
ATOM     29  C   UNL     1       2.406   0.035  -0.021  0.00  0.00    +0.147 A 
ATOM     30  C   UNL     1       1.215  -0.681  -0.013  0.00  0.00    +0.060 A 
ATOM     31  C   UNL     1       0.002  -0.004   0.002  0.00  0.00    +0.025 A 
BRANCH  29  32
ATOM     32  N   UNL     1       3.701  -0.682  -0.037  0.00  0.00    +0.058 N 
ATOM     33  O   UNL     1       4.737  -0.058  -0.044  0.00  0.00    -0.126 OA
ATOM     34  O   UNL     1       3.723  -1.891  -0.044  0.00  0.00    -0.126 OA
ENDBRANCH  29  32
ENDBRANCH  19  30
ENDBRANCH   1  22
TORSDOF 5
