REMARK  Name = ZINC64861397
REMARK  5 active torsions:
REMARK  status: ('A' for Active; 'I' for Inactive)
REMARK    1  A    between atoms: C_1  and  C_2
REMARK    2  A    between atoms: C_2  and  N_3
REMARK    3  A    between atoms: C_13  and  S_15
REMARK    4  A    between atoms: S_15  and  N_18
REMARK    5  A    between atoms: N_21  and  C_24
REMARK                            x       y       z     vdW  Elec       q    Type
REMARK                         _______ _______ _______ _____ _____    ______ ____
ROOT
ATOM      1  S   UNL     1       2.714  -7.745   4.379  0.00  0.00    +0.061 S 
ATOM      2  O   UNL     1       2.894  -7.623   5.783  0.00  0.00    -0.153 OA
ATOM      3  O   UNL     1       1.758  -8.627   3.807  0.00  0.00    -0.153 OA
ENDROOT
BRANCH   1  14
ATOM      4  N   UNL     1       0.754  -0.446   1.260  0.00  0.00    -0.299 N 
ATOM      5  C   UNL     1       0.889  -1.773   1.448  0.00  0.00    +0.306 C 
ATOM      6  O   UNL     1       0.429  -2.553   0.637  0.00  0.00    -0.252 OA
ATOM      7  N   UNL     1       1.534  -2.237   2.537  0.00  0.00    -0.255 N 
ATOM      8  C   UNL     1       2.124  -1.399   3.584  0.00  0.00    +0.120 C 
ATOM      9  C   UNL     1       2.735  -2.385   4.594  0.00  0.00    +0.056 C 
ATOM     10  C   UNL     1       2.434  -3.752   4.021  0.00  0.00    -0.023 A 
ATOM     11  C   UNL     1       1.734  -3.589   2.835  0.00  0.00    +0.041 A 
ATOM     12  C   UNL     1       1.339  -4.721   2.121  0.00  0.00    +0.026 A 
ATOM     13  C   UNL     1       1.638  -5.981   2.593  0.00  0.00    +0.030 A 
ATOM     14  C   UNL     1       2.334  -6.133   3.778  0.00  0.00    +0.106 A 
ATOM     15  C   UNL     1       2.736  -5.016   4.488  0.00  0.00    +0.034 A 
ATOM     16  H   UNL     1       1.121   0.176   1.907  0.00  0.00    +0.150 HD
BRANCH   4  18
ATOM     17  C   UNL     1       0.040   1.588   0.104  0.00  0.00    +0.024 C 
ATOM     18  C   UNL     1       0.052   0.058   0.077  0.00  0.00    +0.102 C 
ENDBRANCH   4  18
ENDBRANCH   1  14
BRANCH   1  19
ATOM     19  N   UNL     1       4.186  -8.168   3.748  0.00  0.00    -0.174 NA
ATOM     20  C   UNL     1       4.274  -8.863   2.456  0.00  0.00    +0.128 C 
ATOM     21  C   UNL     1       5.190  -8.058   1.527  0.00  0.00    +0.122 C 
ATOM     22  N   UNL     1       6.431  -7.744   2.248  0.00  0.00    -0.327 N 
ATOM     23  C   UNL     1       6.343  -7.048   3.540  0.00  0.00    +0.122 C 
ATOM     24  C   UNL     1       5.427  -7.849   4.466  0.00  0.00    +0.128 C 
BRANCH  22  25
ATOM     25  C   UNL     1       7.672  -8.100   1.716  0.00  0.00    +0.031 A 
ATOM     26  C   UNL     1       7.739  -8.858   0.553  0.00  0.00    +0.023 A 
ATOM     27  C   UNL     1       8.968  -9.209   0.029  0.00  0.00    +0.003 A 
ATOM     28  C   UNL     1      10.131  -8.807   0.660  0.00  0.00    +0.020 A 
ATOM     29  C   UNL     1      10.069  -8.053   1.818  0.00  0.00    +0.043 A 
ATOM     30  C   UNL     1       8.842  -7.693   2.345  0.00  0.00    +0.043 A 
ATOM     31 CL   UNL     1      11.531  -7.551   2.607  0.00  0.00    -0.083 Cl
ENDBRANCH  22  25
ENDBRANCH   1  19
TORSDOF 4
