REMARK  Name = ZINC22571581
REMARK  8 active torsions:
REMARK  status: ('A' for Active; 'I' for Inactive)
REMARK    1  A    between atoms: C_1  and  C_2
REMARK    2  A    between atoms: C_5  and  C_9
REMARK    3  A    between atoms: C_12  and  C_14
REMARK    4  A    between atoms: C_15  and  C_16
REMARK    5  A    between atoms: N_18  and  C_19
REMARK    6  A    between atoms: C_19  and  N_21
REMARK    7  A    between atoms: N_21  and  C_22
REMARK    8  A    between atoms: C_31  and  O_32
REMARK                            x       y       z     vdW  Elec       q    Type
REMARK                         _______ _______ _______ _____ _____    ______ ____
ROOT
ATOM      1  C   UNL     1       0.937  -7.316  -4.591  0.00  0.00    +0.242 C 
ATOM      2  O   UNL     1       1.877  -8.028  -4.288  0.00  0.00    -0.270 OA
ATOM      3  N   UNL     1       0.179  -7.621  -5.662  0.00  0.00    -0.264 N 
ATOM      4  H   UNL     1      -0.570  -7.053  -5.904  0.00  0.00    +0.157 HD
ENDROOT
BRANCH   1   6
ATOM      5  C   UNL     1       1.407  -5.861  -2.739  0.00  0.00    +0.051 C 
ATOM      6  C   UNL     1       0.642  -6.169  -3.819  0.00  0.00    +0.071 C 
BRANCH   5  10
ATOM      7  C   UNL     1       0.129  -2.879  -1.262  0.00  0.00    +0.136 A 
ATOM      8  C   UNL     1       1.179  -3.123  -0.405  0.00  0.00    +0.050 A 
ATOM      9  C   UNL     1       1.806  -4.289  -0.850  0.00  0.00    +0.050 A 
ATOM     10  C   UNL     1       1.112  -4.715  -1.968  0.00  0.00    +0.129 A 
ATOM     11  O   UNL     1       0.101  -3.849  -2.192  0.00  0.00    -0.455 OA
BRANCH   7  16
ATOM     12  C   UNL     1      -3.541   1.538  -0.907  0.00  0.00    +0.045 C 
ATOM     13  C   UNL     1      -2.579   0.382  -1.000  0.00  0.00    -0.032 A 
ATOM     14  C   UNL     1      -2.719  -0.551  -2.013  0.00  0.00    +0.005 A 
ATOM     15  C   UNL     1      -1.843  -1.612  -2.103  0.00  0.00    +0.012 A 
ATOM     16  C   UNL     1      -0.812  -1.745  -1.171  0.00  0.00    +0.019 A 
ATOM     17  C   UNL     1      -0.675  -0.800  -0.151  0.00  0.00    +0.031 A 
ATOM     18  C   UNL     1      -1.556   0.260  -0.075  0.00  0.00    +0.045 A 
ATOM     19 CL   UNL     1      -1.384   1.440   1.187  0.00  0.00    -0.083 Cl
ENDBRANCH   7  16
ENDBRANCH   5  10
ENDBRANCH   1   6
BRANCH   3  20
ATOM     20  C   UNL     1       0.460  -8.714  -6.398  0.00  0.00    +0.141 C 
ATOM     21  S   UNL     1       1.782  -9.716  -5.972  0.00  0.00    -0.018 S 
BRANCH  20  22
ATOM     22  N   UNL     1      -0.299  -9.019  -7.469  0.00  0.00    -0.293 N 
ATOM     23  H   UNL     1      -1.073  -8.476  -7.686  0.00  0.00    +0.154 HD
BRANCH  22  24
ATOM     24  C   UNL     1       0.030 -10.119  -8.269  0.00  0.00    +0.082 A 
ATOM     25  C   UNL     1       0.452  -9.930  -9.600  0.00  0.00    +0.007 A 
ATOM     26  C   UNL     1       0.554  -8.644 -10.155  0.00  0.00    +0.010 A 
ATOM     27  C   UNL     1       0.966  -8.497 -11.445  0.00  0.00    +0.001 A 
ATOM     28  C   UNL     1       1.288  -9.606 -12.225  0.00  0.00    +0.001 A 
ATOM     29  C   UNL     1       1.201 -10.867 -11.720  0.00  0.00    +0.008 A 
ATOM     30  C   UNL     1       0.780 -11.058 -10.393  0.00  0.00    -0.016 A 
ATOM     31  C   UNL     1       0.680 -12.346  -9.840  0.00  0.00    +0.012 A 
ATOM     32  C   UNL     1       0.270 -12.504  -8.552  0.00  0.00    +0.048 A 
ATOM     33  C   UNL     1      -0.051 -11.401  -7.758  0.00  0.00    +0.139 A 
BRANCH  33  34
ATOM     34  O   UNL     1      -0.452 -11.590  -6.473  0.00  0.00    -0.505 OA
ATOM     35  H   UNL     1      -1.413 -11.617  -6.361  0.00  0.00    +0.292 HD
ENDBRANCH  33  34
ENDBRANCH  22  24
ENDBRANCH  20  22
ENDBRANCH   3  20
TORSDOF 7
