REMARK  Name = ZINC19295808
REMARK  7 active torsions:
REMARK  status: ('A' for Active; 'I' for Inactive)
REMARK    1  A    between atoms: C_1  and  C_2
REMARK    2  A    between atoms: C_2  and  C_3
REMARK    3  A    between atoms: C_2  and  C_4
REMARK    4  A    between atoms: C_4  and  C_6
REMARK    5  A    between atoms: C_4  and  N_16
REMARK    6  A    between atoms: C_17  and  C_19
REMARK    7  A    between atoms: C_19  and  N_20
REMARK                            x       y       z     vdW  Elec       q    Type
REMARK                         _______ _______ _______ _____ _____    ______ ____
ROOT
ATOM      1  N   UNL     1      -4.647  -0.149   0.915  0.00  0.00    -0.307 N 
ATOM      2  C   UNL     1      -5.643  -0.864   1.476  0.00  0.00    +0.233 C 
ATOM      3  O   UNL     1      -5.749  -2.048   1.237  0.00  0.00    -0.274 OA
ATOM      4  H   UNL     1      -4.552   0.925   1.132  0.00  0.00    +0.149 HD
ENDROOT
BRANCH   1   5
ATOM      5  C   UNL     1      -3.692  -0.803   0.018  0.00  0.00    +0.106 C 
BRANCH   5   6
ATOM      6  C   UNL     1      -2.397  -0.033   0.016  0.00  0.00    -0.023 A 
ATOM      7  C   UNL     1      -2.415   1.349   0.025  0.00  0.00    +0.009 A 
ATOM      8  C   UNL     1      -1.229   2.059   0.019  0.00  0.00    +0.050 A 
ATOM      9  C   UNL     1      -0.017   1.385   0.010  0.00  0.00    +0.162 A 
ATOM     10  C   UNL     1       0.002  -0.004   0.002  0.00  0.00    +0.162 A 
ATOM     11  C   UNL     1      -1.192  -0.710   0.004  0.00  0.00    +0.055 A 
ATOM     12  O   UNL     1       1.181  -0.685  -0.007  0.00  0.00    -0.485 OA
ATOM     13  C   UNL     1       2.347   0.053  -0.387  0.00  0.00    +0.270 C 
ATOM     14  C   UNL     1       2.334   1.392   0.364  0.00  0.00    +0.270 C 
ATOM     15  O   UNL     1       1.143   2.098   0.002  0.00  0.00    -0.485 OA
ENDBRANCH   5   6
BRANCH   5  17
ATOM     16  C   UNL     1      -3.269  -1.521  -2.338  0.00  0.00    +0.009 C 
ATOM     17  C   UNL     1      -4.266  -0.838  -1.400  0.00  0.00    +0.008 C 
ATOM     18  C   UNL     1      -5.582  -1.620  -1.398  0.00  0.00    +0.009 C 
ENDBRANCH   5  17
ENDBRANCH   1   5
BRANCH   2  19
ATOM     19  C   UNL     1      -6.626  -0.191   2.399  0.00  0.00    +0.227 C 
BRANCH  19  20
ATOM     20  N   UNL     1      -7.603  -1.175   2.873  0.00  0.00    -0.194 N 
ATOM     21  C   UNL     1      -8.785  -1.577   2.229  0.00  0.00    +0.061 A 
ATOM     22  C   UNL     1      -9.280  -1.142   1.001  0.00  0.00    +0.025 A 
ATOM     23  C   UNL     1     -10.471  -1.647   0.494  0.00  0.00    +0.002 A 
ATOM     24  C   UNL     1     -11.207  -2.585   1.156  0.00  0.00    +0.009 A 
ATOM     25  C   UNL     1     -10.745  -3.059   2.395  0.00  0.00    -0.014 A 
ATOM     26  C   UNL     1      -9.536  -2.540   2.901  0.00  0.00    +0.031 A 
ATOM     27  C   UNL     1      -9.044  -2.986   4.133  0.00  0.00    +0.118 A 
ATOM     28  C   UNL     1      -9.715  -3.910   4.843  0.00  0.00    +0.029 A 
ATOM     29  C   UNL     1     -10.917  -4.433   4.349  0.00  0.00    +0.003 A 
ATOM     30  C   UNL     1     -11.430  -4.024   3.154  0.00  0.00    +0.009 A 
ATOM     31  S   UNL     1      -7.549  -2.052   4.301  0.00  0.00    +0.076 S 
ATOM     32  O   UNL     1      -6.459  -2.959   4.212  0.00  0.00    -0.150 OA
ATOM     33  O   UNL     1      -7.726  -1.141   5.377  0.00  0.00    -0.150 OA
ENDBRANCH  19  20
ENDBRANCH   2  19
TORSDOF 5
