REMARK  Name = ZINC04717973
REMARK  7 active torsions:
REMARK  status: ('A' for Active; 'I' for Inactive)
REMARK    1  A    between atoms: C_1  and  O_2
REMARK    2  A    between atoms: O_2  and  C_3
REMARK    3  A    between atoms: C_13  and  C_17
REMARK    4  A    between atoms: C_20  and  O_25
REMARK    5  A    between atoms: C_21  and  O_23
REMARK    6  A    between atoms: O_23  and  C_24
REMARK    7  A    between atoms: O_25  and  C_26
REMARK                            x       y       z     vdW  Elec       q    Type
REMARK                         _______ _______ _______ _____ _____    ______ ____
ROOT
ATOM      1  C   UNL     1       4.790   4.829  -5.543  0.00  0.00    +0.121 A 
ATOM      2  C   UNL     1       3.482   5.177  -5.855  0.00  0.00    +0.047 A 
ATOM      3  C   UNL     1       2.468   5.152  -4.914  0.00  0.00    +0.030 A 
ATOM      4  C   UNL     1       2.809   4.760  -3.622  0.00  0.00    +0.047 A 
ATOM      5  C   UNL     1       4.144   4.404  -3.300  0.00  0.00    +0.006 A 
ATOM      6  C   UNL     1       5.157   4.434  -4.265  0.00  0.00    +0.056 A 
ATOM      7  C   UNL     1       4.136   4.057  -1.897  0.00  0.00    -0.022 A 
ATOM      8  C   UNL     1       2.867   4.207  -1.454  0.00  0.00    +0.010 A 
ATOM      9  N   UNL     1       2.066   4.628  -2.481  0.00  0.00    -0.359 N 
ATOM     10  H   UNL     1       1.115   4.806  -2.410  0.00  0.00    +0.166 HD
ATOM     11  C   UNL     1       2.455   3.936  -0.027  0.00  0.00    +0.007 C 
ATOM     12  C   UNL     1       4.832   3.755   0.445  0.00  0.00    -0.076 C 
ATOM     13  C   UNL     1       5.276   3.608  -1.016  0.00  0.00    +0.018 C 
ATOM     14  N   UNL     1       3.506   3.129   0.631  0.00  0.00    +0.387 N 
ATOM     15  H   UNL     1       3.517   2.188   0.220  0.00  0.00    -0.084 HD
ATOM     16  H   UNL     1       3.302   3.062   1.635  0.00  0.00    -0.084 HD
ENDROOT
BRANCH  11  17
ATOM     17  C   UNL     1       1.158   3.168  -0.011  0.00  0.00    -0.052 A 
ATOM     18  C   UNL     1       1.161   1.805  -0.240  0.00  0.00    +0.006 A 
ATOM     19  C   UNL     1      -0.025   1.096  -0.226  0.00  0.00    +0.049 A 
ATOM     20  C   UNL     1      -1.222   1.753   0.011  0.00  0.00    +0.162 A 
ATOM     21  C   UNL     1      -1.224   3.124   0.247  0.00  0.00    +0.162 A 
ATOM     22  C   UNL     1      -0.031   3.829   0.233  0.00  0.00    +0.051 A 
BRANCH  21  23
ATOM     23  O   UNL     1      -2.396   3.772   0.487  0.00  0.00    -0.491 OA
ATOM     24  C   UNL     1      -2.323   5.181   0.714  0.00  0.00    +0.277 C 
ENDBRANCH  21  23
BRANCH  20  25
ATOM     25  O   UNL     1      -2.391   1.058   0.019  0.00  0.00    -0.485 OA
BRANCH  25  26
ATOM     26  C   UNL     1      -2.302  -0.363  -0.100  0.00  0.00    +0.174 C 
ATOM     27  C   UNL     1      -2.267  -0.768  -1.588  0.00  0.00    +0.044 C 
ATOM     28  C   UNL     1      -3.094  -2.077  -1.645  0.00  0.00    +0.004 C 
ATOM     29  C   UNL     1      -4.236  -1.805  -0.635  0.00  0.00    +0.004 C 
ATOM     30  C   UNL     1      -3.553  -1.023   0.506  0.00  0.00    +0.044 C 
ENDBRANCH  25  26
ENDBRANCH  20  25
ENDBRANCH  11  17
BRANCH   1  32
ATOM     31  C   UNL     1       5.311   5.288  -7.818  0.00  0.00    +0.277 C 
ATOM     32  O   UNL     1       5.737   4.876  -6.518  0.00  0.00    -0.495 OA
ENDBRANCH   1  32
TORSDOF 5
