REMARK  Name = ZINC50634897
REMARK  5 active torsions:
REMARK  status: ('A' for Active; 'I' for Inactive)
REMARK    1  A    between atoms: C_1  and  C_2
REMARK    2  A    between atoms: C_2  and  N_3
REMARK    3  A    between atoms: C_5  and  S_11
REMARK    4  A    between atoms: S_11  and  N_14
REMARK    5  A    between atoms: C_18  and  C_21
REMARK                            x       y       z     vdW  Elec       q    Type
REMARK                         _______ _______ _______ _____ _____    ______ ____
ROOT
ATOM      1  S   UNL     1      -4.273  -1.233   0.024  0.00  0.00    +0.104 S 
ATOM      2  O   UNL     1      -4.020  -0.279  -0.998  0.00  0.00    -0.146 OA
ATOM      3  O   UNL     1      -5.454  -2.023   0.053  0.00  0.00    -0.146 OA
ENDROOT
BRANCH   1   6
ATOM      4  N   UNL     1      -1.372  -0.511   0.012  0.00  0.00    -0.328 N 
ATOM      5  C   UNL     1      -1.608  -1.881   0.007  0.00  0.00    +0.146 A 
ATOM      6  C   UNL     1      -2.916  -2.356   0.011  0.00  0.00    +0.153 A 
ATOM      7  C   UNL     1      -3.136  -3.721   0.006  0.00  0.00    +0.049 A 
ATOM      8  C   UNL     1      -2.036  -4.570  -0.003  0.00  0.00    +0.038 A 
ATOM      9  C   UNL     1      -0.765  -4.030  -0.007  0.00  0.00    +0.128 A 
ATOM     10  N   UNL     1      -0.586  -2.723  -0.007  0.00  0.00    -0.237 NA
ATOM     11 BR   UNL     1      -2.277  -6.446  -0.010  0.00  0.00    -0.049 Br
ATOM     12  H   UNL     1      -2.118   0.109   0.023  0.00  0.00    +0.147 HD
BRANCH   4  14
ATOM     13  C   UNL     1      -0.019   1.526   0.010  0.00  0.00    +0.024 C 
ATOM     14  C   UNL     1       0.002  -0.004   0.002  0.00  0.00    +0.099 C 
ENDBRANCH   4  14
ENDBRANCH   1   6
BRANCH   1  15
ATOM     15  N   UNL     1      -4.217  -0.413   1.461  0.00  0.00    -0.111 NA
ATOM     16  C   UNL     1      -5.126   0.500   1.735  0.00  0.00    +0.153 A 
ATOM     17  C   UNL     1      -5.079   1.207   2.959  0.00  0.00    +0.048 A 
ATOM     18  C   UNL     1      -6.027   2.145   3.222  0.00  0.00    +0.008 A 
ATOM     19  C   UNL     1      -7.037   2.397   2.278  0.00  0.00    -0.034 A 
ATOM     20  C   UNL     1      -7.069   1.714   1.114  0.00  0.00    +0.087 A 
ATOM     21  N   UNL     1      -6.124   0.775   0.831  0.00  0.00    -0.345 N 
ATOM     22  C   UNL     1      -8.089   3.436   2.566  0.00  0.00    +0.045 C 
ATOM     23  H   UNL     1      -6.157   0.295  -0.012  0.00  0.00    +0.167 HD
ENDBRANCH   1  15
TORSDOF 3
