REMARK  Name = ZINC35486681
REMARK  9 active torsions:
REMARK  status: ('A' for Active; 'I' for Inactive)
REMARK    1  A    between atoms: C_1  and  N_2
REMARK    2  A    between atoms: N_2  and  C_3
REMARK    3  A    between atoms: N_2  and  C_4
REMARK    4  A    between atoms: C_4  and  C_5
REMARK    5  A    between atoms: C_5  and  N_6
REMARK    6  A    between atoms: C_7  and  C_23
REMARK    7  A    between atoms: C_26  and  O_29
REMARK    8  A    between atoms: O_29  and  C_30
REMARK    9  A    between atoms: C_30  and  C_31
REMARK                            x       y       z     vdW  Elec       q    Type
REMARK                         _______ _______ _______ _____ _____    ______ ____
ROOT
ATOM      1  N   UNL     1      -3.452  -0.617  -1.276  0.00  0.00    -0.285 N 
ATOM      2  C   UNL     1      -3.894  -1.929  -1.777  0.00  0.00    +0.144 C 
ATOM      3  C   UNL     1      -5.370  -1.976  -1.550  0.00  0.00    +0.072 A 
ATOM      4  C   UNL     1      -6.361  -3.014  -1.850  0.00  0.00    +0.199 A 
ATOM      5  O   UNL     1      -6.061  -4.139  -2.208  0.00  0.00    -0.287 OA
ATOM      6  C   UNL     1      -7.765  -2.564  -1.673  0.00  0.00    +0.065 A 
ATOM      7  C   UNL     1      -8.822  -3.365  -2.107  0.00  0.00    +0.030 A 
ATOM      8  C   UNL     1     -10.118  -2.929  -1.940  0.00  0.00    +0.019 A 
ATOM      9  C   UNL     1     -10.368  -1.699  -1.344  0.00  0.00    +0.019 A 
ATOM     10  C   UNL     1      -9.332  -0.903  -0.911  0.00  0.00    +0.048 A 
ATOM     11  C   UNL     1      -8.011  -1.322  -1.067  0.00  0.00    +0.140 A 
ATOM     12  O   UNL     1      -7.013  -0.524  -0.624  0.00  0.00    -0.450 OA
ATOM     13  C   UNL     1      -5.739  -0.797  -0.966  0.00  0.00    +0.199 A 
ATOM     14  C   UNL     1      -4.534   0.034  -0.800  0.00  0.00    +0.283 C 
ATOM     15  O   UNL     1      -4.517   1.145  -0.309  0.00  0.00    -0.267 OA
ATOM     16 BR   UNL     1     -11.559  -4.006  -2.522  0.00  0.00    -0.050 Br
ENDROOT
BRANCH   2  17
ATOM     17  C   UNL     1      -3.214  -3.034  -1.010  0.00  0.00    -0.022 A 
ATOM     18  C   UNL     1      -3.038  -2.919   0.356  0.00  0.00    +0.009 A 
ATOM     19  C   UNL     1      -2.414  -3.931   1.061  0.00  0.00    +0.046 A 
ATOM     20  C   UNL     1      -1.964  -5.062   0.396  0.00  0.00    +0.121 A 
ATOM     21  C   UNL     1      -2.142  -5.175  -0.975  0.00  0.00    +0.046 A 
ATOM     22  C   UNL     1      -2.771  -4.163  -1.674  0.00  0.00    +0.009 A 
BRANCH  20  23
ATOM     23  O   UNL     1      -1.350  -6.058   1.087  0.00  0.00    -0.483 OA
BRANCH  23  24
ATOM     24  C   UNL     1      -0.913  -7.194   0.337  0.00  0.00    +0.324 C 
BRANCH  24  25
ATOM     25  C   UNL     1      -0.260  -8.187   1.264  0.00  0.00    +0.248 C 
ATOM     26  O   UNL     1      -0.177  -7.946   2.450  0.00  0.00    -0.272 OA
ATOM     27  N   UNL     1       0.232  -9.342   0.775  0.00  0.00    -0.327 N 
ATOM     28  H   UNL     1       0.166  -9.535  -0.173  0.00  0.00    +0.145 HD
ATOM     29  H   UNL     1       0.653  -9.981   1.372  0.00  0.00    +0.145 HD
ENDBRANCH  24  25
ENDBRANCH  23  24
ENDBRANCH  20  23
ENDBRANCH   2  17
BRANCH   1  30
ATOM     30  C   UNL     1      -2.078  -0.110  -1.286  0.00  0.00    +0.090 C 
BRANCH  30  31
ATOM     31  C   UNL     1      -1.376  -0.512   0.012  0.00  0.00    -0.060 C 
BRANCH  31  33
ATOM     32  C   UNL     1      -0.018   1.465   0.010  0.00  0.00    -0.097 C 
ATOM     33  N   UNL     1       0.002  -0.004   0.002  0.00  0.00    +0.377 N 
ATOM     34  C   UNL     1       0.713  -0.491   1.192  0.00  0.00    -0.097 C 
ATOM     35  H   UNL     1       0.474  -0.330  -0.828  0.00  0.00    -0.083 HD
ENDBRANCH  31  33
ENDBRANCH  30  31
ENDBRANCH   1  30
TORSDOF 7
