REMARK  Name = ZINC39359599
REMARK  5 active torsions:
REMARK  status: ('A' for Active; 'I' for Inactive)
REMARK    1  A    between atoms: C_1  and  C_2
REMARK    2  A    between atoms: C_3  and  C_23
REMARK    3  A    between atoms: C_4  and  C_16
REMARK    4  A    between atoms: C_23  and  O_25
REMARK    5  A    between atoms: O_25  and  C_26
REMARK                            x       y       z     vdW  Elec       q    Type
REMARK                         _______ _______ _______ _____ _____    ______ ____
ROOT
ATOM      1  C   UNL     1      -0.018   1.503   0.010  0.00  0.00    +0.061 C 
ATOM      2  C   UNL     1       0.002  -0.004   0.002  0.00  0.00    +0.016 C 
ATOM      3  C   UNL     1      -1.156  -0.678   0.004  0.00  0.00    +0.062 C 
ATOM      4  C   UNL     1      -1.237  -2.178  -0.025  0.00  0.00    +0.076 C 
ATOM      5  C   UNL     1       0.065  -2.790   0.498  0.00  0.00    +0.148 C 
ATOM      6  C   UNL     1       1.182  -2.015  -0.182  0.00  0.00    +0.106 C 
ATOM      7  N   UNL     1       2.045  -2.662  -0.909  0.00  0.00    -0.151 NA
ATOM      8  C   UNL     1       1.965  -3.986  -1.099  0.00  0.00    +0.331 C 
ATOM      9  O   UNL     1       2.833  -4.514  -1.768  0.00  0.00    -0.250 OA
ATOM     10  N   UNL     1       0.998  -4.767  -0.603  0.00  0.00    -0.238 N 
ATOM     11  C   UNL     1       0.013  -4.277   0.199  0.00  0.00    +0.231 C 
ATOM     12  O   UNL     1      -0.864  -4.984   0.649  0.00  0.00    -0.275 OA
ATOM     13  N   UNL     1       1.211  -0.665  -0.013  0.00  0.00    -0.307 N 
ATOM     14  H   UNL     1       1.001  -5.713  -0.817  0.00  0.00    +0.159 HD
ATOM     15  H   UNL     1       2.049  -0.188   0.095  0.00  0.00    +0.153 HD
ENDROOT
BRANCH   4  16
ATOM     16  C   UNL     1      -2.382  -2.633   0.843  0.00  0.00    -0.038 A 
ATOM     17  C   UNL     1      -2.397  -2.316   2.189  0.00  0.00    +0.006 A 
ATOM     18  C   UNL     1      -3.447  -2.733   2.985  0.00  0.00    +0.020 A 
ATOM     19  C   UNL     1      -4.483  -3.467   2.436  0.00  0.00    +0.041 A 
ATOM     20  C   UNL     1      -4.467  -3.783   1.089  0.00  0.00    +0.020 A 
ATOM     21  C   UNL     1      -3.420  -3.361   0.292  0.00  0.00    +0.006 A 
ATOM     22 CL   UNL     1      -5.801  -3.991   3.436  0.00  0.00    -0.084 Cl
ENDBRANCH   4  16
BRANCH   3  23
ATOM     23  C   UNL     1      -2.363   0.059   0.035  0.00  0.00    +0.337 C 
ATOM     24  O   UNL     1      -2.333   1.276   0.059  0.00  0.00    -0.245 OA
BRANCH  23  25
ATOM     25  O   UNL     1      -3.548  -0.586   0.038  0.00  0.00    -0.465 OA
ATOM     26  C   UNL     1      -4.727   0.222   0.070  0.00  0.00    +0.280 C 
ENDBRANCH  23  25
ENDBRANCH   3  23
TORSDOF 3
