REMARK  Name = ZINC05883866
REMARK  11 active torsions:
REMARK  status: ('A' for Active; 'I' for Inactive)
REMARK    1  A    between atoms: C_1  and  C_2
REMARK    2  A    between atoms: C_2  and  C_3
REMARK    3  A    between atoms: C_3  and  O_4
REMARK    4  A    between atoms: O_4  and  C_5
REMARK    5  A    between atoms: C_8  and  C_11
REMARK    6  A    between atoms: C_14  and  C_25
REMARK    7  A    between atoms: C_20  and  N_24
REMARK    8  A    between atoms: C_21  and  C_22
REMARK    9  A    between atoms: C_28  and  O_31
REMARK   10  A    between atoms: O_31  and  C_32
REMARK   11  A    between atoms: C_32  and  C_33
REMARK                            x       y       z     vdW  Elec       q    Type
REMARK                         _______ _______ _______ _____ _____    ______ ____
ROOT
ATOM      1  C   UNL     1       3.310  -4.428  -5.755  0.00  0.00    +0.102 C 
ATOM      2  C   UNL     1       2.315  -5.399  -6.338  0.00  0.00    +0.054 A 
ATOM      3  C   UNL     1       1.187  -5.156  -7.048  0.00  0.00    +0.074 A 
ATOM      4  N   UNL     1       0.630  -6.367  -7.349  0.00  0.00    -0.273 N 
ATOM      5  H   UNL     1      -0.187  -6.511  -7.851  0.00  0.00    +0.189 HD
ATOM      6  N   UNL     1       1.451  -7.367  -6.804  0.00  0.00    -0.135 NA
ATOM      7  C   UNL     1       2.455  -6.794  -6.202  0.00  0.00    +0.245 A 
ATOM      8  O   UNL     1       3.502  -7.352  -5.536  0.00  0.00    -0.421 OA
ATOM      9  C   UNL     1       4.546  -6.553  -5.241  0.00  0.00    +0.201 C 
ATOM     10  C   UNL     1       4.527  -5.205  -5.322  0.00  0.00    +0.098 C 
ENDROOT
BRANCH   1  14
ATOM     11  C   UNL     1       1.587  -2.448  -2.383  0.00  0.00    +0.121 A 
ATOM     12  C   UNL     1       2.076  -1.707  -3.449  0.00  0.00    +0.046 A 
ATOM     13  C   UNL     1       2.632  -2.349  -4.538  0.00  0.00    +0.008 A 
ATOM     14  C   UNL     1       2.703  -3.730  -4.566  0.00  0.00    -0.034 A 
ATOM     15  C   UNL     1       2.216  -4.471  -3.505  0.00  0.00    +0.008 A 
ATOM     16  C   UNL     1       1.664  -3.833  -2.411  0.00  0.00    +0.046 A 
BRANCH  11  17
ATOM     17  O   UNL     1       1.039  -1.819  -1.310  0.00  0.00    -0.492 OA
BRANCH  17  18
ATOM     18  C   UNL     1       0.993  -0.391  -1.350  0.00  0.00    +0.229 C 
BRANCH  18  20
ATOM     19  C   UNL     1       0.299   1.663  -0.108  0.00  0.00    +0.007 C 
ATOM     20  C   UNL     1       0.348   0.134  -0.066  0.00  0.00    +0.038 C 
ENDBRANCH  18  20
ENDBRANCH  17  18
ENDBRANCH  11  17
ENDBRANCH   1  14
BRANCH   3  21
ATOM     21  C   UNL     1       0.656  -3.828  -7.425  0.00  0.00    +0.000 A 
ATOM     22  C   UNL     1       1.502  -2.868  -7.980  0.00  0.00    +0.013 A 
ATOM     23  C   UNL     1       1.004  -1.631  -8.331  0.00  0.00    +0.046 A 
ATOM     24  C   UNL     1      -0.339  -1.340  -8.133  0.00  0.00    +0.121 A 
ATOM     25  C   UNL     1      -1.185  -2.293  -7.580  0.00  0.00    +0.046 A 
ATOM     26  C   UNL     1      -0.695  -3.534  -7.232  0.00  0.00    +0.013 A 
BRANCH  24  27
ATOM     27  O   UNL     1      -0.827  -0.120  -8.479  0.00  0.00    -0.492 OA
BRANCH  27  28
ATOM     28  C   UNL     1      -2.218   0.112  -8.247  0.00  0.00    +0.225 C 
ATOM     29  C   UNL     1      -2.580   1.529  -8.697  0.00  0.00    +0.048 C 
ENDBRANCH  27  28
ENDBRANCH  24  27
ENDBRANCH   3  21
BRANCH   9  30
ATOM     30  N   UNL     1       5.711  -7.152  -4.829  0.00  0.00    -0.328 N 
ATOM     31  H   UNL     1       5.762  -8.118  -4.759  0.00  0.00    +0.145 HD
ATOM     32  H   UNL     1       6.484  -6.608  -4.608  0.00  0.00    +0.145 HD
ENDBRANCH   9  30
BRANCH  10  33
ATOM     33  C   UNL     1       5.716  -4.482  -4.983  0.00  0.00    +0.101 C 
ATOM     34  N   UNL     1       6.658  -3.908  -4.713  0.00  0.00    -0.191 NA
ENDBRANCH  10  33
TORSDOF 9
