REMARK  Name = ZINC15971969
REMARK  6 active torsions:
REMARK  status: ('A' for Active; 'I' for Inactive)
REMARK    1  A    between atoms: C_1  and  C_2
REMARK    2  A    between atoms: C_2  and  C_3
REMARK    3  A    between atoms: C_2  and  C_4
REMARK    4  A    between atoms: C_4  and  C_5
REMARK    5  A    between atoms: N_13  and  C_16
REMARK    6  A    between atoms: C_16  and  C_17
REMARK                            x       y       z     vdW  Elec       q    Type
REMARK                         _______ _______ _______ _____ _____    ______ ____
ROOT
ATOM      1  C   UNL     1      -0.042  -0.124   2.497  0.00  0.00    +0.068 C 
ATOM      2  C   UNL     1       0.730  -0.549   3.765  0.00  0.00    +0.107 C 
ATOM      3  C   UNL     1      -0.367  -1.020   4.759  0.00  0.00    +0.122 C 
ATOM      4  C   UNL     1      -0.292   0.002   5.871  0.00  0.00    +0.229 C 
ATOM      5  O   UNL     1      -0.989   0.010   6.863  0.00  0.00    -0.275 OA
ATOM      6  N   UNL     1       0.665   0.894   5.591  0.00  0.00    -0.238 N 
ATOM      7  C   UNL     1       1.316   0.679   4.424  0.00  0.00    +0.227 C 
ATOM      8  O   UNL     1       2.218   1.353   3.974  0.00  0.00    -0.275 OA
ATOM      9  C   UNL     1      -1.682  -0.869   3.985  0.00  0.00    +0.136 C 
ATOM     10  N   UNL     1      -1.324  -0.874   2.559  0.00  0.00    -0.295 NA
ATOM     11  C   UNL     1      -2.654  -1.961   4.330  0.00  0.00    +0.004 A 
ATOM     12  C   UNL     1      -2.605  -3.335   4.245  0.00  0.00    +0.023 A 
ATOM     13  C   UNL     1      -3.690  -4.093   4.653  0.00  0.00    +0.018 A 
ATOM     14  C   UNL     1      -4.821  -3.466   5.146  0.00  0.00    +0.017 A 
ATOM     15  C   UNL     1      -4.872  -2.090   5.233  0.00  0.00    +0.025 A 
ATOM     16  C   UNL     1      -3.785  -1.321   4.826  0.00  0.00    +0.039 A 
ATOM     17  N   UNL     1      -3.599   0.064   4.820  0.00  0.00    -0.283 N 
ATOM     18  C   UNL     1      -2.388   0.411   4.342  0.00  0.00    +0.243 C 
ATOM     19  O   UNL     1      -1.952   1.536   4.223  0.00  0.00    -0.273 OA
ATOM     20 BR   UNL     1      -3.626  -5.979   4.536  0.00  0.00    -0.050 Br
ATOM     21  H   UNL     1      -2.033  -0.425   2.000  0.00  0.00    +0.123 HD
ATOM     22  H   UNL     1      -4.263   0.701   5.125  0.00  0.00    +0.155 HD
ENDROOT
BRANCH   1  23
ATOM     23  C   UNL     1       0.742  -0.511   1.242  0.00  0.00    +0.022 C 
BRANCH  23  25
ATOM     24  C   UNL     1      -0.019   1.526   0.010  0.00  0.00    +0.007 C 
ATOM     25  C   UNL     1       0.002  -0.004   0.002  0.00  0.00    -0.016 C 
ATOM     26  C   UNL     1       0.718  -0.497  -1.257  0.00  0.00    +0.007 C 
ENDBRANCH  23  25
ENDBRANCH   1  23
BRANCH   6  27
ATOM     27  C   UNL     1       0.988   2.014   6.478  0.00  0.00    +0.143 C 
BRANCH  27  28
ATOM     28  C   UNL     1       2.052   1.589   7.457  0.00  0.00    -0.015 C 
ATOM     29  C   UNL     1       3.162   2.278   7.557  0.00  0.00    +0.005 C 
ENDBRANCH  27  28
ENDBRANCH   6  27
TORSDOF 4
