REMARK  Name = ZINC08117983
REMARK  4 active torsions:
REMARK  status: ('A' for Active; 'I' for Inactive)
REMARK    1  A    between atoms: C_1  and  C_2
REMARK    2  A    between atoms: C_5  and  C_8
REMARK    3  A    between atoms: N_10  and  N_11
REMARK    4  A    between atoms: C_12  and  C_14
REMARK                            x       y       z     vdW  Elec       q    Type
REMARK                         _______ _______ _______ _____ _____    ______ ____
ROOT
ATOM      1  N   UNL     1       2.455  -4.213  -0.043  0.00  0.00    -0.230 N 
ATOM      2  C   UNL     1       3.635  -4.865  -0.058  0.00  0.00    +0.261 C 
ATOM      3  O   UNL     1       4.676  -4.238  -0.065  0.00  0.00    -0.269 OA
ATOM      4  H   UNL     1       1.624  -4.714  -0.037  0.00  0.00    +0.173 HD
ENDROOT
BRANCH   2   5
ATOM      5  C   UNL     1       3.662  -6.344  -0.066  0.00  0.00    +0.052 A 
ATOM      6  C   UNL     1       3.658  -7.064  -1.284  0.00  0.00    +0.013 A 
ATOM      7  C   UNL     1       3.637  -6.411  -2.523  0.00  0.00    +0.011 A 
ATOM      8  C   UNL     1       3.640  -7.144  -3.672  0.00  0.00    +0.001 A 
ATOM      9  C   UNL     1       3.670  -8.537  -3.629  0.00  0.00    +0.002 A 
ATOM     10  C   UNL     1       3.696  -9.202  -2.443  0.00  0.00    +0.028 A 
ATOM     11  C   UNL     1       3.694  -8.479  -1.236  0.00  0.00    +0.072 A 
ATOM     12  N   UNL     1       3.719  -9.101  -0.058  0.00  0.00    -0.251 NA
ATOM     13  C   UNL     1       3.714  -8.453   1.091  0.00  0.00    +0.046 A 
ATOM     14  C   UNL     1       3.687  -7.064   1.127  0.00  0.00    -0.013 A 
ATOM     15  C   UNL     1       3.689  -6.284   2.415  0.00  0.00    +0.038 C 
ATOM     16  C   UNL     1       3.291  -7.180   3.586  0.00  0.00    +0.005 C 
ATOM     17  C   UNL     1       4.161  -8.441   3.546  0.00  0.00    +0.006 C 
ATOM     18  C   UNL     1       3.733  -9.286   2.348  0.00  0.00    +0.056 C 
ENDBRANCH   2   5
BRANCH   1  21
ATOM     19  C   UNL     1       1.250  -2.160  -0.021  0.00  0.00    +0.260 C 
ATOM     20  O   UNL     1       0.208  -2.788  -0.014  0.00  0.00    -0.269 OA
ATOM     21  N   UNL     1       2.429  -2.812  -0.036  0.00  0.00    -0.230 N 
ATOM     22  H   UNL     1       3.260  -2.312  -0.041  0.00  0.00    +0.173 HD
BRANCH  19  27
ATOM     23  C   UNL     1       1.142   3.593   0.010  0.00  0.00    +0.044 C 
ATOM     24  C   UNL     1       1.170   2.086   0.002  0.00  0.00    -0.050 A 
ATOM     25  C   UNL     1      -0.017   1.375   0.010  0.00  0.00    +0.004 A 
ATOM     26  C   UNL     1       0.002  -0.004   0.002  0.00  0.00    +0.013 A 
ATOM     27  C   UNL     1       1.222  -0.682  -0.013  0.00  0.00    +0.038 A 
ATOM     28  C   UNL     1       2.416   0.041  -0.021  0.00  0.00    +0.013 A 
ATOM     29  C   UNL     1       2.383   1.420  -0.013  0.00  0.00    +0.004 A 
ENDBRANCH  19  27
ENDBRANCH   1  21
TORSDOF 3
