REMARK  Name = ZINC39638701
REMARK  9 active torsions:
REMARK  status: ('A' for Active; 'I' for Inactive)
REMARK    1  A    between atoms: C_1  and  C_2
REMARK    2  A    between atoms: C_2  and  O_3
REMARK    3  A    between atoms: O_3  and  C_4
REMARK    4  A    between atoms: C_9  and  C_10
REMARK    5  A    between atoms: C_10  and  N_11
REMARK    6  A    between atoms: C_12  and  C_14
REMARK    7  A    between atoms: C_25  and  C_27
REMARK    8  A    between atoms: C_31  and  O_32
REMARK    9  A    between atoms: O_32  and  C_33
REMARK                            x       y       z     vdW  Elec       q    Type
REMARK                         _______ _______ _______ _____ _____    ______ ____
ROOT
ATOM      1  C   UNL     1       5.337   0.475  -3.310  0.00  0.00    +0.100 C 
ATOM      2  C   UNL     1       6.303  -0.701  -3.042  0.00  0.00    +0.121 C 
ATOM      3  N   UNL     1       7.076  -0.844  -4.298  0.00  0.00    -0.296 N 
ATOM      4  C   UNL     1       7.324   0.550  -4.739  0.00  0.00    +0.115 C 
ATOM      5  C   UNL     1       6.012   1.296  -4.421  0.00  0.00    -0.004 C 
ATOM      6  C   UNL     1       6.314   2.707  -3.928  0.00  0.00    -0.010 C 
ATOM      7  C   UNL     1       6.931   3.521  -5.068  0.00  0.00    -0.082 C 
ATOM      8  N   UNL     1       5.999   3.566  -6.201  0.00  0.00    +0.379 N 
ATOM      9  C   UNL     1       5.787   2.213  -6.729  0.00  0.00    -0.082 C 
ATOM     10  C   UNL     1       5.121   1.343  -5.659  0.00  0.00    -0.010 C 
ATOM     11  C   UNL     1       7.466  -1.984  -4.902  0.00  0.00    +0.251 C 
ATOM     12  O   UNL     1       7.101  -3.059  -4.467  0.00  0.00    -0.270 OA
ATOM     13  H   UNL     1       5.117   3.947  -5.894  0.00  0.00    -0.086 HD
ATOM     14  H   UNL     1       6.381   4.153  -6.927  0.00  0.00    -0.086 HD
ENDROOT
BRANCH  11  15
ATOM     15  C   UNL     1       8.334  -1.927  -6.088  0.00  0.00    +0.087 A 
ATOM     16  C   UNL     1       9.306  -0.960  -6.226  0.00  0.00    +0.063 A 
ATOM     17  S   UNL     1      10.019  -1.297  -7.706  0.00  0.00    -0.081 S 
ATOM     18  C   UNL     1       9.067  -2.718  -8.196  0.00  0.00    +0.120 A 
ATOM     19  C   UNL     1       8.212  -2.886  -7.162  0.00  0.00    +0.158 A 
ATOM     20 CL   UNL     1       9.206  -3.664  -9.645  0.00  0.00    -0.072 Cl
BRANCH  19  21
ATOM     21  O   UNL     1       7.293  -3.891  -7.136  0.00  0.00    -0.492 OA
ATOM     22  C   UNL     1       6.012  -3.613  -7.704  0.00  0.00    +0.277 C 
ENDBRANCH  19  21
ENDBRANCH  11  15
BRANCH   1  24
ATOM     23  N   UNL     1       2.876   0.650  -3.496  0.00  0.00    -0.311 N 
ATOM     24  C   UNL     1       4.000  -0.040  -3.777  0.00  0.00    +0.218 C 
ATOM     25  O   UNL     1       3.934  -1.075  -4.405  0.00  0.00    -0.275 OA
ATOM     26  H   UNL     1       2.929   1.478  -2.994  0.00  0.00    +0.149 HD
BRANCH  23  27
ATOM     27  C   UNL     1       1.577   0.149  -3.950  0.00  0.00    +0.143 C 
BRANCH  27  33
ATOM     28  C   UNL     1       0.254   2.262  -4.226  0.00  0.00    +0.125 A 
ATOM     29  C   UNL     1      -0.749   3.130  -3.822  0.00  0.00    +0.046 A 
ATOM     30  C   UNL     1      -1.506   2.837  -2.704  0.00  0.00    +0.004 A 
ATOM     31  C   UNL     1      -1.264   1.679  -1.988  0.00  0.00    +0.001 A 
ATOM     32  C   UNL     1      -0.264   0.812  -2.389  0.00  0.00    +0.009 A 
ATOM     33  C   UNL     1       0.491   1.098  -3.510  0.00  0.00    +0.011 A 
BRANCH  28  34
ATOM     34  O   UNL     1       0.999   2.548  -5.326  0.00  0.00    -0.492 OA
BRANCH  34  36
ATOM     35  C   UNL     1       1.635   3.913  -7.217  0.00  0.00    +0.048 C 
ATOM     36  C   UNL     1       0.700   3.763  -6.015  0.00  0.00    +0.225 C 
ENDBRANCH  34  36
ENDBRANCH  28  34
ENDBRANCH  27  33
ENDBRANCH  23  27
ENDBRANCH   1  24
TORSDOF 7
