REMARK  Name = ZINC13630323
REMARK  8 active torsions:
REMARK  status: ('A' for Active; 'I' for Inactive)
REMARK    1  A    between atoms: C_10  and  C_11
REMARK    2  A    between atoms: C_12  and  C_13
REMARK    3  A    between atoms: N_15  and  C_16
REMARK    4  A    between atoms: C_16  and  N_18
REMARK    5  A    between atoms: N_18  and  N_19
REMARK    6  A    between atoms: C_20  and  C_22
REMARK    7  A    between atoms: N_27  and  C_29
REMARK    8  A    between atoms: C_29  and  C_30
REMARK                            x       y       z     vdW  Elec       q    Type
REMARK                         _______ _______ _______ _____ _____    ______ ____
ROOT
ATOM      1  C   UNL     1      -2.279  -4.194   0.001  0.00  0.00    +0.153 C 
ATOM      2  S   UNL     1      -0.785  -5.030  -0.018  0.00  0.00    -0.017 S 
ENDROOT
BRANCH   1   5
ATOM      3  C   UNL     1      -1.140  -2.157   0.001  0.00  0.00    +0.242 C 
ATOM      4  O   UNL     1      -0.078  -2.751  -0.012  0.00  0.00    -0.270 OA
ATOM      5  N   UNL     1      -2.298  -2.847   0.009  0.00  0.00    -0.263 N 
ATOM      6  H   UNL     1      -3.144  -2.373   0.019  0.00  0.00    +0.157 HD
BRANCH   3   8
ATOM      7  C   UNL     1       0.002  -0.004   0.002  0.00  0.00    +0.013 C 
ATOM      8  C   UNL     1      -1.159  -0.696   0.009  0.00  0.00    +0.068 C 
BRANCH   7  18
ATOM      9  C   UNL     1       3.554   3.734  -0.012  0.00  0.00    +0.001 A 
ATOM     10  C   UNL     1       3.615   2.342  -0.020  0.00  0.00    +0.001 A 
ATOM     11  C   UNL     1       2.476   1.592  -0.013  0.00  0.00    +0.009 A 
ATOM     12  C   UNL     1       1.230   2.227   0.002  0.00  0.00    -0.011 A 
ATOM     13  C   UNL     1       1.164   3.642   0.011  0.00  0.00    -0.017 A 
ATOM     14  C   UNL     1       2.358   4.384   0.003  0.00  0.00    +0.008 A 
ATOM     15  C   UNL     1      -0.090   4.276   0.026  0.00  0.00    +0.008 A 
ATOM     16  C   UNL     1      -1.239   3.545   0.034  0.00  0.00    +0.001 A 
ATOM     17  C   UNL     1      -1.224   2.158   0.019  0.00  0.00    +0.008 A 
ATOM     18  C   UNL     1      -0.018   1.463   0.010  0.00  0.00    -0.017 A 
ENDBRANCH   7  18
ENDBRANCH   3   8
ENDBRANCH   1   5
BRANCH   1  19
ATOM     19  N   UNL     1      -3.437  -4.884   0.009  0.00  0.00    -0.246 N 
ATOM     20  H   UNL     1      -3.424  -5.854   0.003  0.00  0.00    +0.172 HD
BRANCH  19  21
ATOM     21  N   UNL     1      -4.660  -4.200   0.024  0.00  0.00    -0.235 N 
ATOM     22  C   UNL     1      -5.818  -4.890   0.031  0.00  0.00    +0.234 C 
ATOM     23  O   UNL     1      -5.801  -6.103   0.025  0.00  0.00    -0.274 OA
ATOM     24  H   UNL     1      -4.673  -3.230   0.029  0.00  0.00    +0.173 HD
BRANCH  22  25
ATOM     25  C   UNL     1      -7.133  -4.154   0.048  0.00  0.00    +0.102 C 
ATOM     26  C   UNL     1      -7.291  -3.275  -1.214  0.00  0.00    +0.110 C 
ATOM     27  C   UNL     1      -8.760  -3.383  -1.560  0.00  0.00    +0.217 C 
ATOM     28  O   UNL     1      -9.354  -2.635  -2.307  0.00  0.00    -0.276 OA
ATOM     29  N   UNL     1      -9.310  -4.429  -0.919  0.00  0.00    -0.293 N 
ATOM     30  C   UNL     1      -8.317  -5.135  -0.101  0.00  0.00    +0.121 C 
BRANCH  29  31
ATOM     31  C   UNL     1     -10.720  -4.814  -1.024  0.00  0.00    +0.182 C 
BRANCH  31  32
ATOM     32  C   UNL     1     -10.892  -5.785  -2.163  0.00  0.00    +0.122 A 
ATOM     33  C   UNL     1     -10.805  -7.125  -2.075  0.00  0.00    +0.046 A 
ATOM     34  C   UNL     1     -11.032  -7.636  -3.373  0.00  0.00    +0.041 A 
ATOM     35  C   UNL     1     -11.245  -6.579  -4.177  0.00  0.00    +0.195 A 
ATOM     36  O   UNL     1     -11.164  -5.460  -3.438  0.00  0.00    -0.466 OA
ENDBRANCH  31  32
ENDBRANCH  29  31
ENDBRANCH  22  25
ENDBRANCH  19  21
ENDBRANCH   1  19
TORSDOF 8
