REMARK  Name = ZINC09009598
REMARK  1 active torsions:
REMARK  status: ('A' for Active; 'I' for Inactive)
REMARK    1  A    between atoms: C_13  and  C_23
REMARK                            x       y       z     vdW  Elec       q    Type
REMARK                         _______ _______ _______ _____ _____    ______ ____
ROOT
ATOM      1  C   UNL     1       7.371   8.224   0.004  0.00  0.00    +0.002 A 
ATOM      2  C   UNL     1       7.172   9.597   0.017  0.00  0.00    +0.001 A 
ATOM      3  C   UNL     1       5.882  10.094   0.029  0.00  0.00    +0.017 A 
ATOM      4  C   UNL     1       4.820   9.224   0.029  0.00  0.00    +0.041 A 
ATOM      5  C   UNL     1       4.984   7.820   0.016  0.00  0.00    +0.080 A 
ATOM      6  C   UNL     1       6.317   7.348   0.004  0.00  0.00    +0.029 A 
ATOM      7  N   UNL     1       3.843   7.098   0.024  0.00  0.00    -0.225 NA
ATOM      8  C   UNL     1       2.655   7.656   0.031  0.00  0.00    +0.166 A 
ATOM      9  S   UNL     1       3.052   9.399   0.042  0.00  0.00    -0.052 S 
ATOM     10  N   UNL     1       1.411   7.050   0.034  0.00  0.00    -0.263 N 
ATOM     11  C   UNL     1       1.315   5.670   0.024  0.00  0.00    +0.217 C 
ATOM     12  N   UNL     1       0.134   5.133   0.028  0.00  0.00    -0.243 NA
ATOM     13  C   UNL     1      -0.091   3.696   0.019  0.00  0.00    +0.156 C 
ATOM     14  C   UNL     1       1.213   2.940   0.001  0.00  0.00    +0.129 C 
ATOM     15  C   UNL     1       1.181   1.591  -0.001  0.00  0.00    +0.144 C 
ATOM     16  C   UNL     1       2.441   0.770  -0.017  0.00  0.00    +0.075 C 
ATOM     17  C   UNL     1       3.561   1.541   0.687  0.00  0.00    +0.013 C 
ATOM     18  C   UNL     1       3.743   2.890  -0.015  0.00  0.00    +0.052 C 
ATOM     19  C   UNL     1       2.432   3.637   0.001  0.00  0.00    +0.035 C 
ATOM     20  N   UNL     1       2.446   4.950   0.010  0.00  0.00    -0.223 NA
ATOM     21  O   UNL     1      -0.011   0.963   0.007  0.00  0.00    -0.297 OA
ATOM     22  H   UNL     1       0.607   7.593   0.044  0.00  0.00    +0.157 HD
ENDROOT
BRANCH  13  23
ATOM     23  C   UNL     1      -0.873   3.310   1.248  0.00  0.00    -0.004 A 
ATOM     24  C   UNL     1      -1.879   2.359   1.171  0.00  0.00    +0.009 A 
ATOM     25  C   UNL     1      -2.572   2.037   2.328  0.00  0.00    +0.020 A 
ATOM     26  C   UNL     1      -2.239   2.669   3.511  0.00  0.00    +0.111 A 
ATOM     27  N   UNL     1      -1.276   3.568   3.547  0.00  0.00    -0.263 NA
ATOM     28  C   UNL     1      -0.592   3.896   2.468  0.00  0.00    +0.116 A 
ENDBRANCH  13  23
TORSDOF 1
