REMARK  Name = ZINC15947350
REMARK  8 active torsions:
REMARK  status: ('A' for Active; 'I' for Inactive)
REMARK    1  A    between atoms: C_1  and  C_2
REMARK    2  A    between atoms: C_2  and  O_3
REMARK    3  A    between atoms: O_3  and  C_4
REMARK    4  A    between atoms: C_8  and  C_11
REMARK    5  A    between atoms: C_9  and  O_10
REMARK    6  A    between atoms: N_20  and  C_23
REMARK    7  A    between atoms: C_23  and  C_24
REMARK    8  A    between atoms: C_30  and  O_32
REMARK                            x       y       z     vdW  Elec       q    Type
REMARK                         _______ _______ _______ _____ _____    ______ ____
ROOT
ATOM      1  C   UNL     1       2.224  -4.266  -3.828  0.00  0.00    +0.227 C 
ATOM      2  N   UNL     1       2.710  -5.622  -3.514  0.00  0.00    -0.313 N 
ATOM      3  C   UNL     1       3.918  -5.701  -2.860  0.00  0.00    +0.080 A 
ATOM      4  C   UNL     1       4.876  -4.683  -2.949  0.00  0.00    +0.067 A 
ATOM      5  C   UNL     1       6.093  -4.902  -2.194  0.00  0.00    -0.027 A 
ATOM      6  C   UNL     1       6.132  -6.072  -1.513  0.00  0.00    -0.021 A 
ATOM      7  S   UNL     1       4.585  -6.854  -1.871  0.00  0.00    -0.080 S 
ATOM      8  C   UNL     1       7.259  -6.561  -0.659  0.00  0.00    -0.035 C 
ATOM      9  N   UNL     1       8.459  -5.763  -0.973  0.00  0.00    +0.386 N 
ATOM     10  C   UNL     1       8.128  -4.333  -0.915  0.00  0.00    -0.073 C 
ATOM     11  C   UNL     1       7.271  -3.939  -2.123  0.00  0.00    +0.018 C 
ATOM     12  C   UNL     1       4.550  -3.509  -3.800  0.00  0.00    +0.220 C 
ATOM     13  N   UNL     1       3.317  -3.379  -4.204  0.00  0.00    -0.223 NA
ATOM     14  H   UNL     1       2.206  -6.415  -3.756  0.00  0.00    +0.149 HD
ATOM     15  H   UNL     1       8.784  -5.995  -1.899  0.00  0.00    -0.081 HD
ENDROOT
BRANCH   1  20
ATOM     16  C   UNL     1       0.777  -1.811  -1.336  0.00  0.00    +0.163 A 
ATOM     17  C   UNL     1       0.243  -2.669  -0.388  0.00  0.00    +0.064 A 
ATOM     18  C   UNL     1       0.352  -4.038  -0.555  0.00  0.00    +0.022 A 
ATOM     19  C   UNL     1       0.992  -4.553  -1.668  0.00  0.00    +0.026 A 
ATOM     20  C   UNL     1       1.526  -3.702  -2.617  0.00  0.00    +0.041 A 
ATOM     21  C   UNL     1       1.416  -2.329  -2.458  0.00  0.00    +0.165 A 
ATOM     22 BR   UNL     1      -0.376  -5.207   0.741  0.00  0.00    -0.050 Br
BRANCH  21  23
ATOM     23  O   UNL     1       1.936  -1.491  -3.394  0.00  0.00    -0.503 OA
ATOM     24  H   UNL     1       2.856  -1.241  -3.230  0.00  0.00    +0.292 HD
ENDBRANCH  21  23
BRANCH  16  25
ATOM     25  O   UNL     1       0.671  -0.465  -1.174  0.00  0.00    -0.489 OA
BRANCH  25  27
ATOM     26  C   UNL     1      -0.019   1.526   0.010  0.00  0.00    +0.048 C 
ATOM     27  C   UNL     1       0.002  -0.004   0.002  0.00  0.00    +0.226 C 
ENDBRANCH  25  27
ENDBRANCH  16  25
ENDBRANCH   1  20
BRANCH  12  28
ATOM     28  O   UNL     1       5.499  -2.608  -4.144  0.00  0.00    -0.492 OA
ATOM     29  H   UNL     1       5.174  -1.887  -4.699  0.00  0.00    +0.294 HD
ENDBRANCH  12  28
BRANCH   9  30
ATOM     30  C   UNL     1       9.514  -6.061   0.005  0.00  0.00    -0.043 C 
BRANCH  30  31
ATOM     31  C   UNL     1       9.941  -7.498  -0.140  0.00  0.00    -0.064 A 
ATOM     32  C   UNL     1       9.303  -8.486   0.586  0.00  0.00    +0.002 A 
ATOM     33  C   UNL     1       9.695  -9.805   0.453  0.00  0.00    +0.000 A 
ATOM     34  C   UNL     1      10.726 -10.136  -0.406  0.00  0.00    +0.000 A 
ATOM     35  C   UNL     1      11.364  -9.148  -1.133  0.00  0.00    +0.000 A 
ATOM     36  C   UNL     1      10.969  -7.830  -1.003  0.00  0.00    +0.002 A 
ENDBRANCH  30  31
ENDBRANCH   9  30
TORSDOF 7
