REMARK  Name = ZINC39865454
REMARK  7 active torsions:
REMARK  status: ('A' for Active; 'I' for Inactive)
REMARK    1  A    between atoms: C_1  and  C_2
REMARK    2  A    between atoms: C_5  and  N_7
REMARK    3  A    between atoms: N_9  and  C_23
REMARK    4  A    between atoms: C_13  and  C_14
REMARK    5  A    between atoms: C_13  and  C_15
REMARK    6  A    between atoms: C_18  and  N_21
REMARK    7  A    between atoms: C_23  and  C_24
REMARK                            x       y       z     vdW  Elec       q    Type
REMARK                         _______ _______ _______ _____ _____    ______ ____
ROOT
ATOM      1  N   UNL     1       0.507  -2.916   2.207  0.00  0.00    -0.199 NA
ATOM      2  C   UNL     1       0.194  -4.181   2.015  0.00  0.00    +0.171 C 
ATOM      3  N   UNL     1      -0.040  -4.834   0.826  0.00  0.00    -0.242 N 
ATOM      4  C   UNL     1      -0.345  -6.120   0.812  0.00  0.00    +0.260 C 
ATOM      5  O   UNL     1      -0.555  -6.713  -0.231  0.00  0.00    -0.269 OA
ATOM      6  C   UNL     1      -0.421  -6.804   2.116  0.00  0.00    +0.081 C 
ATOM      7  C   UNL     1      -0.710  -8.102   2.393  0.00  0.00    -0.024 C 
ATOM      8  C   UNL     1      -1.012  -9.063   1.272  0.00  0.00    +0.045 C 
ATOM      9  S   UNL     1      -0.022  -5.468   3.233  0.00  0.00    -0.048 S 
ENDROOT
BRANCH   1  14
ATOM     10  C   UNL     1       2.351  -0.464  -1.584  0.00  0.00    +0.066 C 
ATOM     11  C   UNL     1       1.236  -0.831  -0.639  0.00  0.00    +0.048 A 
ATOM     12  C   UNL     1       0.013  -0.260  -0.779  0.00  0.00    +0.071 A 
ATOM     13  S   UNL     1      -0.874  -1.041   0.563  0.00  0.00    -0.056 S 
ATOM     14  C   UNL     1       0.478  -2.043   1.166  0.00  0.00    +0.195 A 
ATOM     15  N   UNL     1       1.446  -1.709   0.318  0.00  0.00    -0.226 NA
ENDBRANCH   1  14
BRANCH   7  16
ATOM     16  C   UNL     1      -0.728  -8.569   3.784  0.00  0.00    -0.021 A 
ATOM     17  C   UNL     1       0.451  -8.569   4.541  0.00  0.00    +0.010 A 
ATOM     18  C   UNL     1       0.429  -9.006   5.840  0.00  0.00    +0.023 A 
ATOM     19  C   UNL     1      -0.762  -9.450   6.408  0.00  0.00    +0.025 A 
ATOM     20  C   UNL     1      -1.936  -9.452   5.660  0.00  0.00    +0.023 A 
ATOM     21  C   UNL     1      -1.926  -9.011   4.362  0.00  0.00    +0.010 A 
BRANCH  19  22
ATOM     22  N   UNL     1      -0.779  -9.893   7.728  0.00  0.00    -0.358 N 
ATOM     23  H   UNL     1       0.038  -9.892   8.250  0.00  0.00    +0.142 HD
ATOM     24  H   UNL     1      -1.609 -10.202   8.125  0.00  0.00    +0.142 HD
ENDBRANCH  19  22
ENDBRANCH   7  16
BRANCH   3  25
ATOM     25  C   UNL     1       0.051  -4.096  -0.436  0.00  0.00    +0.142 C 
BRANCH  25  26
ATOM     26  C   UNL     1       1.488  -4.045  -0.887  0.00  0.00    -0.015 C 
ATOM     27  C   UNL     1       1.816  -4.476  -2.080  0.00  0.00    +0.005 C 
ENDBRANCH  25  26
ENDBRANCH   3  25
TORSDOF 5
