REMARK  Name = ZINC23873767
REMARK  3 active torsions:
REMARK  status: ('A' for Active; 'I' for Inactive)
REMARK    1  A    between atoms: C_9  and  S_12
REMARK    2  A    between atoms: S_12  and  N_15
REMARK    3  A    between atoms: N_15  and  C_16
REMARK                            x       y       z     vdW  Elec       q    Type
REMARK                         _______ _______ _______ _____ _____    ______ ____
ROOT
ATOM      1  S   UNL     1      -1.460   1.756  -0.130  0.00  0.00    +0.092 S 
ATOM      2  O   UNL     1      -2.474   0.767  -0.016  0.00  0.00    -0.148 OA
ATOM      3  O   UNL     1      -1.393   2.881   0.736  0.00  0.00    -0.148 OA
ENDROOT
BRANCH   1  12
ATOM      4  C   UNL     1      -0.648   5.479  -3.674  0.00  0.00    +0.018 A 
ATOM      5  C   UNL     1      -0.751   5.907  -4.957  0.00  0.00    +0.092 A 
ATOM      6  C   UNL     1      -1.332   5.068  -5.933  0.00  0.00    +0.337 A 
ATOM      7  O   UNL     1      -1.419   5.464  -7.081  0.00  0.00    -0.245 OA
ATOM      8  O   UNL     1      -1.792   3.845  -5.627  0.00  0.00    -0.422 OA
ATOM      9  C   UNL     1      -1.720   3.359  -4.369  0.00  0.00    +0.139 A 
ATOM     10  C   UNL     1      -1.153   4.141  -3.348  0.00  0.00    +0.019 A 
ATOM     11  C   UNL     1      -1.081   3.642  -2.044  0.00  0.00    +0.040 A 
ATOM     12  C   UNL     1      -1.555   2.389  -1.772  0.00  0.00    +0.111 A 
ATOM     13  C   UNL     1      -2.115   1.614  -2.777  0.00  0.00    +0.032 A 
ATOM     14  C   UNL     1      -2.199   2.091  -4.069  0.00  0.00    +0.049 A 
ENDBRANCH   1  12
BRANCH   1  15
ATOM     15  N   UNL     1      -0.011   0.966   0.007  0.00  0.00    -0.096 NA
BRANCH  15  16
ATOM     16  C   UNL     1       1.186   1.663  -0.183  0.00  0.00    +0.093 A 
ATOM     17  C   UNL     1       1.296   2.983   0.232  0.00  0.00    +0.029 A 
ATOM     18  C   UNL     1       2.480   3.669   0.043  0.00  0.00    +0.022 A 
ATOM     19  C   UNL     1       3.556   3.042  -0.561  0.00  0.00    +0.042 A 
ATOM     20  C   UNL     1       3.450   1.727  -0.976  0.00  0.00    +0.042 A 
ATOM     21  C   UNL     1       2.270   1.033  -0.784  0.00  0.00    +0.067 A 
ATOM     22 CL   UNL     1       2.140  -0.620  -1.298  0.00  0.00    -0.081 Cl
ATOM     23 CL   UNL     1       5.042   3.908  -0.797  0.00  0.00    -0.083 Cl
ENDBRANCH  15  16
ENDBRANCH   1  15
TORSDOF 3
