REMARK  Name = ZINC39606531
REMARK  11 active torsions:
REMARK  status: ('A' for Active; 'I' for Inactive)
REMARK    1  A    between atoms: C_1  and  C_2
REMARK    2  A    between atoms: C_2  and  C_3
REMARK    3  A    between atoms: C_3  and  C_5
REMARK    4  A    between atoms: C_3  and  C_6
REMARK    5  A    between atoms: C_6  and  N_7
REMARK    6  A    between atoms: C_8  and  C_10
REMARK    7  A    between atoms: C_21  and  C_23
REMARK    8  A    between atoms: C_25  and  O_31
REMARK    9  A    between atoms: C_28  and  O_29
REMARK   10  A    between atoms: O_29  and  C_30
REMARK   11  A    between atoms: O_31  and  C_32
REMARK                            x       y       z     vdW  Elec       q    Type
REMARK                         _______ _______ _______ _____ _____    ______ ____
ROOT
ATOM      1  C   UNL     1       2.769  -4.305   3.591  0.00  0.00    +0.100 C 
ATOM      2  C   UNL     1       4.235  -3.844   3.430  0.00  0.00    +0.121 C 
ATOM      3  N   UNL     1       5.042  -4.980   3.935  0.00  0.00    -0.296 N 
ATOM      4  C   UNL     1       4.331  -6.185   3.443  0.00  0.00    +0.115 C 
ATOM      5  C   UNL     1       2.836  -5.841   3.598  0.00  0.00    -0.004 C 
ATOM      6  C   UNL     1       2.041  -6.410   2.427  0.00  0.00    -0.010 C 
ATOM      7  C   UNL     1       2.073  -7.940   2.489  0.00  0.00    -0.082 C 
ATOM      8  N   UNL     1       1.500  -8.393   3.762  0.00  0.00    +0.379 N 
ATOM      9  C   UNL     1       2.325  -7.918   4.879  0.00  0.00    -0.082 C 
ATOM     10  C   UNL     1       2.303  -6.387   4.919  0.00  0.00    -0.010 C 
ATOM     11  C   UNL     1       6.168  -4.930   4.674  0.00  0.00    +0.250 C 
ATOM     12  O   UNL     1       6.578  -3.862   5.085  0.00  0.00    -0.270 OA
ATOM     13  H   UNL     1       0.565  -8.027   3.857  0.00  0.00    -0.086 HD
ATOM     14  H   UNL     1       1.467  -9.401   3.775  0.00  0.00    -0.086 HD
ENDROOT
BRANCH  11  15
ATOM     15  C   UNL     1       6.902  -6.171   4.986  0.00  0.00    +0.082 A 
ATOM     16  C   UNL     1       6.957  -7.208   4.050  0.00  0.00    +0.062 A 
ATOM     17  C   UNL     1       7.647  -8.368   4.348  0.00  0.00    +0.121 A 
ATOM     18  C   UNL     1       8.285  -8.505   5.575  0.00  0.00    +0.049 A 
ATOM     19  C   UNL     1       8.236  -7.487   6.505  0.00  0.00    +0.050 A 
ATOM     20  C   UNL     1       7.552  -6.314   6.218  0.00  0.00    +0.132 A 
BRANCH  20  21
ATOM     21  O   UNL     1       7.508  -5.311   7.131  0.00  0.00    -0.494 OA
ATOM     22  C   UNL     1       8.194  -5.527   8.366  0.00  0.00    +0.277 C 
ENDBRANCH  20  21
BRANCH  17  23
ATOM     23  O   UNL     1       7.702  -9.377   3.438  0.00  0.00    -0.495 OA
ATOM     24  C   UNL     1       8.432 -10.547   3.811  0.00  0.00    +0.277 C 
ENDBRANCH  17  23
ENDBRANCH  11  15
BRANCH   1  26
ATOM     25  N   UNL     1       0.598  -3.737   2.552  0.00  0.00    -0.315 N 
ATOM     26  C   UNL     1       1.937  -3.821   2.431  0.00  0.00    +0.218 C 
ATOM     27  O   UNL     1       2.473  -3.507   1.389  0.00  0.00    -0.275 OA
ATOM     28  H   UNL     1       0.169  -3.987   3.385  0.00  0.00    +0.149 HD
BRANCH  25  29
ATOM     29  C   UNL     1      -0.211  -3.267   1.425  0.00  0.00    +0.107 C 
BRANCH  29  30
ATOM     30  C   UNL     1      -1.689  -3.266   1.823  0.00  0.00    +0.003 C 
ATOM     31  C   UNL     1      -2.148  -4.703   2.079  0.00  0.00    +0.009 C 
BRANCH  30  33
ATOM     32  C   UNL     1      -3.980  -2.543   1.137  0.00  0.00    +0.004 C 
ATOM     33  C   UNL     1      -2.521  -2.659   0.692  0.00  0.00    +0.001 C 
ENDBRANCH  30  33
ENDBRANCH  29  30
ENDBRANCH  25  29
ENDBRANCH   1  26
TORSDOF 7
