REMARK  Name = ZINC12145445
REMARK  9 active torsions:
REMARK  status: ('A' for Active; 'I' for Inactive)
REMARK    1  A    between atoms: C_1  and  C_2
REMARK    2  A    between atoms: C_3  and  C_27
REMARK    3  A    between atoms: N_9  and  C_15
REMARK    4  A    between atoms: C_10  and  C_12
REMARK    5  A    between atoms: C_12  and  C_13
REMARK    6  A    between atoms: C_12  and  C_14
REMARK    7  A    between atoms: C_20  and  C_21
REMARK    8  A    between atoms: C_20  and  N_58
REMARK    9  A    between atoms: N_23  and  C_24
REMARK                            x       y       z     vdW  Elec       q    Type
REMARK                         _______ _______ _______ _____ _____    ______ ____
ROOT
ATOM      1  C   UNL     1       2.437   5.915  -0.378  0.00  0.00    +0.045 C 
ATOM      2  C   UNL     1       3.403   4.775  -0.181  0.00  0.00    -0.026 A 
ATOM      3  C   UNL     1       4.720   5.011  -0.072  0.00  0.00    -0.008 A 
ATOM      4  S   UNL     1       5.416   3.383   0.142  0.00  0.00    -0.073 S 
ATOM      5  C   UNL     1       3.918   2.434   0.079  0.00  0.00    +0.116 A 
ATOM      6  C   UNL     1       2.920   3.408  -0.106  0.00  0.00    +0.075 A 
ATOM      7  C   UNL     1       1.579   2.912  -0.199  0.00  0.00    +0.263 A 
ATOM      8  O   UNL     1       0.645   3.677  -0.364  0.00  0.00    -0.267 OA
ATOM      9  N   UNL     1       1.367   1.587  -0.095  0.00  0.00    -0.293 N 
ATOM     10  C   UNL     1       2.395   0.718   0.084  0.00  0.00    +0.116 A 
ATOM     11  N   UNL     1       3.629   1.139   0.167  0.00  0.00    -0.226 NA
ATOM     12  C   UNL     1       5.439   6.335  -0.119  0.00  0.00    +0.052 C 
ENDROOT
BRANCH   9  13
ATOM     13  C   UNL     1      -0.002   1.070  -0.183  0.00  0.00    +0.088 C 
ATOM     14  C   UNL     1      -0.861   1.708   0.912  0.00  0.00    +0.006 C 
ATOM     15  C   UNL     1      -2.303   1.210   0.776  0.00  0.00    -0.076 C 
ATOM     16  C   UNL     1      -2.041   0.927  -1.616  0.00  0.00    -0.076 C 
ATOM     17  C   UNL     1      -0.592   1.416  -1.552  0.00  0.00    +0.006 C 
ATOM     18  N   UNL     1      -2.821   1.596  -0.553  0.00  0.00    +0.386 N 
ATOM     19  H   UNL     1      -2.730   2.613  -0.664  0.00  0.00    -0.081 HD
BRANCH  18  20
ATOM     20  C   UNL     1      -4.247   1.227  -0.666  0.00  0.00    +0.019 C 
BRANCH  20  21
ATOM     21  C   UNL     1      -5.046   2.085   0.281  0.00  0.00    +0.197 C 
ATOM     22  O   UNL     1      -4.484   2.899   0.983  0.00  0.00    -0.278 OA
ATOM     23  N   UNL     1      -6.385   1.948   0.347  0.00  0.00    -0.314 N 
ATOM     24  H   UNL     1      -6.835   1.296  -0.214  0.00  0.00    +0.149 HD
BRANCH  23  25
ATOM     25  C   UNL     1      -7.162   2.782   1.268  0.00  0.00    +0.073 C 
ATOM     26  C   UNL     1      -8.262   2.099   2.083  0.00  0.00    +0.024 C 
ATOM     27  C   UNL     1      -8.633   3.029   0.926  0.00  0.00    +0.024 C 
ENDBRANCH  23  25
ENDBRANCH  20  21
ENDBRANCH  18  20
ENDBRANCH   9  13
BRANCH  10  28
ATOM     28  C   UNL     1       2.108  -0.758   0.188  0.00  0.00    +0.049 C 
ATOM     29  C   UNL     1       3.351  -1.549  -0.223  0.00  0.00    +0.015 C 
ATOM     30  C   UNL     1       1.737  -1.104   1.631  0.00  0.00    +0.015 C 
ENDBRANCH  10  28
TORSDOF 5
