REMARK  Name = ZINC53523808
REMARK  9 active torsions:
REMARK  status: ('A' for Active; 'I' for Inactive)
REMARK    1  A    between atoms: C_1  and  C_2
REMARK    2  A    between atoms: C_2  and  C_4
REMARK    3  A    between atoms: C_2  and  N_14
REMARK    4  A    between atoms: C_7  and  S_10
REMARK    5  A    between atoms: S_10  and  C_13
REMARK    6  A    between atoms: N_17  and  C_18
REMARK    7  A    between atoms: C_18  and  C_19
REMARK    8  A    between atoms: C_19  and  C_21
REMARK    9  A    between atoms: C_19  and  N_26
REMARK                            x       y       z     vdW  Elec       q    Type
REMARK                         _______ _______ _______ _____ _____    ______ ____
ROOT
ATOM      1  N   UNL     1       0.730   0.561  -1.578  0.00  0.00    -0.293 N 
ATOM      2  C   UNL     1       0.104   0.344  -2.751  0.00  0.00    +0.300 C 
ATOM      3  O   UNL     1      -0.958   0.889  -2.984  0.00  0.00    -0.253 OA
ATOM      4  N   UNL     1       0.654  -0.478  -3.667  0.00  0.00    -0.301 N 
ATOM      5  H   UNL     1       1.577   0.127  -1.393  0.00  0.00    +0.151 HD
ATOM      6  H   UNL     1       1.501  -0.912  -3.482  0.00  0.00    +0.150 HD
ENDROOT
BRANCH   1   8
ATOM      7  C   UNL     1       0.525   2.900  -0.893  0.00  0.00    +0.033 C 
ATOM      8  C   UNL     1       0.132   1.455  -0.583  0.00  0.00    +0.102 C 
BRANCH   8   9
ATOM      9  C   UNL     1       0.630   1.082   0.790  0.00  0.00    -0.027 A 
ATOM     10  C   UNL     1       1.954   0.730   0.973  0.00  0.00    +0.007 A 
ATOM     11  C   UNL     1       2.411   0.388   2.232  0.00  0.00    +0.027 A 
ATOM     12  C   UNL     1       1.543   0.399   3.309  0.00  0.00    +0.088 A 
ATOM     13  C   UNL     1       0.219   0.752   3.126  0.00  0.00    +0.027 A 
ATOM     14  C   UNL     1      -0.236   1.098   1.867  0.00  0.00    +0.007 A 
BRANCH  12  15
ATOM     15  S   UNL     1       2.125  -0.038   4.913  0.00  0.00    -0.006 S 
ATOM     16  O   UNL     1       0.975  -0.517   5.598  0.00  0.00    -0.170 OA
ATOM     17  O   UNL     1       3.235  -0.892   4.676  0.00  0.00    -0.170 OA
ATOM     18  C   UNL     1       2.683   1.524   5.648  0.00  0.00    +0.200 C 
ENDBRANCH  12  15
ENDBRANCH   8   9
ENDBRANCH   1   8
BRANCH   4  19
ATOM     19  C   UNL     1      -0.027  -0.714  -4.942  0.00  0.00    +0.098 C 
BRANCH  19  20
ATOM     20  C   UNL     1       0.863  -1.571  -5.845  0.00  0.00    +0.016 C 
BRANCH  20  21
ATOM     21  N   UNL     1       2.161  -0.907  -6.026  0.00  0.00    +0.387 N 
ATOM     22  C   UNL     1       1.946   0.450  -6.542  0.00  0.00    -0.078 C 
ATOM     23  C   UNL     1       3.290   1.174  -6.656  0.00  0.00    -0.019 C 
ATOM     24  C   UNL     1       4.202   0.400  -7.612  0.00  0.00    -0.004 C 
ATOM     25  C   UNL     1       4.358  -1.035  -7.103  0.00  0.00    -0.019 C 
ATOM     26  C   UNL     1       2.975  -1.678  -6.973  0.00  0.00    -0.078 C 
ATOM     27  H   UNL     1       2.638  -0.855  -5.138  0.00  0.00    -0.081 HD
ENDBRANCH  20  21
BRANCH  20  28
ATOM     28  C   UNL     1       0.198  -1.747  -7.185  0.00  0.00    +0.093 A 
ATOM     29  C   UNL     1      -0.354  -2.884  -7.646  0.00  0.00    +0.043 A 
ATOM     30  C   UNL     1      -0.859  -2.601  -8.936  0.00  0.00    +0.041 A 
ATOM     31  C   UNL     1      -0.585  -1.308  -9.187  0.00  0.00    +0.195 A 
ATOM     32  O   UNL     1       0.050  -0.794  -8.120  0.00  0.00    -0.469 OA
ENDBRANCH  20  28
ENDBRANCH  19  20
ENDBRANCH   4  19
TORSDOF 7
