REMARK  Name = ZINC67418746
REMARK  7 active torsions:
REMARK  status: ('A' for Active; 'I' for Inactive)
REMARK    1  A    between atoms: C_1  and  C_2
REMARK    2  A    between atoms: C_2  and  C_4
REMARK    3  A    between atoms: C_2  and  N_17
REMARK    4  A    between atoms: N_6  and  C_7
REMARK    5  A    between atoms: C_21  and  C_24
REMARK    6  A    between atoms: C_24  and  N_25
REMARK    7  A    between atoms: C_26  and  C_28
REMARK                            x       y       z     vdW  Elec       q    Type
REMARK                         _______ _______ _______ _____ _____    ______ ____
ROOT
ATOM      1  C   UNL     1       0.011   1.315   0.778  0.00  0.00    -0.004 C 
ATOM      2  C   UNL     1       0.002  -0.004   0.002  0.00  0.00    +0.016 C 
ENDROOT
BRANCH   2   3
ATOM      3  N   UNL     1       1.006  -0.913   0.571  0.00  0.00    +0.387 N 
ATOM      4  C   UNL     1       2.329  -0.280   0.509  0.00  0.00    -0.078 C 
ATOM      5  C   UNL     1       3.365  -1.189   1.174  0.00  0.00    -0.018 C 
ATOM      6  C   UNL     1       3.405  -2.531   0.438  0.00  0.00    +0.001 C 
ATOM      7  C   UNL     1       2.004  -3.148   0.444  0.00  0.00    -0.011 C 
ATOM      8  C   UNL     1       1.018  -2.166  -0.194  0.00  0.00    -0.073 C 
ATOM      9  H   UNL     1       0.773  -1.110   1.533  0.00  0.00    -0.081 HD
BRANCH   7  10
ATOM     10  C   UNL     1       2.016  -4.452  -0.356  0.00  0.00    +0.105 C 
BRANCH  10  11
ATOM     11  N   UNL     1       2.873  -5.431   0.320  0.00  0.00    -0.315 N 
ATOM     12  C   UNL     1       3.036  -6.660  -0.207  0.00  0.00    +0.210 C 
ATOM     13  O   UNL     1       2.473  -6.957  -1.240  0.00  0.00    -0.276 OA
ATOM     14  C   UNL     1       3.917  -7.667   0.488  0.00  0.00    +0.109 C 
ATOM     15  H   UNL     1       3.323  -5.193   1.145  0.00  0.00    +0.149 HD
ENDBRANCH  10  11
ENDBRANCH   7  10
ENDBRANCH   2   3
BRANCH   2  16
ATOM     16  C   UNL     1      -1.362  -0.636   0.102  0.00  0.00    +0.200 C 
ATOM     17  O   UNL     1      -1.596  -1.439   0.980  0.00  0.00    -0.278 OA
ATOM     18  N   UNL     1      -2.323  -0.310  -0.786  0.00  0.00    -0.311 N 
ATOM     19  H   UNL     1      -2.136   0.332  -1.488  0.00  0.00    +0.149 HD
BRANCH  18  20
ATOM     20  C   UNL     1      -3.649  -0.924  -0.689  0.00  0.00    +0.035 C 
ATOM     21  C   UNL     1      -4.269  -0.587   0.668  0.00  0.00    +0.029 C 
ATOM     22  C   UNL     1      -5.655  -1.229   0.769  0.00  0.00    -0.008 C 
ATOM     23  C   UNL     1      -6.549  -0.690  -0.349  0.00  0.00    +0.007 C 
ATOM     24  C   UNL     1      -5.929  -1.027  -1.706  0.00  0.00    -0.008 C 
ATOM     25  C   UNL     1      -4.544  -0.385  -1.807  0.00  0.00    +0.029 C 
ATOM     26  C   UNL     1      -5.799  -2.545  -1.844  0.00  0.00    +0.007 C 
ATOM     27  C   UNL     1      -4.904  -3.084  -0.726  0.00  0.00    -0.008 C 
ATOM     28  C   UNL     1      -5.524  -2.747   0.631  0.00  0.00    +0.007 C 
ATOM     29  C   UNL     1      -3.519  -2.442  -0.827  0.00  0.00    +0.029 C 
ENDBRANCH  18  20
ENDBRANCH   2  16
TORSDOF 5
