REMARK  Name = ZINC63571882
REMARK  7 active torsions:
REMARK  status: ('A' for Active; 'I' for Inactive)
REMARK    1  A    between atoms: C_1  and  C_2
REMARK    2  A    between atoms: C_2  and  O_3
REMARK    3  A    between atoms: O_3  and  C_4
REMARK    4  A    between atoms: C_4  and  C_6
REMARK    5  A    between atoms: C_6  and  C_7
REMARK    6  A    between atoms: C_7  and  N_13
REMARK    7  A    between atoms: C_29  and  C_31
REMARK                            x       y       z     vdW  Elec       q    Type
REMARK                         _______ _______ _______ _____ _____    ______ ____
ROOT
ATOM      1  N   UNL     1       1.893  -4.303  -1.369  0.00  0.00    -0.293 N 
ATOM      2  C   UNL     1       1.234  -4.160  -0.203  0.00  0.00    +0.303 C 
ATOM      3  O   UNL     1       0.220  -3.490  -0.156  0.00  0.00    -0.253 OA
ATOM      4  N   UNL     1       1.698  -4.758   0.912  0.00  0.00    -0.276 N 
ATOM      5  C   UNL     1       2.979  -5.470   0.873  0.00  0.00    +0.114 C 
ATOM      6  C   UNL     1       2.766  -6.934   1.299  0.00  0.00    +0.052 C 
ATOM      7  C   UNL     1       1.893  -6.904   2.529  0.00  0.00    -0.035 C 
ATOM      8  C   UNL     1       2.041  -7.460   3.725  0.00  0.00    -0.001 A 
ATOM      9  C   UNL     1       3.049  -8.395   4.253  0.00  0.00    +0.010 A 
ATOM     10  C   UNL     1       2.908  -8.754   5.556  0.00  0.00    +0.001 A 
ATOM     11  C   UNL     1       1.879  -8.284   6.377  0.00  0.00    +0.002 A 
ATOM     12  C   UNL     1       0.905  -7.429   5.973  0.00  0.00    +0.026 A 
ATOM     13  C   UNL     1       0.942  -6.986   4.619  0.00  0.00    +0.043 A 
ATOM     14  N   UNL     1       0.135  -6.199   3.970  0.00  0.00    -0.375 N 
ATOM     15  C   UNL     1       0.583  -6.126   2.579  0.00  0.00    +0.131 C 
ATOM     16  C   UNL     1       0.916  -4.686   2.156  0.00  0.00    +0.134 C 
ATOM     17  H   UNL     1       2.737  -4.782  -1.394  0.00  0.00    +0.151 HD
ATOM     18  H   UNL     1      -0.632  -5.739   4.344  0.00  0.00    +0.160 HD
ENDROOT
BRANCH  16  19
ATOM     19  C   UNL     1       1.728  -4.010   3.231  0.00  0.00    -0.025 A 
ATOM     20  C   UNL     1       1.242  -2.876   3.854  0.00  0.00    +0.008 A 
ATOM     21  C   UNL     1       1.986  -2.256   4.840  0.00  0.00    +0.038 A 
ATOM     22  C   UNL     1       3.219  -2.770   5.203  0.00  0.00    +0.123 A 
ATOM     23  C   UNL     1       3.705  -3.906   4.578  0.00  0.00    +0.038 A 
ATOM     24  C   UNL     1       2.957  -4.528   3.596  0.00  0.00    +0.008 A 
ATOM     25  F   UNL     1       3.947  -2.164   6.166  0.00  0.00    -0.205 F 
ENDBRANCH  16  19
BRANCH   1  26
ATOM     26  C   UNL     1       1.337  -3.735  -2.600  0.00  0.00    +0.046 C 
ATOM     27  C   UNL     1      -0.074  -4.283  -2.822  0.00  0.00    +0.026 C 
ATOM     28  C   UNL     1      -0.016  -5.807  -2.944  0.00  0.00    +0.002 C 
ATOM     29  C   UNL     1       0.872  -6.190  -4.130  0.00  0.00    +0.000 C 
ATOM     30  C   UNL     1       2.284  -5.642  -3.907  0.00  0.00    +0.002 C 
ATOM     31  C   UNL     1       2.225  -4.118  -3.785  0.00  0.00    +0.026 C 
BRANCH  26  32
ATOM     32  C   UNL     1       1.279  -2.211  -2.478  0.00  0.00    +0.146 C 
BRANCH  32  33
ATOM     33  C   UNL     1       2.652  -1.680  -2.155  0.00  0.00    +0.309 C 
ATOM     34  O   UNL     1       3.555  -2.447  -1.917  0.00  0.00    -0.251 OA
BRANCH  33  35
ATOM     35  O   UNL     1       2.872  -0.356  -2.133  0.00  0.00    -0.465 OA
BRANCH  35  37
ATOM     36  C   UNL     1       4.254   1.605  -1.843  0.00  0.00    +0.048 C 
ATOM     37  C   UNL     1       4.197   0.076  -1.820  0.00  0.00    +0.229 C 
ENDBRANCH  35  37
ENDBRANCH  33  35
ENDBRANCH  32  33
ENDBRANCH  26  32
ENDBRANCH   1  26
TORSDOF 6
