REMARK  Name = ZINC39966550
REMARK  10 active torsions:
REMARK  status: ('A' for Active; 'I' for Inactive)
REMARK    1  A    between atoms: C_1  and  C_2
REMARK    2  A    between atoms: C_2  and  N_3
REMARK    3  A    between atoms: C_4  and  C_23
REMARK    4  A    between atoms: C_7  and  S_8
REMARK    5  A    between atoms: S_8  and  C_9
REMARK    6  A    between atoms: C_9  and  C_10
REMARK    7  A    between atoms: N_12  and  C_13
REMARK    8  A    between atoms: C_14  and  C_20
REMARK    9  A    between atoms: C_15  and  C_19
REMARK   10  A    between atoms: C_16  and  C_18
REMARK                            x       y       z     vdW  Elec       q    Type
REMARK                         _______ _______ _______ _____ _____    ______ ____
ROOT
ATOM      1  S   UNL     1      -1.884  -0.179  -2.727  0.00  0.00    -0.077 S 
ENDROOT
BRANCH   1   6
ATOM      2  N   UNL     1      -1.436  -0.368   0.030  0.00  0.00    -0.302 N 
ATOM      3  C   UNL     1      -2.111  -0.889   1.109  0.00  0.00    +0.166 A 
ATOM      4  N   UNL     1      -3.223  -1.414   0.651  0.00  0.00    -0.128 NA
ATOM      5  N   UNL     1      -3.290  -1.260  -0.623  0.00  0.00    -0.122 NA
ATOM      6  C   UNL     1      -2.228  -0.622  -1.056  0.00  0.00    +0.192 A 
BRANCH   3   7
ATOM      7  C   UNL     1      -1.666  -0.863   2.519  0.00  0.00    +0.030 A 
ATOM      8  C   UNL     1      -0.394  -1.234   2.844  0.00  0.00    +0.057 A 
ATOM      9  S   UNL     1      -0.391  -1.020   4.617  0.00  0.00    -0.101 S 
ATOM     10  C   UNL     1      -2.063  -0.451   4.798  0.00  0.00    -0.006 A 
ATOM     11  C   UNL     1      -2.553  -0.450   3.534  0.00  0.00    -0.026 A 
ATOM     12  C   UNL     1      -3.991  -0.042   3.224  0.00  0.00    +0.036 C 
ATOM     13  C   UNL     1      -4.500   0.920   4.290  0.00  0.00    +0.005 C 
ATOM     14  C   UNL     1      -5.151   0.155   5.441  0.00  0.00    +0.001 C 
ATOM     15  C   UNL     1      -4.122  -0.739   6.125  0.00  0.00    +0.005 C 
ATOM     16  C   UNL     1      -2.759  -0.051   6.059  0.00  0.00    +0.043 C 
ENDBRANCH   3   7
BRANCH   2  18
ATOM     17  C   UNL     1      -0.356   1.800   0.368  0.00  0.00    +0.027 C 
ATOM     18  C   UNL     1      -0.143   0.320   0.042  0.00  0.00    +0.122 C 
ENDBRANCH   2  18
ENDBRANCH   1   6
BRANCH   1  19
ATOM     19  C   UNL     1      -3.317  -0.801  -3.649  0.00  0.00    +0.173 C 
BRANCH  19  20
ATOM     20  C   UNL     1      -3.148  -0.484  -5.113  0.00  0.00    +0.228 C 
ATOM     21  O   UNL     1      -2.158   0.104  -5.496  0.00  0.00    -0.275 OA
ATOM     22  N   UNL     1      -4.096  -0.853  -5.996  0.00  0.00    -0.279 N 
ATOM     23  H   UNL     1      -4.888  -1.323  -5.690  0.00  0.00    +0.155 HD
BRANCH  22  24
ATOM     24  C   UNL     1      -3.941  -0.561  -7.343  0.00  0.00    +0.084 A 
ATOM     25  C   UNL     1      -4.808  -0.856  -8.385  0.00  0.00    +0.068 A 
ATOM     26  C   UNL     1      -4.398  -0.434  -9.705  0.00  0.00    -0.027 A 
ATOM     27  C   UNL     1      -3.214   0.202  -9.777  0.00  0.00    -0.008 A 
ATOM     28  S   UNL     1      -2.664   0.236  -8.085  0.00  0.00    -0.078 S 
ATOM     29  C   UNL     1      -2.523   0.756 -10.996  0.00  0.00    +0.052 C 
ATOM     30  C   UNL     1      -5.245  -0.690 -10.925  0.00  0.00    +0.045 C 
BRANCH  25  31
ATOM     31  C   UNL     1      -6.074  -1.559  -8.159  0.00  0.00    +0.244 C 
ATOM     32  O   UNL     1      -7.087  -0.928  -7.921  0.00  0.00    -0.270 OA
ATOM     33  N   UNL     1      -6.116  -2.905  -8.214  0.00  0.00    -0.325 N 
ATOM     34  H   UNL     1      -5.309  -3.409  -8.403  0.00  0.00    +0.145 HD
ATOM     35  H   UNL     1      -6.954  -3.371  -8.064  0.00  0.00    +0.145 HD
ENDBRANCH  25  31
ENDBRANCH  22  24
ENDBRANCH  19  20
ENDBRANCH   1  19
TORSDOF 7
