REMARK  Name = ZINC21222366
REMARK  12 active torsions:
REMARK  status: ('A' for Active; 'I' for Inactive)
REMARK    1  A    between atoms: C_1  and  O_2
REMARK    2  A    between atoms: O_2  and  C_3
REMARK    3  A    between atoms: C_6  and  O_39
REMARK    4  A    between atoms: C_7  and  C_9
REMARK    5  A    between atoms: C_14  and  C_24
REMARK    6  A    between atoms: C_26  and  O_34
REMARK    7  A    between atoms: C_27  and  O_32
REMARK    8  A    between atoms: C_29  and  O_30
REMARK    9  A    between atoms: O_30  and  C_31
REMARK   10  A    between atoms: O_32  and  C_33
REMARK   11  A    between atoms: O_34  and  C_35
REMARK   12  A    between atoms: O_39  and  C_40
REMARK                            x       y       z     vdW  Elec       q    Type
REMARK                         _______ _______ _______ _____ _____    ______ ____
ROOT
ATOM      1  C   UNL     1      -0.343  -3.819   6.450  0.00  0.00    +0.036 C 
ATOM      2  C   UNL     1      -0.328  -3.029   7.757  0.00  0.00    +0.060 C 
ATOM      3  C   UNL     1       0.123  -1.601   7.498  0.00  0.00    +0.017 C 
ATOM      4  C   UNL     1       0.995  -1.330   6.512  0.00  0.00    +0.037 C 
ATOM      5  C   UNL     1       1.525   0.037   6.149  0.00  0.00    +0.140 C 
ATOM      6  N   UNL     1       1.229   1.070   7.117  0.00  0.00    -0.331 N 
ATOM      7  C   UNL     1      -0.083   1.457   7.372  0.00  0.00    +0.049 A 
ATOM      8  C   UNL     1      -0.542   2.720   7.028  0.00  0.00    +0.025 A 
ATOM      9  C   UNL     1      -1.874   3.038   7.224  0.00  0.00    +0.002 A 
ATOM     10  C   UNL     1      -2.745   2.106   7.760  0.00  0.00    +0.002 A 
ATOM     11  C   UNL     1      -2.286   0.852   8.127  0.00  0.00    +0.025 A 
ATOM     12  C   UNL     1      -0.950   0.541   7.949  0.00  0.00    +0.052 A 
ATOM     13  N   UNL     1      -0.409  -0.679   8.341  0.00  0.00    -0.316 N 
ATOM     14  C   UNL     1       1.502  -2.373   5.701  0.00  0.00    +0.163 C 
ATOM     15  O   UNL     1       2.306  -2.102   4.831  0.00  0.00    -0.292 OA
ATOM     16  C   UNL     1       1.080  -3.801   5.878  0.00  0.00    +0.088 C 
ATOM     17  H   UNL     1       2.047   1.562   7.665  0.00  0.00    +0.147 HD
ATOM     18  H   UNL     1      -0.434  -0.873   9.424  0.00  0.00    +0.152 HD
ENDROOT
BRANCH   1  23
ATOM     19  C   UNL     1      -0.441  -7.330   7.845  0.00  0.00    +0.121 A 
ATOM     20  C   UNL     1      -1.554  -7.852   7.204  0.00  0.00    +0.049 A 
ATOM     21  C   UNL     1      -2.273  -7.070   6.321  0.00  0.00    +0.049 A 
ATOM     22  C   UNL     1      -1.882  -5.762   6.076  0.00  0.00    +0.124 A 
ATOM     23  C   UNL     1      -0.769  -5.240   6.717  0.00  0.00    +0.002 A 
ATOM     24  C   UNL     1      -0.046  -6.024   7.596  0.00  0.00    +0.053 A 
BRANCH  19  26
ATOM     25  C   UNL     1      -0.192  -9.437   8.918  0.00  0.00    +0.277 C 
ATOM     26  O   UNL     1       0.267  -8.100   8.714  0.00  0.00    -0.495 OA
ENDBRANCH  19  26
BRANCH  22  27
ATOM     27  O   UNL     1      -2.590  -4.992   5.207  0.00  0.00    -0.495 OA
ATOM     28  C   UNL     1      -3.725  -5.595   4.583  0.00  0.00    +0.277 C 
ENDBRANCH  22  27
ENDBRANCH   1  23
BRANCH   5  29
ATOM     29  C   UNL     1       0.935   0.441   4.822  0.00  0.00    +0.023 A 
ATOM     30  C   UNL     1      -0.180  -0.215   4.334  0.00  0.00    +0.058 A 
ATOM     31  C   UNL     1      -0.727   0.159   3.118  0.00  0.00    +0.162 A 
ATOM     32  C   UNL     1      -0.147   1.187   2.381  0.00  0.00    +0.165 A 
ATOM     33  C   UNL     1       0.970   1.843   2.872  0.00  0.00    +0.095 A 
ATOM     34  C   UNL     1       1.511   1.470   4.093  0.00  0.00    +0.129 A 
BRANCH  34  35
ATOM     35  O   UNL     1       2.608   2.113   4.575  0.00  0.00    -0.495 OA
ATOM     36  C   UNL     1       3.150   3.163   3.771  0.00  0.00    +0.277 C 
ENDBRANCH  34  35
BRANCH  32  37
ATOM     37  O   UNL     1      -0.680   1.552   1.184  0.00  0.00    -0.491 OA
ATOM     38  C   UNL     1      -0.036   2.619   0.486  0.00  0.00    +0.277 C 
ENDBRANCH  32  37
BRANCH  31  39
ATOM     39  O   UNL     1      -1.828  -0.483   2.641  0.00  0.00    -0.491 OA
ATOM     40  C   UNL     1      -2.370  -1.529   3.450  0.00  0.00    +0.277 C 
ENDBRANCH  31  39
ENDBRANCH   5  29
TORSDOF 7
