REMARK  Name = ZINC24017866
REMARK  11 active torsions:
REMARK  status: ('A' for Active; 'I' for Inactive)
REMARK    1  A    between atoms: C_1  and  C_2
REMARK    2  A    between atoms: C_2  and  C_3
REMARK    3  A    between atoms: C_3  and  N_4
REMARK    4  A    between atoms: C_5  and  N_30
REMARK    5  A    between atoms: C_6  and  N_13
REMARK    6  A    between atoms: N_13  and  C_14
REMARK    7  A    between atoms: C_14  and  C_15
REMARK    8  A    between atoms: C_15  and  O_16
REMARK    9  A    between atoms: O_16  and  C_17
REMARK   10  A    between atoms: C_18  and  C_20
REMARK   11  A    between atoms: C_21  and  C_22
REMARK                            x       y       z     vdW  Elec       q    Type
REMARK                         _______ _______ _______ _____ _____    ______ ____
ROOT
ATOM      1  N   UNL     1      -1.386  -4.782  -2.383  0.00  0.00    -0.259 N 
ATOM      2  C   UNL     1      -1.285  -4.040  -3.504  0.00  0.00    +0.244 C 
ATOM      3  O   UNL     1      -1.312  -2.825  -3.434  0.00  0.00    -0.270 OA
ENDROOT
BRANCH   1   6
ATOM      4  N   UNL     1      -0.422  -3.720   0.999  0.00  0.00    -0.280 N 
ATOM      5  C   UNL     1      -0.375  -4.347  -0.225  0.00  0.00    +0.127 A 
ATOM      6  C   UNL     1      -1.406  -4.154  -1.121  0.00  0.00    +0.140 A 
ATOM      7  C   UNL     1      -2.478  -3.319  -0.754  0.00  0.00    +0.277 A 
ATOM      8  O   UNL     1      -3.403  -3.131  -1.526  0.00  0.00    -0.266 OA
ATOM      9  N   UNL     1      -2.476  -2.728   0.458  0.00  0.00    -0.273 N 
ATOM     10  H   UNL     1      -3.215  -2.153   0.712  0.00  0.00    +0.173 HD
ATOM     11  C   UNL     1      -1.465  -2.933   1.320  0.00  0.00    +0.331 A 
ATOM     12  O   UNL     1      -1.491  -2.391   2.409  0.00  0.00    -0.246 OA
BRANCH   5  13
ATOM     13  N   UNL     1       0.688  -5.155  -0.551  0.00  0.00    -0.343 N 
ATOM     14  H   UNL     1       1.443  -5.231   0.054  0.00  0.00    +0.144 HD
ATOM     15  H   UNL     1       0.683  -5.649  -1.385  0.00  0.00    +0.144 HD
ENDBRANCH   5  13
BRANCH   4  16
ATOM     16  C   UNL     1       0.665  -3.916   1.960  0.00  0.00    +0.128 C 
BRANCH  16  18
ATOM     17  C   UNL     1       1.489  -5.328   3.849  0.00  0.00    +0.005 C 
ATOM     18  C   UNL     1       0.353  -5.124   2.845  0.00  0.00    +0.018 C 
ENDBRANCH  16  18
ENDBRANCH   4  16
ENDBRANCH   1   6
BRANCH   2  19
ATOM     19  C   UNL     1      -1.143  -4.694  -4.805  0.00  0.00    +0.068 C 
ATOM     20  C   UNL     1      -1.042  -3.952  -5.926  0.00  0.00    +0.016 C 
BRANCH  20  21
ATOM     21  C   UNL     1      -0.898  -4.610  -7.234  0.00  0.00    +0.012 A 
ATOM     22  C   UNL     1       0.065  -5.609  -7.417  0.00  0.00    +0.049 A 
ATOM     23  C   UNL     1       0.192  -6.222  -8.648  0.00  0.00    +0.020 A 
ATOM     24  C   UNL     1      -0.629  -5.851  -9.698  0.00  0.00    +0.003 A 
ATOM     25  C   UNL     1      -1.584  -4.864  -9.525  0.00  0.00    +0.020 A 
ATOM     26  C   UNL     1      -1.728  -4.245  -8.300  0.00  0.00    +0.049 A 
ATOM     27 CL   UNL     1      -2.932  -3.012  -8.085  0.00  0.00    -0.083 Cl
ATOM     28 CL   UNL     1       1.096  -6.076  -6.102  0.00  0.00    -0.083 Cl
ENDBRANCH  20  21
ENDBRANCH   2  19
BRANCH   1  29
ATOM     29  C   UNL     1      -1.475  -6.241  -2.477  0.00  0.00    +0.142 C 
BRANCH  29  30
ATOM     30  C   UNL     1      -2.936  -6.651  -2.676  0.00  0.00    +0.179 C 
BRANCH  30  31
ATOM     31  O   UNL     1      -3.400  -6.163  -3.936  0.00  0.00    -0.381 OA
ATOM     32  C   UNL     1      -4.761  -6.493  -4.222  0.00  0.00    +0.194 C 
ENDBRANCH  30  31
ENDBRANCH  29  30
ENDBRANCH   1  29
TORSDOF 9
