REMARK  Name = ZINC14729192
REMARK  5 active torsions:
REMARK  status: ('A' for Active; 'I' for Inactive)
REMARK    1  A    between atoms: C_1  and  C_2
REMARK    2  A    between atoms: C_11  and  N_15
REMARK    3  A    between atoms: N_15  and  C_16
REMARK    4  A    between atoms: C_21  and  C_22
REMARK    5  A    between atoms: C_21  and  N_50
REMARK                            x       y       z     vdW  Elec       q    Type
REMARK                         _______ _______ _______ _____ _____    ______ ____
ROOT
ATOM      1  N   UNL     1       1.362   3.413   0.008  0.00  0.00    -0.326 N 
ATOM      2  H   UNL     1       0.563   3.959  -0.054  0.00  0.00    +0.148 HD
ENDROOT
BRANCH   1  12
ATOM      3  C   UNL     1      -5.384   3.558   0.042  0.00  0.00    +0.008 C 
ATOM      4  C   UNL     1      -3.972   3.061  -0.275  0.00  0.00    -0.009 C 
ATOM      5  C   UNL     1      -2.952   3.852   0.549  0.00  0.00    +0.008 C 
ATOM      6  C   UNL     1      -1.537   3.538   0.062  0.00  0.00    +0.037 C 
ATOM      7  C   UNL     1      -1.343   2.025   0.051  0.00  0.00    -0.025 A 
ATOM      8  C   UNL     1      -2.405   1.194   0.075  0.00  0.00    -0.004 A 
ATOM      9  S   UNL     1      -1.717  -0.439   0.051  0.00  0.00    -0.073 S 
ATOM     10  C   UNL     1       0.002  -0.004   0.015  0.00  0.00    +0.114 A 
ATOM     11  C   UNL     1      -0.017   1.405   0.025  0.00  0.00    +0.051 A 
ATOM     12  C   UNL     1       1.259   2.033   0.001  0.00  0.00    +0.131 A 
ATOM     13  N   UNL     1       2.347   1.280  -0.027  0.00  0.00    -0.220 NA
ATOM     14  C   UNL     1       2.289  -0.040  -0.035  0.00  0.00    +0.224 A 
ATOM     15  N   UNL     1       1.135  -0.678  -0.014  0.00  0.00    -0.228 NA
ATOM     16  C   UNL     1      -3.854   1.575   0.109  0.00  0.00    +0.046 C 
ENDBRANCH   1  12
BRANCH   1  17
ATOM     17  C   UNL     1       2.678   4.048   0.109  0.00  0.00    +0.068 C 
ATOM     18  C   UNL     1       3.079   4.161   1.583  0.00  0.00    +0.003 C 
ATOM     19  C   UNL     1       4.425   4.882   1.685  0.00  0.00    -0.076 C 
ATOM     20  C   UNL     1       3.978   6.132  -0.342  0.00  0.00    -0.076 C 
ATOM     21  C   UNL     1       2.618   5.450  -0.505  0.00  0.00    +0.003 C 
ATOM     22  N   UNL     1       4.294   6.233   1.099  0.00  0.00    +0.385 N 
ATOM     23  H   UNL     1       3.530   6.729   1.573  0.00  0.00    -0.081 HD
BRANCH  22  24
ATOM     24  C   UNL     1       5.549   6.990   1.288  0.00  0.00    +0.018 C 
BRANCH  24  25
ATOM     25  C   UNL     1       5.731   7.266   2.758  0.00  0.00    +0.194 C 
ATOM     26  O   UNL     1       4.915   6.860   3.558  0.00  0.00    -0.278 OA
ATOM     27  N   UNL     1       6.802   7.965   3.184  0.00  0.00    -0.331 N 
ATOM     28  H   UNL     1       7.455   8.290   2.545  0.00  0.00    +0.145 HD
ATOM     29  H   UNL     1       6.920   8.143   4.131  0.00  0.00    +0.145 HD
ENDBRANCH  24  25
ENDBRANCH  22  24
ENDBRANCH   1  17
TORSDOF 4
