REMARK  Name = ZINC39665584
REMARK  9 active torsions:
REMARK  status: ('A' for Active; 'I' for Inactive)
REMARK    1  A    between atoms: C_1  and  C_2
REMARK    2  A    between atoms: C_2  and  C_4
REMARK    3  A    between atoms: C_2  and  O_29
REMARK    4  A    between atoms: C_4  and  N_5
REMARK    5  A    between atoms: C_6  and  C_8
REMARK    6  A    between atoms: C_19  and  C_21
REMARK    7  A    between atoms: O_29  and  C_30
REMARK    8  A    between atoms: C_33  and  O_36
REMARK    9  A    between atoms: O_36  and  C_37
REMARK                            x       y       z     vdW  Elec       q    Type
REMARK                         _______ _______ _______ _____ _____    ______ ____
ROOT
ATOM      1  C   UNL     1       1.574  -4.078   1.765  0.00  0.00    +0.100 C 
ATOM      2  C   UNL     1       0.060  -4.380   1.701  0.00  0.00    +0.121 C 
ATOM      3  N   UNL     1      -0.107  -5.623   2.489  0.00  0.00    -0.296 N 
ATOM      4  C   UNL     1       0.814  -5.459   3.639  0.00  0.00    +0.115 C 
ATOM      5  C   UNL     1       2.065  -4.787   3.038  0.00  0.00    -0.004 C 
ATOM      6  C   UNL     1       3.112  -5.841   2.685  0.00  0.00    -0.010 C 
ATOM      7  C   UNL     1       3.626  -6.493   3.972  0.00  0.00    -0.082 C 
ATOM      8  N   UNL     1       4.210  -5.466   4.843  0.00  0.00    +0.379 N 
ATOM      9  C   UNL     1       3.175  -4.508   5.253  0.00  0.00    -0.082 C 
ATOM     10  C   UNL     1       2.642  -3.772   4.020  0.00  0.00    -0.010 C 
ATOM     11  C   UNL     1      -0.915  -6.669   2.221  0.00  0.00    +0.249 C 
ATOM     12  O   UNL     1      -1.551  -6.695   1.185  0.00  0.00    -0.270 OA
ATOM     13  H   UNL     1       4.602  -5.905   5.662  0.00  0.00    -0.086 HD
ATOM     14  H   UNL     1       4.939  -4.978   4.345  0.00  0.00    -0.086 HD
ENDROOT
BRANCH  11  15
ATOM     15  C   UNL     1      -1.026  -7.781   3.184  0.00  0.00    +0.072 A 
ATOM     16  C   UNL     1      -0.957  -7.530   4.557  0.00  0.00    +0.019 A 
ATOM     17  C   UNL     1      -1.062  -8.572   5.452  0.00  0.00    +0.039 A 
ATOM     18  C   UNL     1      -1.236  -9.870   4.994  0.00  0.00    +0.126 A 
ATOM     19  C   UNL     1      -1.305 -10.128   3.635  0.00  0.00    +0.077 A 
ATOM     20  C   UNL     1      -1.207  -9.091   2.727  0.00  0.00    +0.138 A 
ATOM     21  F   UNL     1      -1.281  -9.342   1.401  0.00  0.00    -0.205 F 
ATOM     22  F   UNL     1      -1.337 -10.887   5.878  0.00  0.00    -0.205 F 
ENDBRANCH  11  15
BRANCH   1  24
ATOM     23  N   UNL     1       2.934  -2.052   1.358  0.00  0.00    -0.312 N 
ATOM     24  C   UNL     1       1.810  -2.593   1.868  0.00  0.00    +0.218 C 
ATOM     25  O   UNL     1       0.988  -1.885   2.409  0.00  0.00    -0.275 OA
ATOM     26  H   UNL     1       3.592  -2.619   0.925  0.00  0.00    +0.149 HD
BRANCH  23  27
ATOM     27  C   UNL     1       3.163  -0.609   1.458  0.00  0.00    +0.148 C 
BRANCH  27  29
ATOM     28  C   UNL     1       4.800   1.228   1.020  0.00  0.00    +0.053 C 
ATOM     29  C   UNL     1       4.502  -0.258   0.806  0.00  0.00    +0.187 C 
BRANCH  29  30
ATOM     30  O   UNL     1       4.436  -0.534  -0.595  0.00  0.00    -0.488 OA
BRANCH  30  31
ATOM     31  C   UNL     1       5.614  -0.761  -1.235  0.00  0.00    +0.121 A 
ATOM     32  C   UNL     1       5.628  -0.984  -2.604  0.00  0.00    +0.049 A 
ATOM     33  C   UNL     1       6.825  -1.215  -3.254  0.00  0.00    +0.049 A 
ATOM     34  C   UNL     1       8.013  -1.223  -2.538  0.00  0.00    +0.120 A 
ATOM     35  C   UNL     1       7.999  -1.000  -1.169  0.00  0.00    +0.049 A 
ATOM     36  C   UNL     1       6.803  -0.765  -0.520  0.00  0.00    +0.049 A 
BRANCH  34  37
ATOM     37  O   UNL     1       9.191  -1.451  -3.178  0.00  0.00    -0.495 OA
ATOM     38  C   UNL     1      10.375  -1.446  -2.378  0.00  0.00    +0.277 C 
ENDBRANCH  34  37
ENDBRANCH  30  31
ENDBRANCH  29  30
ENDBRANCH  27  29
ENDBRANCH  23  27
ENDBRANCH   1  24
TORSDOF 7
