REMARK  Name = ZINC55887756
REMARK  9 active torsions:
REMARK  status: ('A' for Active; 'I' for Inactive)
REMARK    1  A    between atoms: C_1  and  C_2
REMARK    2  A    between atoms: C_2  and  O_3
REMARK    3  A    between atoms: O_3  and  C_4
REMARK    4  A    between atoms: C_7  and  C_10
REMARK    5  A    between atoms: C_12  and  C_15
REMARK    6  A    between atoms: C_15  and  N_16
REMARK    7  A    between atoms: N_16  and  C_17
REMARK    8  A    between atoms: C_22  and  N_23
REMARK    9  A    between atoms: C_26  and  O_29
REMARK                            x       y       z     vdW  Elec       q    Type
REMARK                         _______ _______ _______ _____ _____    ______ ____
ROOT
ATOM      1  N   UNL     1       1.201  -9.389   4.524  0.00  0.00    -0.334 N 
ATOM      2  H   UNL     1       0.324  -8.976   4.495  0.00  0.00    +0.147 HD
ENDROOT
BRANCH   1   3
ATOM      3  C   UNL     1       1.497 -10.330   5.513  0.00  0.00    +0.047 A 
ATOM      4  C   UNL     1       2.709 -11.009   5.487  0.00  0.00    +0.025 A 
ATOM      5  C   UNL     1       2.999 -11.938   6.467  0.00  0.00    +0.002 A 
ATOM      6  C   UNL     1       2.084 -12.193   7.473  0.00  0.00    +0.002 A 
ATOM      7  C   UNL     1       0.878 -11.518   7.502  0.00  0.00    +0.023 A 
ATOM      8  C   UNL     1       0.584 -10.583   6.529  0.00  0.00    +0.035 A 
BRANCH   8   9
ATOM      9  N   UNL     1      -0.634  -9.898   6.562  0.00  0.00    -0.392 NA
ATOM     10  C   UNL     1      -1.738 -10.864   6.571  0.00  0.00    +0.087 C 
ATOM     11  C   UNL     1      -3.074 -10.119   6.526  0.00  0.00    +0.048 C 
ATOM     12  C   UNL     1      -3.184  -9.204   7.749  0.00  0.00    +0.117 C 
ATOM     13  C   UNL     1      -1.987  -8.249   7.769  0.00  0.00    +0.048 C 
ATOM     14  C   UNL     1      -0.691  -9.064   7.768  0.00  0.00    +0.087 C 
ATOM     15  H   UNL     1      -0.710  -9.311   5.745  0.00  0.00    +0.126 HD
BRANCH  12  16
ATOM     16  O   UNL     1      -4.395  -8.450   7.674  0.00  0.00    -0.392 OA
ATOM     17  H   UNL     1      -4.530  -7.848   8.419  0.00  0.00    +0.210 HD
ENDBRANCH  12  16
ENDBRANCH   8   9
ENDBRANCH   1   3
BRANCH   1  18
ATOM     18  C   UNL     1       2.215  -9.026   3.531  0.00  0.00    +0.200 C 
BRANCH  18  21
ATOM     19  C   UNL     1       1.098  -6.094   1.708  0.00  0.00    +0.202 A 
ATOM     20  N   UNL     1       1.704  -6.708   2.740  0.00  0.00    -0.190 NA
ATOM     21  C   UNL     1       1.647  -8.000   2.585  0.00  0.00    +0.245 A 
ATOM     22  O   UNL     1       1.000  -8.263   1.442  0.00  0.00    -0.336 OA
ATOM     23  N   UNL     1       0.643  -7.007   0.885  0.00  0.00    -0.056 NA
BRANCH  19  27
ATOM     24  C   UNL     1       0.706  -1.888   1.209  0.00  0.00    +0.121 A 
ATOM     25  C   UNL     1       0.177  -2.751   0.259  0.00  0.00    +0.046 A 
ATOM     26  C   UNL     1       0.302  -4.114   0.417  0.00  0.00    +0.015 A 
ATOM     27  C   UNL     1       0.961  -4.627   1.534  0.00  0.00    +0.023 A 
ATOM     28  C   UNL     1       1.491  -3.758   2.487  0.00  0.00    +0.015 A 
ATOM     29  C   UNL     1       1.367  -2.395   2.320  0.00  0.00    +0.046 A 
BRANCH  24  30
ATOM     30  O   UNL     1       0.581  -0.545   1.050  0.00  0.00    -0.492 OA
BRANCH  30  32
ATOM     31  C   UNL     1      -0.151   1.438  -0.122  0.00  0.00    +0.048 C 
ATOM     32  C   UNL     1      -0.111  -0.091  -0.116  0.00  0.00    +0.225 C 
ENDBRANCH  30  32
ENDBRANCH  24  30
ENDBRANCH  19  27
ENDBRANCH  18  21
ENDBRANCH   1  18
TORSDOF 8
