REMARK  Name = ZINC10098406
REMARK  10 active torsions:
REMARK  status: ('A' for Active; 'I' for Inactive)
REMARK    1  A    between atoms: C_1  and  C_2
REMARK    2  A    between atoms: C_2  and  C_3
REMARK    3  A    between atoms: C_2  and  N_4
REMARK    4  A    between atoms: N_4  and  C_5
REMARK    5  A    between atoms: N_4  and  S_6
REMARK    6  A    between atoms: S_6  and  C_9
REMARK    7  A    between atoms: C_12  and  C_15
REMARK    8  A    between atoms: N_17  and  C_18
REMARK    9  A    between atoms: C_19  and  C_30
REMARK   10  A    between atoms: C_27  and  C_29
REMARK                            x       y       z     vdW  Elec       q    Type
REMARK                         _______ _______ _______ _____ _____    ______ ____
ROOT
ATOM      1  C   UNL     1      -2.986   3.105   5.774  0.00  0.00    +0.249 C 
ATOM      2  O   UNL     1      -2.626   4.108   6.358  0.00  0.00    -0.270 OA
ATOM      3  N   UNL     1      -3.727   2.181   6.416  0.00  0.00    -0.275 N 
ATOM      4  H   UNL     1      -4.015   1.380   5.949  0.00  0.00    +0.156 HD
ENDROOT
BRANCH   3   5
ATOM      5  C   UNL     1      -4.078   2.373   7.742  0.00  0.00    +0.085 A 
ATOM      6  C   UNL     1      -4.828   1.544   8.565  0.00  0.00    +0.068 A 
ATOM      7  C   UNL     1      -5.057   1.982   9.932  0.00  0.00    -0.020 A 
ATOM      8  C   UNL     1      -4.499   3.169  10.254  0.00  0.00    +0.013 A 
ATOM      9  S   UNL     1      -3.681   3.704   8.779  0.00  0.00    -0.076 S 
ATOM     10  C   UNL     1      -4.564   3.862  11.582  0.00  0.00    +0.150 C 
ATOM     11  N   UNL     1      -5.542   3.129  12.409  0.00  0.00    -0.297 N 
ATOM     12  C   UNL     1      -5.507   1.659  12.359  0.00  0.00    +0.113 C 
ATOM     13  C   UNL     1      -5.865   1.185  10.949  0.00  0.00    +0.056 C 
ATOM     14  C   UNL     1      -6.434   3.781  13.180  0.00  0.00    +0.213 C 
ATOM     15  O   UNL     1      -7.228   3.155  13.851  0.00  0.00    -0.276 OA
ATOM     16  C   UNL     1      -6.445   5.288  13.210  0.00  0.00    +0.109 C 
BRANCH   6  17
ATOM     17  C   UNL     1      -5.369   0.274   8.073  0.00  0.00    +0.244 C 
ATOM     18  O   UNL     1      -4.714  -0.747   8.174  0.00  0.00    -0.270 OA
ATOM     19  N   UNL     1      -6.593   0.236   7.510  0.00  0.00    -0.325 N 
ATOM     20  H   UNL     1      -7.115   1.049   7.429  0.00  0.00    +0.145 HD
ATOM     21  H   UNL     1      -6.951  -0.605   7.184  0.00  0.00    +0.145 HD
ENDBRANCH   6  17
ENDBRANCH   3   5
BRANCH   1  25
ATOM     22  C   UNL     1      -1.910   2.514   1.708  0.00  0.00    +0.106 A 
ATOM     23  C   UNL     1      -2.675   1.566   2.363  0.00  0.00    +0.029 A 
ATOM     24  C   UNL     1      -3.024   1.749   3.685  0.00  0.00    +0.015 A 
ATOM     25  C   UNL     1      -2.612   2.900   4.359  0.00  0.00    +0.037 A 
ATOM     26  C   UNL     1      -1.845   3.856   3.691  0.00  0.00    +0.015 A 
ATOM     27  C   UNL     1      -1.498   3.658   2.370  0.00  0.00    +0.029 A 
BRANCH  22  28
ATOM     28  S   UNL     1      -1.463   2.269   0.021  0.00  0.00    +0.061 S 
ATOM     29  O   UNL     1      -1.212   3.557  -0.524  0.00  0.00    -0.153 OA
ATOM     30  O   UNL     1      -2.428   1.384  -0.530  0.00  0.00    -0.153 OA
BRANCH  28  31
ATOM     31  N   UNL     1      -0.018   1.461   0.010  0.00  0.00    -0.177 NA
ATOM     32  C   UNL     1       1.241   2.211   0.002  0.00  0.00    +0.132 C 
BRANCH  31  34
ATOM     33  C   UNL     1       0.718  -0.497  -1.257  0.00  0.00    +0.025 C 
ATOM     34  C   UNL     1       0.002  -0.004   0.002  0.00  0.00    +0.073 C 
ATOM     35  C   UNL     1       0.742  -0.511   1.242  0.00  0.00    +0.025 C 
ENDBRANCH  31  34
ENDBRANCH  28  31
ENDBRANCH  22  28
ENDBRANCH   1  25
TORSDOF 6
