REMARK  Name = ZINC19354087
REMARK  7 active torsions:
REMARK  status: ('A' for Active; 'I' for Inactive)
REMARK    1  A    between atoms: C_1  and  C_2
REMARK    2  A    between atoms: C_2  and  C_3
REMARK    3  A    between atoms: C_3  and  O_4
REMARK    4  A    between atoms: O_4  and  C_5
REMARK    5  A    between atoms: C_8  and  C_13
REMARK    6  A    between atoms: C_10  and  O_11
REMARK    7  A    between atoms: O_11  and  C_12
REMARK                            x       y       z     vdW  Elec       q    Type
REMARK                         _______ _______ _______ _____ _____    ______ ____
ROOT
ATOM      1  C   UNL     1       3.349  -4.483   5.547  0.00  0.00    +0.209 C 
ATOM      2  N   UNL     1       3.066  -3.760   6.800  0.00  0.00    -0.294 N 
ATOM      3  C   UNL     1       3.795  -2.647   7.126  0.00  0.00    +0.160 C 
ATOM      4  N   UNL     1       5.049  -2.506   6.734  0.00  0.00    -0.302 N 
ATOM      5  C   UNL     1       5.588  -3.464   5.942  0.00  0.00    +0.213 A 
ATOM      6  N   UNL     1       4.803  -4.441   5.355  0.00  0.00    -0.286 N 
ATOM      7  C   UNL     1       5.629  -5.266   4.628  0.00  0.00    +0.076 A 
ATOM      8  C   UNL     1       5.428  -6.402   3.854  0.00  0.00    +0.077 A 
ATOM      9  C   UNL     1       6.502  -7.012   3.235  0.00  0.00    +0.164 A 
ATOM     10  C   UNL     1       7.787  -6.497   3.382  0.00  0.00    +0.164 A 
ATOM     11  C   UNL     1       8.005  -5.371   4.148  0.00  0.00    +0.079 A 
ATOM     12  C   UNL     1       6.927  -4.743   4.779  0.00  0.00    +0.095 A 
ATOM     13  N   UNL     1       6.833  -3.640   5.582  0.00  0.00    -0.212 NA
ATOM     14  O   UNL     1       8.835  -7.114   2.760  0.00  0.00    -0.488 OA
ATOM     15  C   UNL     1       9.183  -8.408   3.257  0.00  0.00    +0.232 C 
ATOM     16  C   UNL     1       8.318  -9.482   2.617  0.00  0.00    +0.082 C 
ATOM     17  C   UNL     1       6.850  -9.343   2.990  0.00  0.00    +0.232 C 
ATOM     18  O   UNL     1       6.308  -8.128   2.471  0.00  0.00    -0.488 OA
ATOM     19  N   UNL     1       3.212  -1.660   7.873  0.00  0.00    -0.332 N 
ATOM     20  H   UNL     1       2.365  -4.072   7.394  0.00  0.00    +0.151 HD
ATOM     21  H   UNL     1       2.292  -1.753   8.166  0.00  0.00    +0.145 HD
ATOM     22  H   UNL     1       3.719  -0.868   8.110  0.00  0.00    +0.145 HD
ATOM     23  H   UNL     1       5.571  -1.735   7.007  0.00  0.00    +0.171 HD
ENDROOT
BRANCH   1  27
ATOM     24  C   UNL     1       1.386  -2.554   2.274  0.00  0.00    +0.162 A 
ATOM     25  C   UNL     1       1.962  -1.799   3.283  0.00  0.00    +0.050 A 
ATOM     26  C   UNL     1       2.595  -2.425   4.340  0.00  0.00    +0.011 A 
ATOM     27  C   UNL     1       2.656  -3.805   4.393  0.00  0.00    -0.003 A 
ATOM     28  C   UNL     1       2.084  -4.565   3.389  0.00  0.00    +0.056 A 
ATOM     29  C   UNL     1       1.442  -3.944   2.330  0.00  0.00    +0.162 A 
BRANCH  29  30
ATOM     30  O   UNL     1       0.874  -4.690   1.346  0.00  0.00    -0.491 OA
ATOM     31  C   UNL     1       0.971  -6.110   1.470  0.00  0.00    +0.277 C 
ENDBRANCH  29  30
BRANCH  24  32
ATOM     32  O   UNL     1       0.761  -1.940   1.234  0.00  0.00    -0.488 OA
BRANCH  32  33
ATOM     33  C   UNL     1       0.742  -0.511   1.242  0.00  0.00    +0.229 C 
BRANCH  33  35
ATOM     34  C   UNL     1      -0.019   1.526   0.010  0.00  0.00    +0.007 C 
ATOM     35  C   UNL     1       0.002  -0.004   0.002  0.00  0.00    +0.038 C 
ENDBRANCH  33  35
ENDBRANCH  32  33
ENDBRANCH  24  32
ENDBRANCH   1  27
TORSDOF 5
