REMARK  Name = ZINC23634203
REMARK  4 active torsions:
REMARK  status: ('A' for Active; 'I' for Inactive)
REMARK    1  A    between atoms: C_3  and  O_31
REMARK    2  A    between atoms: C_4  and  C_8
REMARK    3  A    between atoms: N_9  and  N_10
REMARK    4  A    between atoms: C_13  and  N_24
REMARK                            x       y       z     vdW  Elec       q    Type
REMARK                         _______ _______ _______ _____ _____    ______ ____
ROOT
ATOM      1  N   UNL     1      -0.011   0.966   0.007  0.00  0.00    -0.222 N 
ATOM      2  C   UNL     1      -1.221   1.643   0.017  0.00  0.00    +0.121 A 
ATOM      3  C   UNL     1      -2.422   0.939   0.013  0.00  0.00    +0.087 A 
ATOM      4  C   UNL     1      -3.612   1.661   0.028  0.00  0.00    +0.128 A 
ATOM      5  N   UNL     1      -3.563   2.992   0.035  0.00  0.00    -0.201 NA
ATOM      6  C   UNL     1      -2.401   3.627   0.033  0.00  0.00    +0.199 A 
ATOM      7  N   UNL     1      -1.249   2.974   0.024  0.00  0.00    -0.315 N 
ATOM      8  N   UNL     1      -2.390   5.011   0.040  0.00  0.00    -0.301 N 
ATOM      9  C   UNL     1      -3.255   5.554  -1.031  0.00  0.00    +0.108 C 
ATOM     10  C   UNL     1      -3.068   7.032  -1.240  0.00  0.00    +0.019 C 
ATOM     11  C   UNL     1      -2.026   7.241  -2.358  0.00  0.00    +0.002 C 
ATOM     12  C   UNL     1      -0.660   7.054  -1.881  0.00  0.00    +0.002 C 
ATOM     13  C   UNL     1      -0.420   5.627  -1.346  0.00  0.00    +0.019 C 
ATOM     14  C   UNL     1      -1.004   5.531   0.037  0.00  0.00    +0.108 C 
ATOM     15  H   UNL     1       0.004  -0.134   0.006  0.00  0.00    +0.176 HD
ATOM     16  H   UNL     1      -0.308   3.544   0.023  0.00  0.00    +0.170 HD
ENDROOT
BRANCH   4  17
ATOM     17  N   UNL     1      -4.833   1.004   0.030  0.00  0.00    -0.315 N 
ATOM     18  C   UNL     1      -4.895  -0.003  -1.053  0.00  0.00    +0.106 C 
ATOM     19  C   UNL     1      -6.282  -0.547  -1.264  0.00  0.00    +0.019 C 
ATOM     20  C   UNL     1      -6.968   0.279  -2.372  0.00  0.00    +0.002 C 
ATOM     21  C   UNL     1      -7.460   1.561  -1.878  0.00  0.00    +0.002 C 
ATOM     22  C   UNL     1      -6.323   2.451  -1.335  0.00  0.00    +0.019 C 
ATOM     23  C   UNL     1      -5.955   1.969   0.041  0.00  0.00    +0.106 C 
ENDBRANCH   4  17
BRANCH   1  25
ATOM     24  C   UNL     1       2.325   1.049  -0.015  0.00  0.00    +0.142 C 
ATOM     25  N   UNL     1       1.193   1.683  -0.000  0.00  0.00    -0.189 NA
BRANCH  24  29
ATOM     26  C   UNL     1       5.975   3.223  -0.038  0.00  0.00    +0.019 A 
ATOM     27  C   UNL     1       4.772   3.905  -0.022  0.00  0.00    +0.047 A 
ATOM     28  C   UNL     1       3.577   3.205  -0.021  0.00  0.00    +0.126 A 
ATOM     29  C   UNL     1       3.592   1.803  -0.023  0.00  0.00    +0.037 A 
ATOM     30  C   UNL     1       4.812   1.126  -0.038  0.00  0.00    +0.028 A 
ATOM     31  C   UNL     1       5.995   1.838  -0.045  0.00  0.00    +0.019 A 
ATOM     32 BR   UNL     1       7.647   0.920  -0.065  0.00  0.00    -0.050 Br
BRANCH  28  33
ATOM     33  O   UNL     1       2.395   3.874  -0.011  0.00  0.00    -0.506 OA
ATOM     34  H   UNL     1       1.447   3.317  -0.010  0.00  0.00    +0.292 HD
ENDBRANCH  28  33
ENDBRANCH  24  29
ENDBRANCH   1  25
TORSDOF 4
