REMARK  Name = ZINC40802417
REMARK  3 active torsions:
REMARK  status: ('A' for Active; 'I' for Inactive)
REMARK    1  A    between atoms: C_11  and  N_27
REMARK    2  A    between atoms: C_12  and  S_16
REMARK    3  A    between atoms: S_16  and  C_17
REMARK                            x       y       z     vdW  Elec       q    Type
REMARK                         _______ _______ _______ _____ _____    ______ ____
ROOT
ATOM      1  C   UNL     1       0.268   0.213  -2.644  0.00  0.00    +0.002 A 
ATOM      2  C   UNL     1       1.499   0.722  -3.037  0.00  0.00    +0.002 A 
ATOM      3  C   UNL     1       2.638   0.425  -2.322  0.00  0.00    +0.030 A 
ATOM      4  C   UNL     1       2.553  -0.389  -1.199  0.00  0.00    +0.096 A 
ATOM      5  C   UNL     1       1.307  -0.905  -0.799  0.00  0.00    +0.113 A 
ATOM      6  C   UNL     1       0.164  -0.588  -1.544  0.00  0.00    +0.032 A 
ATOM      7  N   UNL     1       1.511  -1.655   0.308  0.00  0.00    -0.129 NA
ATOM      8  N   UNL     1       2.758  -1.650   0.627  0.00  0.00    -0.058 NA
ATOM      9  N   UNL     1       3.472  -0.865  -0.290  0.00  0.00    -0.192 N 
ATOM     10  C   UNL     1       4.846  -0.615  -0.283  0.00  0.00    +0.181 A 
ATOM     11  C   UNL     1       5.755  -1.660  -0.120  0.00  0.00    +0.102 A 
ATOM     12  C   UNL     1       7.120  -1.354  -0.121  0.00  0.00    +0.128 A 
ATOM     13  N   UNL     1       7.495  -0.087  -0.277  0.00  0.00    -0.227 NA
ATOM     14  C   UNL     1       6.602   0.870  -0.428  0.00  0.00    +0.224 A 
ATOM     15  N   UNL     1       5.308   0.623  -0.438  0.00  0.00    -0.215 NA
ENDROOT
BRANCH  11  16
ATOM     16  N   UNL     1       5.313  -2.980   0.042  0.00  0.00    -0.353 N 
ATOM     17  H   UNL     1       4.370  -3.190  -0.045  0.00  0.00    +0.142 HD
ATOM     18  H   UNL     1       5.950  -3.684   0.240  0.00  0.00    +0.142 HD
ENDBRANCH  11  16
BRANCH  12  19
ATOM     19  S   UNL     1       8.322  -2.626   0.081  0.00  0.00    -0.066 S 
BRANCH  19  20
ATOM     20  C   UNL     1       9.853  -1.757   0.156  0.00  0.00    +0.040 A 
ATOM     21  C   UNL     1      10.495  -1.583   1.364  0.00  0.00    +0.017 A 
ATOM     22  C   UNL     1      11.705  -0.899   1.437  0.00  0.00    +0.002 A 
ATOM     23  C   UNL     1      12.287  -0.383   0.319  0.00  0.00    +0.010 A 
ATOM     24  C   UNL     1      11.664  -0.539  -0.930  0.00  0.00    +0.001 A 
ATOM     25  C   UNL     1      10.436  -1.237  -1.021  0.00  0.00    +0.085 A 
ATOM     26  N   UNL     1       9.844  -1.391  -2.208  0.00  0.00    -0.254 NA
ATOM     27  C   UNL     1      10.379  -0.911  -3.304  0.00  0.00    +0.111 A 
ATOM     28  C   UNL     1      11.588  -0.219  -3.287  0.00  0.00    +0.020 A 
ATOM     29  C   UNL     1      12.240  -0.017  -2.104  0.00  0.00    +0.011 A 
ENDBRANCH  19  20
ENDBRANCH  12  19
TORSDOF 3
