REMARK  Name = ZINC39670585
REMARK  9 active torsions:
REMARK  status: ('A' for Active; 'I' for Inactive)
REMARK    1  A    between atoms: C_1  and  C_2
REMARK    2  A    between atoms: C_2  and  C_3
REMARK    3  A    between atoms: C_3  and  C_5
REMARK    4  A    between atoms: C_3  and  C_6
REMARK    5  A    between atoms: C_6  and  C_7
REMARK    6  A    between atoms: C_11  and  C_20
REMARK    7  A    between atoms: N_22  and  C_23
REMARK    8  A    between atoms: C_23  and  C_24
REMARK    9  A    between atoms: C_28  and  C_33
REMARK                            x       y       z     vdW  Elec       q    Type
REMARK                         _______ _______ _______ _____ _____    ______ ____
ROOT
ATOM      1  C   UNL     1      -2.987  -2.586  -0.278  0.00  0.00    +0.216 C 
ATOM      2  O   UNL     1      -3.938  -1.837  -0.202  0.00  0.00    -0.276 OA
ATOM      3  N   UNL     1      -3.183  -3.916  -0.370  0.00  0.00    -0.300 N 
ATOM      4  C   UNL     1      -2.157  -4.981  -0.464  0.00  0.00    +0.121 C 
ATOM      5  C   UNL     1      -2.705  -6.129   0.413  0.00  0.00    +0.100 C 
ATOM      6  C   UNL     1      -4.226  -5.904   0.450  0.00  0.00    -0.004 C 
ATOM      7  C   UNL     1      -4.474  -4.645  -0.394  0.00  0.00    +0.115 C 
ATOM      8  C   UNL     1      -4.691  -5.671   1.884  0.00  0.00    -0.010 C 
ATOM      9  C   UNL     1      -6.213  -5.506   1.901  0.00  0.00    -0.082 C 
ATOM     10  N   UNL     1      -6.844  -6.712   1.350  0.00  0.00    +0.379 N 
ATOM     11  C   UNL     1      -6.464  -6.877  -0.058  0.00  0.00    -0.082 C 
ATOM     12  C   UNL     1      -4.952  -7.100  -0.158  0.00  0.00    -0.010 C 
ATOM     13  H   UNL     1      -6.541  -7.519   1.875  0.00  0.00    -0.086 HD
ATOM     14  H   UNL     1      -7.847  -6.627   1.419  0.00  0.00    -0.086 HD
ENDROOT
BRANCH   5  15
ATOM     15  C   UNL     1      -2.385  -7.464  -0.210  0.00  0.00    +0.219 C 
ATOM     16  O   UNL     1      -2.305  -7.566  -1.416  0.00  0.00    -0.275 OA
ATOM     17  N   UNL     1      -2.188  -8.543   0.573  0.00  0.00    -0.309 N 
ATOM     18  H   UNL     1      -2.252  -8.461   1.537  0.00  0.00    +0.149 HD
BRANCH  17  19
ATOM     19  C   UNL     1      -1.876  -9.840  -0.033  0.00  0.00    +0.159 C 
BRANCH  19  20
ATOM     20  C   UNL     1      -1.704 -10.872   1.052  0.00  0.00    +0.051 A 
ATOM     21  C   UNL     1      -0.530 -11.243   1.608  0.00  0.00    +0.115 A 
ATOM     22  N   UNL     1      -0.810 -12.198   2.546  0.00  0.00    -0.308 N 
ATOM     23  C   UNL     1      -0.021 -12.914   3.400  0.00  0.00    +0.096 A 
ATOM     24  C   UNL     1      -0.564 -13.815   4.245  0.00  0.00    -0.034 A 
ATOM     25  C   UNL     1      -1.953 -14.029   4.256  0.00  0.00    +0.008 A 
ATOM     26  C   UNL     1      -2.750 -13.322   3.411  0.00  0.00    +0.045 A 
ATOM     27  C   UNL     1      -2.168 -12.384   2.535  0.00  0.00    +0.115 A 
ATOM     28  N   UNL     1      -2.687 -11.569   1.627  0.00  0.00    -0.342 N 
ATOM     29  C   UNL     1       0.323 -14.596   5.180  0.00  0.00    +0.045 C 
ATOM     30  H   UNL     1      -3.630 -11.492   1.414  0.00  0.00    +0.167 HD
ENDBRANCH  19  20
ENDBRANCH  17  19
ENDBRANCH   5  15
BRANCH   1  31
ATOM     31  C   UNL     1      -1.587  -2.029  -0.270  0.00  0.00    +0.099 C 
BRANCH  31  32
ATOM     32  C   UNL     1      -1.644  -0.505  -0.158  0.00  0.00    -0.006 C 
ATOM     33  C   UNL     1      -2.243  -0.115   1.195  0.00  0.00    +0.008 C 
BRANCH  32  35
ATOM     34  C   UNL     1      -0.300   1.597  -0.288  0.00  0.00    +0.004 C 
ATOM     35  C   UNL     1      -0.231   0.069  -0.274  0.00  0.00    +0.000 C 
ENDBRANCH  32  35
ENDBRANCH  31  32
ENDBRANCH   1  31
TORSDOF 6
