REMARK  Name = ZINC36752498
REMARK  7 active torsions:
REMARK  status: ('A' for Active; 'I' for Inactive)
REMARK    1  A    between atoms: C_1  and  C_2
REMARK    2  A    between atoms: C_2  and  C_3
REMARK    3  A    between atoms: C_3  and  C_5
REMARK    4  A    between atoms: C_3  and  N_15
REMARK    5  A    between atoms: C_16  and  C_18
REMARK    6  A    between atoms: N_21  and  S_24
REMARK    7  A    between atoms: S_24  and  C_27
REMARK                            x       y       z     vdW  Elec       q    Type
REMARK                         _______ _______ _______ _____ _____    ______ ____
ROOT
ATOM      1  N   UNL     1       2.125  -0.091  -1.209  0.00  0.00    -0.312 N 
ATOM      2  C   UNL     1       2.487   1.134  -1.640  0.00  0.00    +0.216 C 
ATOM      3  O   UNL     1       1.649   1.899  -2.066  0.00  0.00    -0.276 OA
ATOM      4  H   UNL     1       2.795  -0.703  -0.868  0.00  0.00    +0.149 HD
ENDROOT
BRANCH   2   5
ATOM      5  C   UNL     1       3.934   1.552  -1.591  0.00  0.00    +0.077 C 
ATOM      6  C   UNL     1       4.770   0.596  -2.445  0.00  0.00    +0.030 C 
ATOM      7  C   UNL     1       6.245   1.003  -2.365  0.00  0.00    +0.110 C 
ATOM      8  N   UNL     1       6.367   2.417  -2.747  0.00  0.00    -0.176 NA
ATOM      9  C   UNL     1       5.539   3.410  -2.050  0.00  0.00    +0.110 C 
ATOM     10  C   UNL     1       4.072   2.976  -2.133  0.00  0.00    +0.030 C 
BRANCH   8  11
ATOM     11  S   UNL     1       7.417   2.881  -3.940  0.00  0.00    +0.064 S 
ATOM     12  O   UNL     1       7.724   4.248  -3.702  0.00  0.00    -0.153 OA
ATOM     13  O   UNL     1       8.420   1.877  -4.012  0.00  0.00    -0.153 OA
BRANCH  11  14
ATOM     14  C   UNL     1       6.534   2.821  -5.464  0.00  0.00    +0.140 A 
ATOM     15  C   UNL     1       6.304   3.983  -6.176  0.00  0.00    +0.031 A 
ATOM     16  C   UNL     1       5.611   3.937  -7.371  0.00  0.00    +0.002 A 
ATOM     17  C   UNL     1       5.148   2.728  -7.856  0.00  0.00    +0.003 A 
ATOM     18  C   UNL     1       5.377   1.564  -7.146  0.00  0.00    +0.040 A 
ATOM     19  C   UNL     1       6.076   1.609  -5.951  0.00  0.00    +0.150 A 
ATOM     20  F   UNL     1       6.305   0.472  -5.259  0.00  0.00    -0.203 F 
ENDBRANCH  11  14
ENDBRANCH   8  11
ENDBRANCH   2   5
BRANCH   1  21
ATOM     21  C   UNL     1       0.718  -0.497  -1.257  0.00  0.00    +0.079 C 
BRANCH  21  22
ATOM     22  C   UNL     1       0.630  -2.023  -1.329  0.00  0.00    -0.010 C 
ATOM     23  C   UNL     1      -0.839  -2.448  -1.378  0.00  0.00    +0.012 C 
ATOM     24  C   UNL     1      -0.927  -3.974  -1.450  0.00  0.00    -0.010 C 
ATOM     25  C   UNL     1      -0.210  -4.467  -2.709  0.00  0.00    +0.007 C 
ATOM     26  C   UNL     1       1.259  -4.043  -2.659  0.00  0.00    -0.010 C 
ATOM     27  C   UNL     1       1.347  -2.517  -2.587  0.00  0.00    +0.012 C 
ATOM     28  C   UNL     1       1.924  -4.650  -1.423  0.00  0.00    +0.007 C 
ATOM     29  C   UNL     1       1.208  -4.157  -0.164  0.00  0.00    -0.010 C 
ATOM     30  C   UNL     1      -0.262  -4.581  -0.213  0.00  0.00    +0.007 C 
ATOM     31  C   UNL     1       1.295  -2.631  -0.092  0.00  0.00    +0.012 C 
ENDBRANCH  21  22
BRANCH  21  33
ATOM     32  C   UNL     1      -0.019   1.526   0.010  0.00  0.00    +0.006 C 
ATOM     33  C   UNL     1       0.002  -0.004   0.002  0.00  0.00    +0.019 C 
ENDBRANCH  21  33
ENDBRANCH   1  21
TORSDOF 6
