REMARK  Name = ZINC04807283
REMARK  5 active torsions:
REMARK  status: ('A' for Active; 'I' for Inactive)
REMARK    1  A    between atoms: C_1  and  C_2
REMARK    2  A    between atoms: C_6  and  N_9
REMARK    3  A    between atoms: C_7  and  C_8
REMARK    4  A    between atoms: C_13  and  C_14
REMARK    5  A    between atoms: C_18  and  N_20
REMARK                            x       y       z     vdW  Elec       q    Type
REMARK                         _______ _______ _______ _____ _____    ______ ____
ROOT
ATOM      1  N   UNL     1      -1.635  -2.557  -0.238  0.00  0.00    -0.223 N 
ATOM      2  C   UNL     1      -1.345  -1.272  -0.129  0.00  0.00    +0.263 C 
ATOM      3  O   UNL     1      -0.196  -0.878  -0.059  0.00  0.00    -0.269 OA
ATOM      4  C   UNL     1      -2.490  -0.337  -0.090  0.00  0.00    +0.077 C 
ATOM      5  C   UNL     1      -2.499   1.015   0.019  0.00  0.00    +0.028 C 
ATOM      6  S   UNL     1      -3.858  -1.478  -0.236  0.00  0.00    -0.061 S 
ATOM      7  C   UNL     1      -2.910  -2.988  -0.323  0.00  0.00    +0.125 C 
ATOM      8  S   UNL     1      -3.481  -4.595  -0.476  0.00  0.00    -0.027 S 
ENDROOT
BRANCH   1  14
ATOM      9  C   UNL     1       1.418  -5.588   2.147  0.00  0.00    +0.044 C 
ATOM     10  C   UNL     1       0.906  -4.977   0.867  0.00  0.00    -0.046 A 
ATOM     11  C   UNL     1       1.467  -5.340  -0.344  0.00  0.00    +0.004 A 
ATOM     12  C   UNL     1       1.000  -4.782  -1.520  0.00  0.00    +0.002 A 
ATOM     13  C   UNL     1      -0.028  -3.860  -1.488  0.00  0.00    +0.024 A 
ATOM     14  C   UNL     1      -0.592  -3.493  -0.274  0.00  0.00    +0.046 A 
ATOM     15  C   UNL     1      -0.118  -4.051   0.906  0.00  0.00    -0.026 A 
ATOM     16  C   UNL     1      -0.724  -3.652   2.227  0.00  0.00    +0.046 C 
ENDBRANCH   1  14
BRANCH   5  17
ATOM     17  C   UNL     1      -1.250   1.738   0.298  0.00  0.00    -0.022 A 
ATOM     18  C   UNL     1      -0.319   1.211   1.200  0.00  0.00    +0.008 A 
ATOM     19  C   UNL     1       0.853   1.893   1.452  0.00  0.00    +0.003 A 
ATOM     20  C   UNL     1       1.106   3.099   0.820  0.00  0.00    +0.033 A 
ATOM     21  C   UNL     1       0.188   3.629  -0.069  0.00  0.00    +0.127 A 
ATOM     22  C   UNL     1      -0.989   2.959  -0.333  0.00  0.00    +0.040 A 
BRANCH  21  23
ATOM     23  N   UNL     1       0.469   4.918  -0.740  0.00  0.00    +0.056 N 
ATOM     24  O   UNL     1       1.507   5.511  -0.508  0.00  0.00    -0.126 OA
ATOM     25  O   UNL     1      -0.338   5.386  -1.523  0.00  0.00    -0.126 OA
ENDBRANCH  21  23
ENDBRANCH   5  17
TORSDOF 3
