REMARK  Name = ZINC66177631
REMARK  8 active torsions:
REMARK  status: ('A' for Active; 'I' for Inactive)
REMARK    1  A    between atoms: C_1  and  C_2
REMARK    2  A    between atoms: C_5  and  C_28
REMARK    3  A    between atoms: C_6  and  S_8
REMARK    4  A    between atoms: S_8  and  N_11
REMARK    5  A    between atoms: N_11  and  C_12
REMARK    6  A    between atoms: C_12  and  C_13
REMARK    7  A    between atoms: C_13  and  N_14
REMARK    8  A    between atoms: C_20  and  N_23
REMARK                            x       y       z     vdW  Elec       q    Type
REMARK                         _______ _______ _______ _____ _____    ______ ____
ROOT
ATOM      1  C   UNL     1      -2.381  -5.949   0.889  0.00  0.00    +0.122 C 
ENDROOT
BRANCH   1   2
ATOM      2  N   UNL     1      -2.303  -6.833  -0.277  0.00  0.00    -0.298 N 
ATOM      3  C   UNL     1      -3.151  -7.874  -0.392  0.00  0.00    +0.302 C 
ATOM      4  O   UNL     1      -3.981  -8.081   0.473  0.00  0.00    -0.253 OA
ATOM      5  N   UNL     1      -3.079  -8.687  -1.464  0.00  0.00    -0.287 N 
ATOM      6  C   UNL     1      -2.125  -8.558  -2.575  0.00  0.00    +0.108 C 
ATOM      7  C   UNL     1      -2.434  -9.689  -3.579  0.00  0.00    +0.005 C 
ATOM      8  C   UNL     1      -3.908 -10.048  -3.254  0.00  0.00    -0.049 C 
ATOM      9  C   UNL     1      -3.941  -9.857  -1.715  0.00  0.00    +0.094 C 
ATOM     10  H   UNL     1      -1.641  -6.668  -0.967  0.00  0.00    +0.150 HD
BRANCH   8  11
ATOM     11  N   UNL     1      -4.202 -11.441  -3.616  0.00  0.00    +0.383 N 
ATOM     12  C   UNL     1      -5.638 -11.739  -3.380  0.00  0.00    -0.078 C 
ATOM     13  C   UNL     1      -5.902 -12.962  -4.294  0.00  0.00    -0.020 C 
ATOM     14  C   UNL     1      -5.050 -12.647  -5.546  0.00  0.00    -0.020 C 
ATOM     15  C   UNL     1      -3.981 -11.649  -5.064  0.00  0.00    -0.078 C 
ATOM     16  H   UNL     1      -3.622 -12.070  -3.082  0.00  0.00    -0.081 HD
ENDBRANCH   8  11
ENDBRANCH   1   2
BRANCH   1  17
ATOM     17  C   UNL     1      -1.316  -4.857   0.773  0.00  0.00    +0.124 C 
BRANCH  17  18
ATOM     18  N   UNL     1      -1.394  -3.974   1.939  0.00  0.00    -0.188 NA
ATOM     19  H   UNL     1      -2.169  -4.006   2.521  0.00  0.00    +0.148 HD
BRANCH  18  20
ATOM     20  S   UNL     1      -0.158  -2.919   2.263  0.00  0.00    +0.059 S 
ATOM     21  O   UNL     1       1.048  -3.664   2.162  0.00  0.00    -0.153 OA
ATOM     22  O   UNL     1      -0.523  -2.216   3.442  0.00  0.00    -0.153 OA
BRANCH  20  28
ATOM     23  C   UNL     1       2.209  -0.603  -1.781  0.00  0.00    +0.044 C 
ATOM     24  C   UNL     1       1.002  -0.708  -0.885  0.00  0.00    -0.049 A 
ATOM     25  C   UNL     1      -0.083   0.125  -1.086  0.00  0.00    +0.004 A 
ATOM     26  C   UNL     1      -1.190   0.029  -0.265  0.00  0.00    +0.005 A 
ATOM     27  C   UNL     1      -1.213  -0.901   0.758  0.00  0.00    -0.024 A 
ATOM     28  C   UNL     1      -0.129  -1.735   0.959  0.00  0.00    +0.108 A 
ATOM     29  C   UNL     1       0.977  -1.641   0.134  0.00  0.00    +0.032 A 
ATOM     30  C   UNL     1      -2.420  -1.006   1.654  0.00  0.00    +0.046 C 
ENDBRANCH  20  28
ENDBRANCH  18  20
ENDBRANCH  17  18
ENDBRANCH   1  17
TORSDOF 6
