REMARK  Name = ZINC44713847
REMARK  8 active torsions:
REMARK  status: ('A' for Active; 'I' for Inactive)
REMARK    1  A    between atoms: C_1  and  C_2
REMARK    2  A    between atoms: C_3  and  C_9
REMARK    3  A    between atoms: C_4  and  C_8
REMARK    4  A    between atoms: C_9  and  C_11
REMARK    5  A    between atoms: C_9  and  N_12
REMARK    6  A    between atoms: C_13  and  C_15
REMARK    7  A    between atoms: C_26  and  C_28
REMARK    8  A    between atoms: C_28  and  C_34
REMARK                            x       y       z     vdW  Elec       q    Type
REMARK                         _______ _______ _______ _____ _____    ______ ____
ROOT
ATOM      1  C   UNL     1       2.843  -1.850  -5.305  0.00  0.00    +0.100 C 
ATOM      2  C   UNL     1       1.953  -3.049  -5.704  0.00  0.00    +0.121 C 
ATOM      3  N   UNL     1       1.477  -2.724  -7.069  0.00  0.00    -0.300 N 
ATOM      4  C   UNL     1       2.651  -2.108  -7.732  0.00  0.00    +0.115 C 
ATOM      5  C   UNL     1       3.302  -1.238  -6.639  0.00  0.00    -0.004 C 
ATOM      6  C   UNL     1       4.822  -1.296  -6.752  0.00  0.00    -0.010 C 
ATOM      7  C   UNL     1       5.259  -0.629  -8.059  0.00  0.00    -0.082 C 
ATOM      8  N   UNL     1       4.800   0.765  -8.075  0.00  0.00    +0.379 N 
ATOM      9  C   UNL     1       3.333   0.810  -8.060  0.00  0.00    -0.082 C 
ATOM     10  C   UNL     1       2.815   0.204  -6.753  0.00  0.00    -0.010 C 
ATOM     11  C   UNL     1       0.253  -2.939  -7.590  0.00  0.00    +0.222 C 
ATOM     12  O   UNL     1      -0.633  -3.385  -6.892  0.00  0.00    -0.275 OA
ATOM     13  H   UNL     1       5.158   1.245  -7.264  0.00  0.00    -0.086 HD
ATOM     14  H   UNL     1       5.141   1.220  -8.909  0.00  0.00    -0.086 HD
ENDROOT
BRANCH  11  15
ATOM     15  C   UNL     1      -0.015  -2.626  -9.039  0.00  0.00    +0.044 C 
ATOM     16  C   UNL     1       0.076  -1.115  -9.260  0.00  0.00    +0.016 C 
ATOM     17  C   UNL     1      -0.962  -0.408  -8.385  0.00  0.00    +0.001 C 
ATOM     18  C   UNL     1      -2.362  -0.895  -8.762  0.00  0.00    +0.000 C 
ATOM     19  C   UNL     1      -2.453  -2.406  -8.541  0.00  0.00    +0.001 C 
ATOM     20  C   UNL     1      -1.416  -3.112  -9.416  0.00  0.00    +0.016 C 
ATOM     21  C   UNL     1       1.023  -3.332  -9.914  0.00  0.00    +0.021 C 
ENDBRANCH  11  15
BRANCH   1  23
ATOM     22  N   UNL     1       2.658  -0.074  -3.593  0.00  0.00    -0.308 N 
ATOM     23  C   UNL     1       2.046  -0.846  -4.513  0.00  0.00    +0.219 C 
ATOM     24  O   UNL     1       0.853  -0.732  -4.704  0.00  0.00    -0.275 OA
ATOM     25  H   UNL     1       3.611  -0.166  -3.440  0.00  0.00    +0.149 HD
BRANCH  22  26
ATOM     26  C   UNL     1       1.883   0.902  -2.823  0.00  0.00    +0.104 C 
ATOM     27  C   UNL     1       1.253   0.212  -1.611  0.00  0.00    +0.033 C 
BRANCH  26  30
ATOM     28  C   UNL     1       1.271   3.967  -2.951  0.00  0.00    +0.065 C 
ATOM     29  C   UNL     1       2.527   3.334  -2.410  0.00  0.00    +0.038 A 
ATOM     30  C   UNL     1       2.792   2.008  -2.354  0.00  0.00    +0.015 A 
ATOM     31  C   UNL     1       4.060   1.846  -1.785  0.00  0.00    +0.065 A 
ATOM     32  N   UNL     1       4.538   3.032  -1.509  0.00  0.00    -0.179 NA
ATOM     33  N   UNL     1       3.591   3.988  -1.899  0.00  0.00    -0.281 N 
ATOM     34  H   UNL     1       3.683   4.950  -1.814  0.00  0.00    +0.189 HD
ATOM     35  C   UNL     1       4.754   0.532  -1.534  0.00  0.00    +0.068 C 
ENDBRANCH  26  30
ENDBRANCH  22  26
ENDBRANCH   1  23
TORSDOF 4
