REMARK  Name = ZINC06300628
REMARK  9 active torsions:
REMARK  status: ('A' for Active; 'I' for Inactive)
REMARK    1  A    between atoms: C_1  and  C_2
REMARK    2  A    between atoms: C_4  and  C_34
REMARK    3  A    between atoms: C_9  and  C_14
REMARK    4  A    between atoms: C_14  and  C_16
REMARK    5  A    between atoms: C_14  and  N_63
REMARK    6  A    between atoms: N_20  and  C_21
REMARK    7  A    between atoms: C_21  and  C_22
REMARK    8  A    between atoms: C_21  and  C_23
REMARK    9  A    between atoms: C_21  and  C_24
REMARK                            x       y       z     vdW  Elec       q    Type
REMARK                         _______ _______ _______ _____ _____    ______ ____
ROOT
ATOM      1  C   UNL     1       1.123   7.223   0.189  0.00  0.00    +0.039 C 
ENDROOT
BRANCH   1  10
ATOM      2  C   UNL     1      -2.261   0.626   0.989  0.00  0.00    +0.044 C 
ATOM      3  C   UNL     1      -1.008   1.454   0.865  0.00  0.00    -0.050 A 
ATOM      4  C   UNL     1       0.233   0.832   0.893  0.00  0.00    +0.008 A 
ATOM      5  C   UNL     1       1.392   1.568   0.776  0.00  0.00    -0.026 A 
ATOM      6  C   UNL     1       1.320   2.950   0.633  0.00  0.00    +0.052 A 
ATOM      7  C   UNL     1       0.060   3.578   0.610  0.00  0.00    -0.001 A 
ATOM      8  C   UNL     1      -1.103   2.809   0.730  0.00  0.00    +0.013 A 
ATOM      9  C   UNL     1      -0.005   5.032   0.459  0.00  0.00    +0.017 A 
ATOM     10  C   UNL     1       1.155   5.725   0.346  0.00  0.00    +0.011 A 
ATOM     11  C   UNL     1       2.393   5.047   0.375  0.00  0.00    +0.251 A 
ATOM     12  O   UNL     1       3.424   5.689   0.271  0.00  0.00    -0.268 OA
ATOM     13  N   UNL     1       2.463   3.711   0.513  0.00  0.00    -0.322 N 
ATOM     14  H   UNL     1       3.330   3.277   0.529  0.00  0.00    +0.169 HD
ATOM     15  C   UNL     1       2.732   0.879   0.803  0.00  0.00    +0.046 C 
ENDBRANCH   1  10
BRANCH   1  25
ATOM     16  C   UNL     1       1.759   9.051  -1.269  0.00  0.00    -0.072 C 
ATOM     17  C   UNL     1       2.825   9.448  -2.291  0.00  0.00    +0.017 C 
ATOM     18  C   UNL     1       2.762   8.529  -3.484  0.00  0.00    -0.048 A 
ATOM     19  C   UNL     1       3.389   8.923  -4.656  0.00  0.00    +0.004 A 
ATOM     20  C   UNL     1       3.359   8.110  -5.771  0.00  0.00    +0.000 A 
ATOM     21  C   UNL     1       2.700   6.896  -5.719  0.00  0.00    +0.000 A 
ATOM     22  C   UNL     1       2.073   6.503  -4.553  0.00  0.00    +0.002 A 
ATOM     23  C   UNL     1       2.102   7.320  -3.432  0.00  0.00    -0.061 A 
ATOM     24  C   UNL     1       1.400   6.851  -2.185  0.00  0.00    -0.041 C 
ATOM     25  N   UNL     1       1.892   7.602  -1.018  0.00  0.00    +0.392 N 
ATOM     26  H   UNL     1       2.882   7.377  -0.867  0.00  0.00    -0.080 HD
ENDBRANCH   1  25
BRANCH   1  27
ATOM     27  C   UNL     1       1.756   7.868   1.395  0.00  0.00    +0.143 A 
ATOM     28  N   UNL     1       3.022   7.825   1.731  0.00  0.00    -0.115 NA
ATOM     29  N   UNL     1       3.168   8.498   2.821  0.00  0.00    -0.023 NA
ATOM     30  N   UNL     1       2.026   8.961   3.193  0.00  0.00    -0.043 NA
ATOM     31  N   UNL     1       1.130   8.595   2.340  0.00  0.00    -0.225 N 
BRANCH  31  32
ATOM     32  C   UNL     1      -0.300   8.910   2.389  0.00  0.00    +0.059 C 
ATOM     33  C   UNL     1      -1.109   7.612   2.401  0.00  0.00    +0.036 C 
ATOM     34  C   UNL     1      -0.602   9.711   3.657  0.00  0.00    +0.036 C 
ATOM     35  C   UNL     1      -0.682   9.738   1.160  0.00  0.00    +0.036 C 
ENDBRANCH  31  32
ENDBRANCH   1  27
TORSDOF 4
