REMARK  Name = ZINC09479442
REMARK  4 active torsions:
REMARK  status: ('A' for Active; 'I' for Inactive)
REMARK    1  A    between atoms: C_1  and  C_2
REMARK    2  A    between atoms: C_6  and  C_7
REMARK    3  A    between atoms: N_9  and  N_10
REMARK    4  A    between atoms: C_17  and  C_20
REMARK                            x       y       z     vdW  Elec       q    Type
REMARK                         _______ _______ _______ _____ _____    ______ ____
ROOT
ATOM      1  N   UNL     1      -3.872   5.183   0.067  0.00  0.00    -0.212 N 
ATOM      2  C   UNL     1      -4.041   5.885   1.217  0.00  0.00    +0.223 A 
ATOM      3  N   UNL     1      -4.842   6.915   1.268  0.00  0.00    -0.228 NA
ATOM      4  C   UNL     1      -5.528   7.303   0.196  0.00  0.00    +0.116 A 
ATOM      5  C   UNL     1      -5.422   6.636  -1.035  0.00  0.00    +0.081 A 
ATOM      6  C   UNL     1      -4.532   5.516  -1.058  0.00  0.00    +0.280 A 
ATOM      7  O   UNL     1      -4.373   4.872  -2.082  0.00  0.00    -0.265 OA
ATOM      8  C   UNL     1      -6.239   7.188  -2.109  0.00  0.00    +0.004 A 
ATOM      9  C   UNL     1      -7.014   8.268  -1.849  0.00  0.00    +0.056 A 
ATOM     10  S   UNL     1      -6.687   8.607  -0.130  0.00  0.00    -0.076 S 
ENDROOT
BRANCH   8  11
ATOM     11  C   UNL     1      -6.222   6.578  -3.460  0.00  0.00    -0.017 A 
ATOM     12  C   UNL     1      -5.009   6.323  -4.098  0.00  0.00    +0.008 A 
ATOM     13  C   UNL     1      -4.999   5.750  -5.353  0.00  0.00    +0.001 A 
ATOM     14  C   UNL     1      -6.190   5.440  -5.984  0.00  0.00    +0.000 A 
ATOM     15  C   UNL     1      -7.398   5.696  -5.359  0.00  0.00    +0.001 A 
ATOM     16  C   UNL     1      -7.420   6.263  -4.101  0.00  0.00    +0.008 A 
ENDBRANCH   8  11
BRANCH   1  19
ATOM     17  C   UNL     1      -1.666   4.288   0.041  0.00  0.00    +0.298 C 
ATOM     18  O   UNL     1      -1.222   5.421   0.043  0.00  0.00    -0.265 OA
ATOM     19  N   UNL     1      -2.999   4.087   0.053  0.00  0.00    -0.212 N 
ATOM     20  H   UNL     1      -3.354   3.184   0.051  0.00  0.00    +0.176 HD
BRANCH  17  26
ATOM     21  C   UNL     1       1.456   4.451   0.013  0.00  0.00    +0.048 C 
ATOM     22  C   UNL     1       0.612   3.203   0.013  0.00  0.00    -0.000 A 
ATOM     23  C   UNL     1       1.075   1.878   0.002  0.00  0.00    +0.045 A 
ATOM     24  C   UNL     1      -0.013   1.076   0.008  0.00  0.00    +0.196 A 
ATOM     25  O   UNL     1      -1.112   1.841   0.017  0.00  0.00    -0.458 OA
ATOM     26  C   UNL     1      -0.752   3.141   0.026  0.00  0.00    +0.194 A 
ENDBRANCH  17  26
ENDBRANCH   1  19
TORSDOF 3
