REMARK  Name = ZINC06660755
REMARK  8 active torsions:
REMARK  status: ('A' for Active; 'I' for Inactive)
REMARK    1  A    between atoms: C_1  and  C_2
REMARK    2  A    between atoms: C_2  and  C_3
REMARK    3  A    between atoms: C_3  and  C_4
REMARK    4  A    between atoms: C_4  and  N_5
REMARK    5  A    between atoms: C_17  and  C_24
REMARK    6  A    between atoms: C_25  and  C_27
REMARK    7  A    between atoms: C_27  and  C_28
REMARK    8  A    between atoms: C_27  and  C_29
REMARK                            x       y       z     vdW  Elec       q    Type
REMARK                         _______ _______ _______ _____ _____    ______ ____
ROOT
ATOM      1  N   UNL     1      -0.337  -1.062  -2.044  0.00  0.00    -0.242 N 
ATOM      2  C   UNL     1      -1.006  -0.507  -1.007  0.00  0.00    +0.224 C 
ATOM      3  O   UNL     1      -2.210  -0.421  -0.897  0.00  0.00    -0.275 OA
ATOM      4  C   UNL     1       0.002  -0.004   0.002  0.00  0.00    +0.073 C 
ATOM      5  C   UNL     1       1.375  -0.380  -0.621  0.00  0.00    +0.088 C 
ATOM      6  C   UNL     1       0.996  -1.044  -1.925  0.00  0.00    +0.225 C 
ATOM      7  O   UNL     1       1.778  -1.491  -2.737  0.00  0.00    -0.275 OA
ATOM      8  C   UNL     1       2.054   0.965  -0.903  0.00  0.00    +0.050 C 
ATOM      9  C   UNL     1       1.909   1.367  -2.343  0.00  0.00    -0.027 A 
ATOM     10  C   UNL     1       0.823   1.596  -3.158  0.00  0.00    +0.008 A 
ATOM     11  C   UNL     1       1.013   1.962  -4.479  0.00  0.00    -0.050 A 
ATOM     12  C   UNL     1       2.296   2.098  -4.977  0.00  0.00    +0.005 A 
ATOM     13  C   UNL     1       3.387   1.868  -4.165  0.00  0.00    +0.024 A 
ATOM     14  C   UNL     1       3.204   1.499  -2.834  0.00  0.00    +0.036 A 
ATOM     15  N   UNL     1       4.132   1.216  -1.830  0.00  0.00    -0.286 N 
ATOM     16  C   UNL     1       3.538   0.893  -0.665  0.00  0.00    +0.211 C 
ATOM     17  O   UNL     1       4.092   0.601   0.374  0.00  0.00    -0.277 OA
ATOM     18  C   UNL     1      -0.175   2.213  -5.372  0.00  0.00    +0.044 C 
ATOM     19  C   UNL     1      -0.019   1.540   0.011  0.00  0.00    -0.055 C 
ATOM     20  H   UNL     1       5.093   1.249  -1.956  0.00  0.00    +0.155 HD
ATOM     21  N   UNL     1       1.397   1.913  -0.019  0.00  0.00    +0.394 N 
ATOM     22  H   UNL     1       1.505   2.868  -0.379  0.00  0.00    -0.083 HD
ATOM     23  H   UNL     1       1.799   1.855   0.924  0.00  0.00    -0.083 HD
ENDROOT
BRANCH  19  24
ATOM     24  C   UNL     1      -0.706   2.056   1.276  0.00  0.00    -0.031 C 
ATOM     25  C   UNL     1      -0.715   3.586   1.264  0.00  0.00    +0.005 C 
ATOM     26  C   UNL     1      -2.145   1.537   1.323  0.00  0.00    +0.005 C 
ENDBRANCH  19  24
BRANCH   1  27
ATOM     27  C   UNL     1      -1.021  -1.643  -3.202  0.00  0.00    +0.116 C 
BRANCH  27  28
ATOM     28  C   UNL     1      -1.301  -3.124  -2.939  0.00  0.00    +0.019 C 
BRANCH  28  30
ATOM     29  C   UNL     1      -2.295  -5.212  -3.885  0.00  0.00    +0.004 C 
ATOM     30  C   UNL     1      -2.015  -3.731  -4.148  0.00  0.00    -0.002 C 
ENDBRANCH  28  30
ENDBRANCH  27  28
ENDBRANCH   1  27
TORSDOF 4
