REMARK  Name = ZINC35374742
REMARK  12 active torsions:
REMARK  status: ('A' for Active; 'I' for Inactive)
REMARK    1  A    between atoms: C_1  and  C_2
REMARK    2  A    between atoms: C_2  and  C_3
REMARK    3  A    between atoms: C_3  and  C_4
REMARK    4  A    between atoms: C_4  and  C_5
REMARK    5  A    between atoms: C_5  and  C_6
REMARK    6  A    between atoms: C_9  and  C_12
REMARK    7  A    between atoms: C_21  and  C_25
REMARK    8  A    between atoms: N_27  and  C_28
REMARK    9  A    between atoms: C_28  and  C_29
REMARK   10  A    between atoms: C_29  and  C_31
REMARK   11  A    between atoms: C_29  and  C_32
REMARK   12  A    between atoms: C_32  and  C_33
REMARK                            x       y       z     vdW  Elec       q    Type
REMARK                         _______ _______ _______ _____ _____    ______ ____
ROOT
ATOM      1  C   UNL     1       1.533  -8.275  -2.556  0.00  0.00    +0.247 C 
ATOM      2  O   UNL     1       2.504  -8.872  -2.134  0.00  0.00    -0.270 OA
ATOM      3  N   UNL     1       0.482  -8.960  -3.048  0.00  0.00    -0.298 N 
ATOM      4  C   UNL     1      -0.639  -8.255  -3.684  0.00  0.00    +0.107 C 
ATOM      5  C   UNL     1      -0.855  -8.838  -5.085  0.00  0.00    +0.017 C 
ATOM      6  C   UNL     1      -1.007 -10.348  -4.989  0.00  0.00    -0.016 C 
ATOM      7  C   UNL     1       0.217 -10.998  -4.364  0.00  0.00    +0.017 C 
ATOM      8  C   UNL     1       0.441 -10.427  -2.964  0.00  0.00    +0.107 C 
ATOM      9  N   UNL     1      -2.236 -10.711  -4.252  0.00  0.00    +0.397 N 
ATOM     10  C   UNL     1      -3.405 -10.817  -5.147  0.00  0.00    +0.028 C 
ATOM     11  C   UNL     1      -3.014 -11.684  -6.382  0.00  0.00    +0.061 C 
ATOM     12  S   UNL     1      -1.301 -11.051  -6.660  0.00  0.00    -0.174 S 
ATOM     13  H   UNL     1      -2.092 -11.597  -3.792  0.00  0.00    -0.083 HD
ATOM     14  H   UNL     1      -2.420 -10.006  -3.554  0.00  0.00    -0.083 HD
ENDROOT
BRANCH   1  18
ATOM     15  C   UNL     1       1.452  -4.029  -2.482  0.00  0.00    -0.047 A 
ATOM     16  C   UNL     1       2.611  -4.689  -2.851  0.00  0.00    +0.004 A 
ATOM     17  C   UNL     1       2.644  -6.068  -2.877  0.00  0.00    +0.013 A 
ATOM     18  C   UNL     1       1.505  -6.797  -2.530  0.00  0.00    +0.037 A 
ATOM     19  C   UNL     1       0.340  -6.125  -2.159  0.00  0.00    +0.013 A 
ATOM     20  C   UNL     1       0.322  -4.745  -2.132  0.00  0.00    +0.004 A 
BRANCH  15  21
ATOM     21  C   UNL     1       1.423  -2.522  -2.456  0.00  0.00    +0.035 C 
BRANCH  21  22
ATOM     22  C   UNL     1       1.849  -2.028  -1.073  0.00  0.00    +0.005 C 
BRANCH  22  23
ATOM     23  C   UNL     1       1.820  -0.498  -1.046  0.00  0.00    +0.000 C 
BRANCH  23  25
ATOM     24  C   UNL     1       2.216   1.526   0.364  0.00  0.00    +0.004 C 
ATOM     25  C   UNL     1       2.246  -0.004   0.338  0.00  0.00    -0.003 C 
ENDBRANCH  23  25
ENDBRANCH  22  23
ENDBRANCH  21  22
ENDBRANCH  15  21
ENDBRANCH   1  18
BRANCH  10  26
ATOM     26  C   UNL     1      -4.546 -11.473  -4.413  0.00  0.00    +0.200 C 
ATOM     27  O   UNL     1      -4.406 -11.820  -3.259  0.00  0.00    -0.278 OA
ATOM     28  N   UNL     1      -5.723 -11.675  -5.038  0.00  0.00    -0.316 N 
ATOM     29  H   UNL     1      -5.835 -11.398  -5.961  0.00  0.00    +0.149 HD
BRANCH  28  30
ATOM     30  C   UNL     1      -6.832 -12.312  -4.325  0.00  0.00    +0.107 C 
BRANCH  30  31
ATOM     31  C   UNL     1      -8.042 -12.421  -5.255  0.00  0.00    +0.003 C 
ATOM     32  C   UNL     1      -7.711 -13.364  -6.414  0.00  0.00    +0.009 C 
BRANCH  31  33
ATOM     33  C   UNL     1      -9.237 -12.972  -4.475  0.00  0.00    +0.001 C 
ATOM     34  C   UNL     1     -10.478 -12.964  -5.371  0.00  0.00    +0.004 C 
ENDBRANCH  31  33
ENDBRANCH  30  31
ENDBRANCH  28  30
ENDBRANCH  10  26
TORSDOF 9
