REMARK  Name = ZINC09196230
REMARK  3 active torsions:
REMARK  status: ('A' for Active; 'I' for Inactive)
REMARK    1  A    between atoms: C_1  and  C_2
REMARK    2  A    between atoms: C_11  and  C_13
REMARK    3  A    between atoms: N_20  and  C_21
REMARK                            x       y       z     vdW  Elec       q    Type
REMARK                         _______ _______ _______ _____ _____    ______ ____
ROOT
ATOM      1  C   UNL     1      -4.653   7.730  -2.859  0.00  0.00    +0.066 C 
ATOM      2  C   UNL     1      -3.452   7.293  -2.060  0.00  0.00    +0.047 A 
ATOM      3  C   UNL     1      -3.530   7.223  -0.700  0.00  0.00    +0.093 A 
ATOM      4  C   UNL     1      -2.398   6.805   0.028  0.00  0.00    +0.257 A 
ATOM      5  O   UNL     1      -2.429   6.739   1.246  0.00  0.00    -0.267 OA
ATOM      6  N   UNL     1      -1.284   6.481  -0.651  0.00  0.00    -0.255 N 
ATOM      7  C   UNL     1      -1.260   6.589  -2.013  0.00  0.00    +0.207 A 
ATOM      8  N   UNL     1      -2.318   6.975  -2.685  0.00  0.00    -0.221 NA
ATOM      9  N   UNL     1      -0.073   6.275  -2.647  0.00  0.00    -0.259 N 
ATOM     10  C   UNL     1       1.092   6.622  -1.970  0.00  0.00    +0.162 C 
ATOM     11  C   UNL     1      -0.079   6.003   0.034  0.00  0.00    +0.220 C 
ATOM     12  N   UNL     1       2.199   7.066  -2.653  0.00  0.00    -0.316 N 
ATOM     13  H   UNL     1      -0.052   5.838  -3.512  0.00  0.00    +0.158 HD
ATOM     14  H   UNL     1       2.175   7.141  -3.620  0.00  0.00    +0.149 HD
ATOM     15  N   UNL     1       1.163   6.533  -0.632  0.00  0.00    -0.337 N 
ATOM     16  H   UNL     1       2.000   6.805  -0.104  0.00  0.00    +0.164 HD
ENDROOT
BRANCH  11  17
ATOM     17  C   UNL     1      -0.059   4.497   0.026  0.00  0.00    -0.004 A 
ATOM     18  C   UNL     1       1.148   3.822   0.012  0.00  0.00    +0.009 A 
ATOM     19  C   UNL     1       1.167   2.440   0.004  0.00  0.00    +0.020 A 
ATOM     20  C   UNL     1      -0.021   1.732   0.012  0.00  0.00    +0.041 A 
ATOM     21  C   UNL     1      -1.229   2.407   0.021  0.00  0.00    +0.020 A 
ATOM     22  C   UNL     1      -1.247   3.789   0.034  0.00  0.00    +0.009 A 
ATOM     23 CL   UNL     1       0.002  -0.004   0.002  0.00  0.00    -0.084 Cl
ENDBRANCH  11  17
BRANCH  12  24
ATOM     24  C   UNL     1       3.416   7.426  -1.921  0.00  0.00    +0.073 C 
ATOM     25  C   UNL     1       3.312   8.875  -1.441  0.00  0.00    +0.022 C 
ATOM     26  C   UNL     1       4.583   9.251  -0.676  0.00  0.00    +0.002 C 
ATOM     27  C   UNL     1       5.795   9.105  -1.598  0.00  0.00    +0.000 C 
ATOM     28  C   UNL     1       5.899   7.656  -2.078  0.00  0.00    +0.002 C 
ATOM     29  C   UNL     1       4.628   7.280  -2.843  0.00  0.00    +0.022 C 
ENDBRANCH  12  24
TORSDOF 2
