REMARK  Name = ZINC10211295
REMARK  10 active torsions:
REMARK  status: ('A' for Active; 'I' for Inactive)
REMARK    1  A    between atoms: C_1  and  C_2
REMARK    2  A    between atoms: C_6  and  N_9
REMARK    3  A    between atoms: C_7  and  C_8
REMARK    4  A    between atoms: C_13  and  S_15
REMARK    5  A    between atoms: S_15  and  C_16
REMARK    6  A    between atoms: C_16  and  C_18
REMARK    7  A    between atoms: C_16  and  C_19
REMARK    8  A    between atoms: N_21  and  C_22
REMARK    9  A    between atoms: C_22  and  C_23
REMARK   10  A    between atoms: N_25  and  C_26
REMARK                            x       y       z     vdW  Elec       q    Type
REMARK                         _______ _______ _______ _____ _____    ______ ____
ROOT
ATOM      1  C   UNL     1       2.995   8.805  -0.431  0.00  0.00    +0.136 C 
ATOM      2  C   UNL     1       2.297   8.662   0.923  0.00  0.00    +0.029 C 
ENDROOT
BRANCH   1   3
ATOM      3  C   UNL     1       3.321  10.255  -0.678  0.00  0.00    +0.227 C 
ATOM      4  O   UNL     1       4.444  10.667  -0.478  0.00  0.00    -0.275 OA
ATOM      5  N   UNL     1       2.363  11.095  -1.120  0.00  0.00    -0.306 N 
ATOM      6  H   UNL     1       1.465  10.765  -1.280  0.00  0.00    +0.149 HD
BRANCH   5   7
ATOM      7  C   UNL     1       2.680  12.505  -1.360  0.00  0.00    +0.200 C 
BRANCH   7   8
ATOM      8  C   UNL     1       1.446  13.221  -1.847  0.00  0.00    +0.234 C 
ATOM      9  O   UNL     1       0.405  12.613  -1.980  0.00  0.00    -0.274 OA
ATOM     10  N   UNL     1       1.500  14.536  -2.134  0.00  0.00    -0.282 N 
ATOM     11  H   UNL     1       2.349  15.005  -2.106  0.00  0.00    +0.155 HD
BRANCH  10  12
ATOM     12  C   UNL     1       0.329  15.228  -2.473  0.00  0.00    +0.072 A 
ATOM     13  C   UNL     1      -0.904  14.761  -2.040  0.00  0.00    +0.029 A 
ATOM     14  C   UNL     1      -2.058  15.445  -2.371  0.00  0.00    +0.043 A 
ATOM     15  C   UNL     1      -1.988  16.592  -3.143  0.00  0.00    +0.161 A 
ATOM     16  C   UNL     1      -0.759  17.059  -3.583  0.00  0.00    +0.195 A 
ATOM     17  C   UNL     1       0.400  16.379  -3.249  0.00  0.00    +0.182 A 
ATOM     18  F   UNL     1       1.598  16.833  -3.677  0.00  0.00    -0.200 F 
ATOM     19  F   UNL     1      -0.692  18.178  -4.338  0.00  0.00    -0.199 F 
ATOM     20  F   UNL     1      -3.118  17.256  -3.469  0.00  0.00    -0.202 F 
ENDBRANCH  10  12
ENDBRANCH   7   8
ENDBRANCH   5   7
ENDBRANCH   1   3
BRANCH   1  21
ATOM     21  S   UNL     1       4.527   7.833  -0.427  0.00  0.00    -0.084 S 
BRANCH  21  26
ATOM     22  N   UNL     1       3.581   2.132   0.039  0.00  0.00    -0.292 N 
ATOM     23  C   UNL     1       3.564   3.519  -0.063  0.00  0.00    +0.187 A 
ATOM     24  N   UNL     1       2.535   4.343  -0.085  0.00  0.00    -0.125 NA
ATOM     25  N   UNL     1       2.745   5.698  -0.189  0.00  0.00    -0.133 NA
ATOM     26  C   UNL     1       3.975   6.167  -0.278  0.00  0.00    +0.161 A 
ATOM     27  S   UNL     1       4.931   4.660  -0.209  0.00  0.00    -0.024 S 
ATOM     28  H   UNL     1       4.426   1.661   0.111  0.00  0.00    +0.154 HD
BRANCH  22  34
ATOM     29  C   UNL     1       1.227  -2.182   0.022  0.00  0.00    +0.044 C 
ATOM     30  C   UNL     1       1.209  -0.675   0.030  0.00  0.00    -0.046 A 
ATOM     31  C   UNL     1       0.003   0.001   0.039  0.00  0.00    +0.004 A 
ATOM     32  C   UNL     1      -0.017   1.384   0.047  0.00  0.00    +0.002 A 
ATOM     33  C   UNL     1       1.167   2.094   0.048  0.00  0.00    +0.023 A 
ATOM     34  C   UNL     1       2.381   1.417   0.039  0.00  0.00    +0.036 A 
ATOM     35  C   UNL     1       2.398   0.028   0.031  0.00  0.00    -0.026 A 
ATOM     36  C   UNL     1       3.711  -0.710   0.022  0.00  0.00    +0.046 C 
ENDBRANCH  22  34
ENDBRANCH  21  26
ENDBRANCH   1  21
TORSDOF 7
