REMARK  Name = ZINC01175860
REMARK  9 active torsions:
REMARK  status: ('A' for Active; 'I' for Inactive)
REMARK    1  A    between atoms: C_1  and  C_2
REMARK    2  A    between atoms: C_2  and  O_3
REMARK    3  A    between atoms: O_3  and  C_4
REMARK    4  A    between atoms: C_6  and  C_11
REMARK    5  A    between atoms: C_9  and  O_10
REMARK    6  A    between atoms: N_22  and  N_23
REMARK    7  A    between atoms: C_24  and  C_25
REMARK    8  A    between atoms: C_24  and  C_26
REMARK    9  A    between atoms: C_31  and  O_32
REMARK                            x       y       z     vdW  Elec       q    Type
REMARK                         _______ _______ _______ _____ _____    ______ ____
ROOT
ATOM      1  C   UNL     1       0.308  -4.872   0.283  0.00  0.00    +0.216 C 
ATOM      2  N   UNL     1       1.366  -3.983  -0.212  0.00  0.00    -0.320 N 
ATOM      3  C   UNL     1       1.464  -3.766  -1.582  0.00  0.00    +0.041 A 
ATOM      4  C   UNL     1       1.955  -2.582  -2.104  0.00  0.00    +0.024 A 
ATOM      5  C   UNL     1       2.026  -2.415  -3.474  0.00  0.00    +0.002 A 
ATOM      6  C   UNL     1       1.609  -3.424  -4.329  0.00  0.00    +0.001 A 
ATOM      7  C   UNL     1       1.119  -4.611  -3.826  0.00  0.00    +0.015 A 
ATOM      8  C   UNL     1       1.044  -4.793  -2.447  0.00  0.00    +0.059 A 
ATOM      9  C   UNL     1       0.539  -6.045  -1.856  0.00  0.00    +0.270 C 
ATOM     10  O   UNL     1       0.404  -7.040  -2.544  0.00  0.00    -0.268 OA
ATOM     11  N   UNL     1       0.230  -6.074  -0.546  0.00  0.00    -0.163 N 
ATOM     12  H   UNL     1       1.984  -3.557   0.402  0.00  0.00    +0.148 HD
ENDROOT
BRANCH   1  15
ATOM     13  C   UNL     1      -2.266  -2.107   0.343  0.00  0.00    +0.162 A 
ATOM     14  C   UNL     1      -1.052  -2.774   0.384  0.00  0.00    +0.056 A 
ATOM     15  C   UNL     1      -1.013  -4.148   0.237  0.00  0.00    -0.004 A 
ATOM     16  C   UNL     1      -2.183  -4.859   0.048  0.00  0.00    +0.011 A 
ATOM     17  C   UNL     1      -3.398  -4.200   0.005  0.00  0.00    +0.049 A 
ATOM     18  C   UNL     1      -3.444  -2.824   0.158  0.00  0.00    +0.158 A 
BRANCH  18  19
ATOM     19  O   UNL     1      -4.638  -2.174   0.122  0.00  0.00    -0.503 OA
ATOM     20  H   UNL     1      -4.905  -1.890  -0.763  0.00  0.00    +0.292 HD
ENDBRANCH  18  19
BRANCH  13  21
ATOM     21  O   UNL     1      -2.306  -0.755   0.487  0.00  0.00    -0.489 OA
BRANCH  21  23
ATOM     22  C   UNL     1      -1.301   1.418   0.816  0.00  0.00    +0.048 C 
ATOM     23  C   UNL     1      -1.057  -0.085   0.673  0.00  0.00    +0.226 C 
ENDBRANCH  21  23
ENDBRANCH  13  21
ENDBRANCH   1  15
BRANCH  11  24
ATOM     24  N   UNL     1      -0.176  -7.284   0.032  0.00  0.00    -0.179 NA
ATOM     25  C   UNL     1       0.572  -7.860   0.924  0.00  0.00    +0.067 C 
ATOM     26  C   UNL     1       1.934  -7.300   1.241  0.00  0.00    +0.068 C 
BRANCH  25  27
ATOM     27  C   UNL     1       0.088  -9.062   1.625  0.00  0.00    +0.039 A 
ATOM     28  C   UNL     1       0.887  -9.682   2.589  0.00  0.00    +0.013 A 
ATOM     29  C   UNL     1       0.428 -10.807   3.242  0.00  0.00    +0.001 A 
ATOM     30  C   UNL     1      -0.821 -11.325   2.946  0.00  0.00    +0.004 A 
ATOM     31  C   UNL     1      -1.621 -10.721   1.994  0.00  0.00    +0.046 A 
ATOM     32  C   UNL     1      -1.179  -9.587   1.333  0.00  0.00    +0.126 A 
BRANCH  32  33
ATOM     33  O   UNL     1      -1.966  -8.989   0.403  0.00  0.00    -0.506 OA
ATOM     34  H   UNL     1      -1.839  -9.325  -0.495  0.00  0.00    +0.292 HD
ENDBRANCH  32  33
ENDBRANCH  25  27
ENDBRANCH  11  24
TORSDOF 7
