REMARK  Name = ZINC58990468
REMARK  10 active torsions:
REMARK  status: ('A' for Active; 'I' for Inactive)
REMARK    1  A    between atoms: C_1  and  C_2
REMARK    2  A    between atoms: C_5  and  C_8
REMARK    3  A    between atoms: N_9  and  N_10
REMARK    4  A    between atoms: C_11  and  C_13
REMARK    5  A    between atoms: C_13  and  C_14
REMARK    6  A    between atoms: C_14  and  C_15
REMARK    7  A    between atoms: C_15  and  S_16
REMARK    8  A    between atoms: S_16  and  C_17
REMARK    9  A    between atoms: C_20  and  C_23
REMARK   10  A    between atoms: N_21  and  N_22
REMARK                            x       y       z     vdW  Elec       q    Type
REMARK                         _______ _______ _______ _____ _____    ______ ____
ROOT
ATOM      1  C   UNL     1       0.158 -10.538   3.678  0.00  0.00    +0.078 C 
ENDROOT
BRANCH   1   2
ATOM      2  C   UNL     1       0.139  -9.008   3.686  0.00  0.00    +0.020 C 
BRANCH   2   3
ATOM      3  C   UNL     1       0.125  -8.491   2.246  0.00  0.00    +0.098 C 
BRANCH   3   5
ATOM      4  N   UNL     1       0.090  -6.304   1.091  0.00  0.00    -0.207 N 
ATOM      5  C   UNL     1       0.105  -6.984   2.255  0.00  0.00    +0.232 C 
ATOM      6  O   UNL     1       0.103  -6.383   3.308  0.00  0.00    -0.274 OA
ATOM      7  H   UNL     1       0.092  -6.784   0.248  0.00  0.00    +0.177 HD
BRANCH   4   9
ATOM      8  C   UNL     1       0.058  -4.248  -0.021  0.00  0.00    +0.138 C 
ATOM      9  N   UNL     1       0.072  -4.903   1.099  0.00  0.00    -0.188 NA
BRANCH   8  14
ATOM     10  C   UNL     1      -0.018   1.503   0.010  0.00  0.00    +0.044 C 
ATOM     11  C   UNL     1       0.002  -0.004   0.002  0.00  0.00    -0.050 A 
ATOM     12  C   UNL     1       0.006  -0.686  -1.202  0.00  0.00    +0.004 A 
ATOM     13  C   UNL     1       0.024  -2.065  -1.217  0.00  0.00    +0.010 A 
ATOM     14  C   UNL     1       0.039  -2.773  -0.013  0.00  0.00    -0.005 A 
ATOM     15  C   UNL     1       0.036  -2.078   1.198  0.00  0.00    +0.010 A 
ATOM     16  C   UNL     1       0.023  -0.699   1.198  0.00  0.00    +0.004 A 
ENDBRANCH   8  14
ENDBRANCH   4   9
ENDBRANCH   3   5
ENDBRANCH   2   3
ENDBRANCH   1   2
BRANCH   1  17
ATOM     17  S   UNL     1       0.175 -11.152   5.384  0.00  0.00    -0.084 S 
BRANCH  17  18
ATOM     18  C   UNL     1       0.197 -12.905   5.207  0.00  0.00    +0.209 A 
ATOM     19  N   UNL     1       0.205 -13.574   4.075  0.00  0.00    -0.121 NA
ATOM     20  N   UNL     1       0.221 -14.838   4.310  0.00  0.00    -0.127 NA
ATOM     21  C   UNL     1       0.223 -15.053   5.605  0.00  0.00    +0.182 A 
ATOM     22  N   UNL     1       0.214 -13.822   6.219  0.00  0.00    -0.224 N 
BRANCH  21  23
ATOM     23  C   UNL     1       0.239 -16.370   6.276  0.00  0.00    +0.021 A 
ATOM     24  C   UNL     1      -0.078 -16.469   7.632  0.00  0.00    +0.013 A 
ATOM     25  C   UNL     1      -0.061 -17.701   8.253  0.00  0.00    +0.016 A 
ATOM     26  C   UNL     1       0.270 -18.837   7.535  0.00  0.00    +0.018 A 
ATOM     27  C   UNL     1       0.587 -18.745   6.190  0.00  0.00    +0.016 A 
ATOM     28  C   UNL     1       0.567 -17.520   5.556  0.00  0.00    +0.013 A 
ATOM     29 BR   UNL     1       0.291 -20.521   8.394  0.00  0.00    -0.050 Br
ENDBRANCH  21  23
BRANCH  22  30
ATOM     30  N   UNL     1       0.218 -13.569   7.561  0.00  0.00    -0.295 N 
ATOM     31  H   UNL     1      -0.723 -13.515   7.922  0.00  0.00    +0.163 HD
ATOM     32  H   UNL     1       0.756 -14.263   8.058  0.00  0.00    +0.163 HD
ENDBRANCH  22  30
ENDBRANCH  17  18
ENDBRANCH   1  17
TORSDOF 9
