REMARK  Name = ZINC01362004
REMARK  9 active torsions:
REMARK  status: ('A' for Active; 'I' for Inactive)
REMARK    1  A    between atoms: C_1  and  C_2
REMARK    2  A    between atoms: C_4  and  C_42
REMARK    3  A    between atoms: C_9  and  C_14
REMARK    4  A    between atoms: C_14  and  C_16
REMARK    5  A    between atoms: C_14  and  N_29
REMARK    6  A    between atoms: N_20  and  C_21
REMARK    7  A    between atoms: C_21  and  C_22
REMARK    8  A    between atoms: C_22  and  C_23
REMARK    9  A    between atoms: N_32  and  C_35
REMARK                            x       y       z     vdW  Elec       q    Type
REMARK                         _______ _______ _______ _____ _____    ______ ____
ROOT
ATOM      1  C   UNL     1       0.089  -5.020   3.624  0.00  0.00    +0.162 C 
ENDROOT
BRANCH   1  10
ATOM      2  C   UNL     1      -3.227  -2.435  -2.536  0.00  0.00    +0.044 C 
ATOM      3  C   UNL     1      -2.035  -2.507  -1.617  0.00  0.00    -0.050 A 
ATOM      4  C   UNL     1      -0.887  -1.789  -1.921  0.00  0.00    +0.008 A 
ATOM      5  C   UNL     1       0.215  -1.840  -1.095  0.00  0.00    -0.026 A 
ATOM      6  C   UNL     1       0.178  -2.619   0.057  0.00  0.00    +0.052 A 
ATOM      7  C   UNL     1      -0.988  -3.346   0.363  0.00  0.00    -0.001 A 
ATOM      8  C   UNL     1      -2.095  -3.275  -0.488  0.00  0.00    +0.013 A 
ATOM      9  C   UNL     1      -1.016  -4.163   1.577  0.00  0.00    +0.021 A 
ATOM     10  C   UNL     1       0.086  -4.189   2.367  0.00  0.00    +0.042 A 
ATOM     11  C   UNL     1       1.230  -3.441   2.015  0.00  0.00    +0.254 A 
ATOM     12  O   UNL     1       2.210  -3.479   2.739  0.00  0.00    -0.268 OA
ATOM     13  N   UNL     1       1.266  -2.688   0.902  0.00  0.00    -0.322 N 
ATOM     14  H   UNL     1       2.069  -2.187   0.689  0.00  0.00    +0.169 HD
ATOM     15  C   UNL     1       1.455  -1.055  -1.438  0.00  0.00    +0.046 C 
ENDBRANCH   1  10
BRANCH   1  16
ATOM     16  N   UNL     1       1.163  -6.019   3.548  0.00  0.00    -0.286 NA
ATOM     17  C   UNL     1       1.018  -6.858   2.351  0.00  0.00    +0.104 C 
ATOM     18  C   UNL     1       2.248  -7.761   2.212  0.00  0.00    +0.120 C 
ATOM     19  N   UNL     1       2.431  -8.499   3.471  0.00  0.00    -0.325 N 
ATOM     20  C   UNL     1       2.449  -7.737   4.728  0.00  0.00    +0.120 C 
ATOM     21  C   UNL     1       1.211  -6.835   4.768  0.00  0.00    +0.104 C 
BRANCH  19  22
ATOM     22  C   UNL     1       2.584  -9.889   3.472  0.00  0.00    +0.065 A 
ATOM     23  C   UNL     1       3.851 -10.450   3.382  0.00  0.00    +0.026 A 
ATOM     24  C   UNL     1       3.999 -11.824   3.384  0.00  0.00    +0.002 A 
ATOM     25  C   UNL     1       2.888 -12.641   3.474  0.00  0.00    +0.003 A 
ATOM     26  C   UNL     1       1.624 -12.088   3.563  0.00  0.00    +0.040 A 
ATOM     27  C   UNL     1       1.468 -10.714   3.568  0.00  0.00    +0.144 A 
ATOM     28  F   UNL     1       0.234 -10.173   3.661  0.00  0.00    -0.204 F 
ENDBRANCH  19  22
ENDBRANCH   1  16
BRANCH   1  29
ATOM     29  C   UNL     1      -1.238  -5.720   3.768  0.00  0.00    +0.173 A 
ATOM     30  N   UNL     1      -1.650  -6.763   3.090  0.00  0.00    -0.111 NA
ATOM     31  N   UNL     1      -2.833  -7.063   3.502  0.00  0.00    -0.023 NA
ATOM     32  N   UNL     1      -3.187  -6.237   4.424  0.00  0.00    -0.044 NA
ATOM     33  N   UNL     1      -2.228  -5.397   4.620  0.00  0.00    -0.227 N 
BRANCH  33  34
ATOM     34  C   UNL     1      -2.220  -4.296   5.587  0.00  0.00    +0.152 C 
BRANCH  34  35
ATOM     35  C   UNL     1      -2.787  -3.036   4.929  0.00  0.00    +0.058 C 
BRANCH  35  36
ATOM     36  C   UNL     1      -2.779  -1.904   5.924  0.00  0.00    -0.046 A 
ATOM     37  C   UNL     1      -3.873  -1.696   6.743  0.00  0.00    +0.004 A 
ATOM     38  C   UNL     1      -3.865  -0.657   7.655  0.00  0.00    +0.000 A 
ATOM     39  C   UNL     1      -2.764   0.173   7.748  0.00  0.00    +0.000 A 
ATOM     40  C   UNL     1      -1.670  -0.036   6.930  0.00  0.00    +0.000 A 
ATOM     41  C   UNL     1      -1.675  -1.077   6.021  0.00  0.00    +0.004 A 
ENDBRANCH  35  36
ENDBRANCH  34  35
ENDBRANCH  33  34
ENDBRANCH   1  29
TORSDOF 7
