REMARK  Name = ZINC09229866
REMARK  9 active torsions:
REMARK  status: ('A' for Active; 'I' for Inactive)
REMARK    1  A    between atoms: C_3  and  N_28
REMARK    2  A    between atoms: C_6  and  C_7
REMARK    3  A    between atoms: C_8  and  C_9
REMARK    4  A    between atoms: N_11  and  C_12
REMARK    5  A    between atoms: C_12  and  N_14
REMARK    6  A    between atoms: N_14  and  N_15
REMARK    7  A    between atoms: C_16  and  C_18
REMARK    8  A    between atoms: C_18  and  O_19
REMARK    9  A    between atoms: O_19  and  C_20
REMARK                            x       y       z     vdW  Elec       q    Type
REMARK                         _______ _______ _______ _____ _____    ______ ____
ROOT
ATOM      1  C   UNL     1      -3.626  -4.903   0.012  0.00  0.00    +0.153 C 
ATOM      2  S   UNL     1      -5.123  -4.072   0.031  0.00  0.00    -0.017 S 
ENDROOT
BRANCH   1   5
ATOM      3  C   UNL     1      -2.493  -2.862   0.011  0.00  0.00    +0.242 C 
ATOM      4  O   UNL     1      -3.556  -2.271   0.025  0.00  0.00    -0.270 OA
ATOM      5  N   UNL     1      -2.470  -4.210   0.004  0.00  0.00    -0.263 N 
ATOM      6  H   UNL     1      -1.622  -4.681  -0.007  0.00  0.00    +0.157 HD
BRANCH   3   8
ATOM      7  C   UNL     1      -1.260  -0.761   0.011  0.00  0.00    +0.013 C 
ATOM      8  C   UNL     1      -1.238  -2.110   0.003  0.00  0.00    +0.068 C 
BRANCH   7  14
ATOM      9  C   UNL     1      -0.017   1.394   0.010  0.00  0.00    +0.010 A 
ATOM     10  C   UNL     1       1.170   2.096   0.002  0.00  0.00    +0.033 A 
ATOM     11  C   UNL     1       2.378   1.421  -0.013  0.00  0.00    +0.126 A 
ATOM     12  C   UNL     1       2.405   0.037  -0.022  0.00  0.00    +0.033 A 
ATOM     13  C   UNL     1       1.227  -0.679  -0.014  0.00  0.00    +0.010 A 
ATOM     14  C   UNL     1       0.002  -0.004   0.002  0.00  0.00    -0.025 A 
BRANCH  11  15
ATOM     15  N   UNL     1       3.647   2.182  -0.022  0.00  0.00    +0.056 N 
ATOM     16  O   UNL     1       3.627   3.391  -0.015  0.00  0.00    -0.126 OA
ATOM     17  O   UNL     1       4.704   1.595  -0.036  0.00  0.00    -0.126 OA
ENDBRANCH  11  15
ENDBRANCH   7  14
ENDBRANCH   3   8
ENDBRANCH   1   5
BRANCH   1  18
ATOM     18  N   UNL     1      -3.604  -6.250   0.004  0.00  0.00    -0.245 N 
ATOM     19  H   UNL     1      -4.436  -6.749   0.010  0.00  0.00    +0.172 HD
BRANCH  18  20
ATOM     20  N   UNL     1      -2.379  -6.931  -0.011  0.00  0.00    -0.232 N 
ATOM     21  C   UNL     1      -2.357  -8.278  -0.019  0.00  0.00    +0.267 C 
ATOM     22  O   UNL     1      -3.397  -8.902  -0.012  0.00  0.00    -0.271 OA
ATOM     23  H   UNL     1      -1.547  -6.432  -0.017  0.00  0.00    +0.173 HD
BRANCH  21  24
ATOM     24  C   UNL     1      -1.040  -9.010  -0.036  0.00  0.00    +0.326 C 
BRANCH  24  25
ATOM     25  O   UNL     1      -1.277 -10.419  -0.041  0.00  0.00    -0.481 OA
BRANCH  25  26
ATOM     26  C   UNL     1      -0.186 -11.229  -0.056  0.00  0.00    +0.139 A 
ATOM     27  C   UNL     1       1.087 -10.679  -0.060  0.00  0.00    +0.048 A 
ATOM     28  C   UNL     1       2.196 -11.504  -0.075  0.00  0.00    +0.019 A 
ATOM     29  C   UNL     1       2.037 -12.878  -0.086  0.00  0.00    +0.019 A 
ATOM     30  C   UNL     1       0.768 -13.430  -0.083  0.00  0.00    +0.039 A 
ATOM     31  C   UNL     1      -0.344 -12.608  -0.062  0.00  0.00    +0.084 A 
ATOM     32 CL   UNL     1      -1.936 -13.300  -0.051  0.00  0.00    -0.080 Cl
ATOM     33 BR   UNL     1       3.556 -14.004  -0.107  0.00  0.00    -0.050 Br
ENDBRANCH  25  26
ENDBRANCH  24  25
ENDBRANCH  21  24
ENDBRANCH  18  20
ENDBRANCH   1  18
TORSDOF 9
