REMARK  Name = ZINC63141149
REMARK  6 active torsions:
REMARK  status: ('A' for Active; 'I' for Inactive)
REMARK    1  A    between atoms: C_1  and  O_2
REMARK    2  A    between atoms: O_2  and  C_3
REMARK    3  A    between atoms: C_3  and  C_5
REMARK    4  A    between atoms: C_8  and  C_11
REMARK    5  A    between atoms: N_30  and  C_33
REMARK    6  A    between atoms: C_33  and  C_34
REMARK                            x       y       z     vdW  Elec       q    Type
REMARK                         _______ _______ _______ _____ _____    ______ ____
ROOT
ATOM      1  C   UNL     1       0.851  -6.357   1.260  0.00  0.00    +0.133 C 
ATOM      2  C   UNL     1      -0.127  -6.875   2.319  0.00  0.00    +0.131 C 
ATOM      3  C   UNL     1       0.441  -6.475   3.674  0.00  0.00    -0.034 C 
ATOM      4  C   UNL     1      -0.508  -5.780   4.289  0.00  0.00    -0.001 A 
ATOM      5  C   UNL     1      -0.577  -5.196   5.638  0.00  0.00    +0.010 A 
ATOM      6  C   UNL     1      -1.719  -4.525   5.943  0.00  0.00    +0.001 A 
ATOM      7  C   UNL     1      -2.786  -4.376   5.052  0.00  0.00    +0.002 A 
ATOM      8  C   UNL     1      -2.811  -4.885   3.794  0.00  0.00    +0.026 A 
ATOM      9  C   UNL     1      -1.667  -5.616   3.359  0.00  0.00    +0.043 A 
ATOM     10  N   UNL     1      -1.438  -6.231   2.214  0.00  0.00    -0.375 N 
ATOM     11  C   UNL     1       1.858  -6.797   4.083  0.00  0.00    +0.065 C 
ATOM     12  C   UNL     1       2.765  -6.338   2.927  0.00  0.00    +0.167 C 
ATOM     13  N   UNL     1       2.211  -6.790   1.653  0.00  0.00    -0.279 N 
ATOM     14  C   UNL     1       2.881  -7.589   0.815  0.00  0.00    +0.234 C 
ATOM     15  O   UNL     1       2.325  -7.924  -0.209  0.00  0.00    -0.274 OA
ATOM     16  C   UNL     1       4.265  -8.096   1.050  0.00  0.00    +0.204 C 
ATOM     17  N   UNL     1       4.821  -7.615   2.304  0.00  0.00    -0.287 N 
ATOM     18  C   UNL     1       4.156  -6.828   3.154  0.00  0.00    +0.237 C 
ATOM     19  O   UNL     1       4.719  -6.489   4.173  0.00  0.00    -0.274 OA
ATOM     20  H   UNL     1      -2.020  -6.253   1.438  0.00  0.00    +0.160 HD
ENDROOT
BRANCH   1  24
ATOM     21  C   UNL     1       0.680  -2.088   1.091  0.00  0.00    +0.059 A 
ATOM     22  C   UNL     1       1.019  -2.729   2.284  0.00  0.00    +0.015 A 
ATOM     23  C   UNL     1       1.072  -4.107   2.331  0.00  0.00    +0.006 A 
ATOM     24  C   UNL     1       0.791  -4.853   1.200  0.00  0.00    -0.025 A 
ATOM     25  C   UNL     1       0.454  -4.224   0.015  0.00  0.00    +0.006 A 
ATOM     26  C   UNL     1       0.391  -2.847  -0.045  0.00  0.00    +0.015 A 
BRANCH  21  27
ATOM     27  C   UNL     1       0.620  -0.613   1.032  0.00  0.00    +0.339 C 
ATOM     28  O   UNL     1       0.320  -0.058  -0.006  0.00  0.00    -0.245 OA
BRANCH  27  30
ATOM     29  C   UNL     1       0.823   1.538   2.002  0.00  0.00    +0.280 C 
ATOM     30  O   UNL     1       0.899   0.116   2.130  0.00  0.00    -0.464 OA
ENDBRANCH  27  30
ENDBRANCH  21  27
ENDBRANCH   1  24
BRANCH  17  31
ATOM     31  C   UNL     1       6.184  -8.019   2.657  0.00  0.00    +0.143 C 
BRANCH  31  32
ATOM     32  C   UNL     1       7.163  -7.011   2.113  0.00  0.00    -0.026 A 
ATOM     33  C   UNL     1       7.685  -7.173   0.843  0.00  0.00    +0.009 A 
ATOM     34  C   UNL     1       8.583  -6.251   0.339  0.00  0.00    +0.050 A 
ATOM     35  C   UNL     1       8.963  -5.161   1.106  0.00  0.00    +0.166 A 
ATOM     36  C   UNL     1       8.437  -4.998   2.385  0.00  0.00    +0.167 A 
ATOM     37  C   UNL     1       7.533  -5.923   2.882  0.00  0.00    +0.054 A 
ATOM     38  O   UNL     1       8.961  -3.862   2.931  0.00  0.00    -0.453 OA
ATOM     39  C   UNL     1      10.120  -3.552   2.135  0.00  0.00    +0.466 C 
ATOM     40  O   UNL     1       9.816  -4.127   0.850  0.00  0.00    -0.453 OA
ENDBRANCH  31  32
ENDBRANCH  17  31
TORSDOF 5
