REMARK  Name = ZINC16025210
REMARK  8 active torsions:
REMARK  status: ('A' for Active; 'I' for Inactive)
REMARK    1  A    between atoms: C_1  and  C_2
REMARK    2  A    between atoms: C_2  and  C_3
REMARK    3  A    between atoms: C_2  and  C_4
REMARK    4  A    between atoms: C_2  and  N_5
REMARK    5  A    between atoms: C_10  and  C_28
REMARK    6  A    between atoms: C_28  and  C_29
REMARK    7  A    between atoms: C_29  and  S_30
REMARK    8  A    between atoms: S_30  and  C_31
REMARK                            x       y       z     vdW  Elec       q    Type
REMARK                         _______ _______ _______ _____ _____    ______ ____
ROOT
ATOM      1  N   UNL     1       0.688  -0.476  -1.203  0.00  0.00    -0.236 N 
ATOM      2  C   UNL     1       0.096  -1.263  -2.151  0.00  0.00    +0.228 C 
ATOM      3  O   UNL     1      -1.091  -1.456  -2.304  0.00  0.00    -0.275 OA
ATOM      4  C   UNL     1       1.223  -1.839  -2.965  0.00  0.00    +0.107 C 
ATOM      5  C   UNL     1       1.091  -1.894  -4.492  0.00  0.00    +0.068 C 
ATOM      6  N   UNL     1       2.499  -1.655  -4.952  0.00  0.00    -0.295 NA
ATOM      7  C   UNL     1       3.183  -0.848  -3.894  0.00  0.00    +0.136 C 
ATOM      8  C   UNL     1       2.148  -0.559  -2.888  0.00  0.00    +0.122 C 
ATOM      9  C   UNL     1       1.992  -0.172  -1.505  0.00  0.00    +0.229 C 
ATOM     10  O   UNL     1       2.828   0.313  -0.773  0.00  0.00    -0.275 OA
ATOM     11  C   UNL     1       4.348  -1.629  -3.343  0.00  0.00    +0.005 A 
ATOM     12  C   UNL     1       4.445  -2.821  -2.660  0.00  0.00    +0.027 A 
ATOM     13  C   UNL     1       5.685  -3.297  -2.271  0.00  0.00    +0.041 A 
ATOM     14  C   UNL     1       6.825  -2.572  -2.571  0.00  0.00    +0.022 A 
ATOM     15  C   UNL     1       6.731  -1.379  -3.256  0.00  0.00    +0.025 A 
ATOM     16  C   UNL     1       5.486  -0.894  -3.651  0.00  0.00    +0.039 A 
ATOM     17  N   UNL     1       5.138   0.268  -4.344  0.00  0.00    -0.283 N 
ATOM     18  C   UNL     1       3.809   0.370  -4.528  0.00  0.00    +0.243 C 
ATOM     19  O   UNL     1       3.226   1.270  -5.095  0.00  0.00    -0.273 OA
ATOM     20 CL   UNL     1       5.811  -4.800  -1.410  0.00  0.00    -0.084 Cl
ATOM     21  H   UNL     1       2.982  -2.527  -5.110  0.00  0.00    +0.123 HD
ATOM     22  H   UNL     1       5.780   0.924  -4.657  0.00  0.00    +0.155 HD
ENDROOT
BRANCH   1  24
ATOM     23  C   UNL     1      -0.019   1.526   0.010  0.00  0.00    +0.031 C 
ATOM     24  C   UNL     1       0.002  -0.004   0.002  0.00  0.00    +0.036 C 
ATOM     25  C   UNL     1       0.742  -0.511   1.242  0.00  0.00    +0.031 C 
ATOM     26  C   UNL     1      -1.433  -0.534   0.013  0.00  0.00    +0.031 C 
ENDBRANCH   1  24
BRANCH   5  27
ATOM     27  C   UNL     1       0.157  -0.793  -4.996  0.00  0.00    +0.030 C 
BRANCH  27  28
ATOM     28  C   UNL     1      -0.051  -0.951  -6.504  0.00  0.00    +0.070 C 
BRANCH  28  29
ATOM     29  S   UNL     1      -1.160   0.354  -7.102  0.00  0.00    -0.164 S 
ATOM     30  C   UNL     1      -1.301   0.029  -8.880  0.00  0.00    +0.084 C 
ENDBRANCH  28  29
ENDBRANCH  27  28
ENDBRANCH   5  27
TORSDOF 4
