REMARK  Name = ZINC35228094
REMARK  12 active torsions:
REMARK  status: ('A' for Active; 'I' for Inactive)
REMARK    1  A    between atoms: C_1  and  C_2
REMARK    2  A    between atoms: C_4  and  C_32
REMARK    3  A    between atoms: C_5  and  S_9
REMARK    4  A    between atoms: C_6  and  C_8
REMARK    5  A    between atoms: S_9  and  N_12
REMARK    6  A    between atoms: N_12  and  C_13
REMARK    7  A    between atoms: C_16  and  N_25
REMARK    8  A    between atoms: C_17  and  C_19
REMARK    9  A    between atoms: N_21  and  C_22
REMARK   10  A    between atoms: C_22  and  C_23
REMARK   11  A    between atoms: C_22  and  C_24
REMARK   12  A    between atoms: C_28  and  C_31
REMARK                            x       y       z     vdW  Elec       q    Type
REMARK                         _______ _______ _______ _____ _____    ______ ____
ROOT
ATOM      1  C   UNL     1       1.767  -5.684   0.418  0.00  0.00    +0.049 A 
ATOM      2  C   UNL     1       2.130  -4.457   0.965  0.00  0.00    +0.026 A 
ATOM      3  C   UNL     1       3.198  -4.368   1.832  0.00  0.00    +0.026 A 
ATOM      4  C   UNL     1       3.921  -5.506   2.166  0.00  0.00    +0.042 A 
ATOM      5  C   UNL     1       3.562  -6.747   1.619  0.00  0.00    +0.059 A 
ATOM      6  C   UNL     1       2.474  -6.828   0.746  0.00  0.00    +0.039 A 
ENDROOT
BRANCH   4   7
ATOM      7  N   UNL     1       5.000  -5.416   3.041  0.00  0.00    -0.329 N 
ATOM      8  C   UNL     1       4.816  -5.637   4.482  0.00  0.00    +0.105 C 
ATOM      9  C   UNL     1       5.378  -4.432   5.242  0.00  0.00    +0.022 C 
ATOM     10  C   UNL     1       6.832  -4.202   4.822  0.00  0.00    -0.011 C 
ATOM     11  C   UNL     1       6.890  -3.898   3.323  0.00  0.00    +0.022 C 
ATOM     12  C   UNL     1       6.345  -5.103   2.541  0.00  0.00    +0.105 C 
ATOM     13  C   UNL     1       7.408  -3.020   5.604  0.00  0.00    +0.007 C 
ENDBRANCH   4   7
BRANCH   5  14
ATOM     14  C   UNL     1       4.324  -7.960   1.969  0.00  0.00    +0.246 C 
ATOM     15  O   UNL     1       5.208  -7.903   2.801  0.00  0.00    -0.270 OA
ATOM     16  N   UNL     1       4.039  -9.131   1.366  0.00  0.00    -0.309 N 
ATOM     17  H   UNL     1       3.333  -9.176   0.702  0.00  0.00    +0.149 HD
BRANCH  16  18
ATOM     18  C   UNL     1       4.796 -10.336   1.713  0.00  0.00    +0.067 C 
ATOM     19  C   UNL     1       3.947 -11.575   1.418  0.00  0.00    +0.027 C 
ATOM     20  C   UNL     1       6.080 -10.389   0.882  0.00  0.00    +0.027 C 
ENDBRANCH  16  18
ENDBRANCH   5  14
BRANCH   1  21
ATOM     21  N   UNL     1       0.680  -5.763  -0.461  0.00  0.00    -0.216 N 
ATOM     22  H   UNL     1       0.764  -6.258  -1.292  0.00  0.00    +0.174 HD
BRANCH  21  23
ATOM     23  S   UNL     1      -0.747  -5.014  -0.083  0.00  0.00    +0.073 S 
ATOM     24  O   UNL     1      -1.019  -5.321   1.277  0.00  0.00    -0.150 OA
ATOM     25  O   UNL     1      -1.657  -5.321  -1.131  0.00  0.00    -0.150 OA
BRANCH  23  30
ATOM     26  C   UNL     1       0.242   0.933  -0.343  0.00  0.00    +0.044 C 
ATOM     27  C   UNL     1      -0.005  -0.552  -0.278  0.00  0.00    -0.050 A 
ATOM     28  C   UNL     1      -0.006  -1.200   0.943  0.00  0.00    +0.008 A 
ATOM     29  C   UNL     1      -0.233  -2.562   1.003  0.00  0.00    -0.023 A 
ATOM     30  C   UNL     1      -0.459  -3.277  -0.159  0.00  0.00    +0.114 A 
ATOM     31  C   UNL     1      -0.459  -2.629  -1.380  0.00  0.00    -0.023 A 
ATOM     32  C   UNL     1      -0.236  -1.266  -1.439  0.00  0.00    +0.008 A 
ATOM     33  C   UNL     1      -0.704  -3.408  -2.647  0.00  0.00    +0.046 C 
ATOM     34  C   UNL     1      -0.234  -3.269   2.334  0.00  0.00    +0.046 C 
ENDBRANCH  23  30
ENDBRANCH  21  23
ENDBRANCH   1  21
TORSDOF 6
