REMARK  Name = ZINC58040385
REMARK  8 active torsions:
REMARK  status: ('A' for Active; 'I' for Inactive)
REMARK    1  A    between atoms: C_1  and  C_2
REMARK    2  A    between atoms: C_2  and  C_3
REMARK    3  A    between atoms: C_2  and  S_4
REMARK    4  A    between atoms: S_4  and  C_7
REMARK    5  A    between atoms: C_7  and  C_8
REMARK    6  A    between atoms: C_7  and  C_9
REMARK    7  A    between atoms: N_11  and  N_12
REMARK    8  A    between atoms: C_13  and  C_15
REMARK                            x       y       z     vdW  Elec       q    Type
REMARK                         _______ _______ _______ _____ _____    ______ ____
ROOT
ATOM      1  N   UNL     1      -5.657  -0.906  -3.165  0.00  0.00    -0.230 N 
ATOM      2  C   UNL     1      -6.202  -1.038  -4.391  0.00  0.00    +0.267 C 
ATOM      3  O   UNL     1      -5.512  -0.893  -5.382  0.00  0.00    -0.268 OA
ATOM      4  H   UNL     1      -6.208  -1.021  -2.374  0.00  0.00    +0.173 HD
ENDROOT
BRANCH   2   5
ATOM      5  C   UNL     1      -7.626  -1.355  -4.529  0.00  0.00    +0.076 A 
ATOM      6  C   UNL     1      -8.371  -1.537  -5.678  0.00  0.00    +0.024 A 
ATOM      7  C   UNL     1      -9.722  -1.833  -5.516  0.00  0.00    -0.036 A 
ATOM      8  C   UNL     1     -10.175  -1.913  -4.237  0.00  0.00    -0.006 A 
ATOM      9  S   UNL     1      -8.849  -1.617  -3.260  0.00  0.00    -0.088 S 
ATOM     10  C   UNL     1     -11.571  -2.208  -3.774  0.00  0.00    +0.043 C 
ATOM     11  C   UNL     1     -12.280  -3.082  -4.813  0.00  0.00    +0.005 C 
ATOM     12  C   UNL     1     -12.964  -2.172  -5.829  0.00  0.00    +0.001 C 
ATOM     13  C   UNL     1     -11.938  -1.298  -6.545  0.00  0.00    +0.005 C 
ATOM     14  C   UNL     1     -10.626  -2.056  -6.723  0.00  0.00    +0.036 C 
ENDBRANCH   2   5
BRANCH   1  17
ATOM     15  C   UNL     1      -3.751  -0.470  -1.807  0.00  0.00    +0.253 C 
ATOM     16  O   UNL     1      -4.439  -0.615  -0.818  0.00  0.00    -0.272 OA
ATOM     17  N   UNL     1      -4.296  -0.602  -3.032  0.00  0.00    -0.233 N 
ATOM     18  H   UNL     1      -3.746  -0.487  -3.823  0.00  0.00    +0.173 HD
BRANCH  15  19
ATOM     19  C   UNL     1      -2.287  -0.144  -1.664  0.00  0.00    +0.214 C 
ATOM     20  C   UNL     1      -2.091   1.371  -1.753  0.00  0.00    +0.042 C 
BRANCH  19  21
ATOM     21  S   UNL     1      -1.689  -0.737  -0.058  0.00  0.00    -0.018 S 
ATOM     22  O   UNL     1      -1.824  -2.151  -0.022  0.00  0.00    -0.173 OA
ATOM     23  O   UNL     1      -2.297   0.041   0.964  0.00  0.00    -0.173 OA
BRANCH  21  25
ATOM     24  C   UNL     1       0.740  -0.753   1.200  0.00  0.00    +0.031 C 
ATOM     25  C   UNL     1       0.078  -0.331  -0.113  0.00  0.00    +0.125 C 
ATOM     26  C   UNL     1       0.736  -1.075  -1.277  0.00  0.00    +0.031 C 
ENDBRANCH  21  25
ENDBRANCH  19  21
ENDBRANCH  15  19
ENDBRANCH   1  17
TORSDOF 5
