REMARK  Name = ZINC21788130
REMARK  8 active torsions:
REMARK  status: ('A' for Active; 'I' for Inactive)
REMARK    1  A    between atoms: C_1  and  C_2
REMARK    2  A    between atoms: C_5  and  N_9
REMARK    3  A    between atoms: C_12  and  C_14
REMARK    4  A    between atoms: C_15  and  C_22
REMARK    5  A    between atoms: C_24  and  O_30
REMARK    6  A    between atoms: C_27  and  O_28
REMARK    7  A    between atoms: O_28  and  C_29
REMARK    8  A    between atoms: O_30  and  C_31
REMARK                            x       y       z     vdW  Elec       q    Type
REMARK                         _______ _______ _______ _____ _____    ______ ____
ROOT
ATOM      1  N   UNL     1      -1.147  -0.941   0.025  0.00  0.00    -0.218 N 
ATOM      2  C   UNL     1      -1.515  -1.914  -0.878  0.00  0.00    +0.133 A 
ATOM      3  C   UNL     1      -2.797  -2.240  -0.607  0.00  0.00    +0.033 A 
ATOM      4  C   UNL     1      -3.225  -1.442   0.476  0.00  0.00    +0.067 A 
ATOM      5  N   UNL     1      -2.242  -0.673   0.847  0.00  0.00    -0.170 NA
ATOM      6  C   UNL     1      -4.596  -1.476   1.102  0.00  0.00    +0.068 C 
ATOM      7  C   UNL     1      -3.700  -3.237  -1.263  0.00  0.00    +0.115 C 
ATOM      8  S   UNL     1      -2.839  -4.699  -1.846  0.00  0.00    -0.138 S 
ATOM      9  C   UNL     1      -1.785  -4.149  -3.195  0.00  0.00    +0.166 C 
ATOM     10  C   UNL     1      -0.667  -3.295  -2.742  0.00  0.00    +0.228 C 
ATOM     11  O   UNL     1       0.382  -3.477  -3.323  0.00  0.00    -0.275 OA
ATOM     12  N   UNL     1      -0.630  -2.380  -1.821  0.00  0.00    -0.269 N 
ATOM     13  H   UNL     1       0.376  -1.940  -1.896  0.00  0.00    +0.156 HD
ENDROOT
BRANCH   1  18
ATOM     14  C   UNL     1       3.937   1.565   0.331  0.00  0.00    +0.045 C 
ATOM     15  C   UNL     1       2.587   0.899   0.250  0.00  0.00    -0.032 A 
ATOM     16  C   UNL     1       1.988   0.703  -0.981  0.00  0.00    +0.007 A 
ATOM     17  C   UNL     1       0.751   0.093  -1.058  0.00  0.00    +0.028 A 
ATOM     18  C   UNL     1       0.109  -0.323   0.101  0.00  0.00    +0.069 A 
ATOM     19  C   UNL     1       0.712  -0.124   1.335  0.00  0.00    +0.048 A 
ATOM     20  C   UNL     1       1.950   0.486   1.407  0.00  0.00    +0.046 A 
ATOM     21 CL   UNL     1       2.707   0.735   2.950  0.00  0.00    -0.083 Cl
ENDBRANCH   1  18
BRANCH   7  22
ATOM     22  C   UNL     1      -4.755  -3.659  -0.273  0.00  0.00    +0.015 A 
ATOM     23  C   UNL     1      -6.038  -3.156  -0.373  0.00  0.00    +0.054 A 
ATOM     24  C   UNL     1      -7.010  -3.549   0.535  0.00  0.00    +0.121 A 
ATOM     25  C   UNL     1      -6.691  -4.438   1.550  0.00  0.00    +0.049 A 
ATOM     26  C   UNL     1      -5.407  -4.938   1.654  0.00  0.00    +0.049 A 
ATOM     27  C   UNL     1      -4.437  -4.549   0.742  0.00  0.00    +0.125 A 
BRANCH  27  28
ATOM     28  O   UNL     1      -3.173  -5.041   0.843  0.00  0.00    -0.495 OA
ATOM     29  C   UNL     1      -2.915  -5.953   1.913  0.00  0.00    +0.277 C 
ENDBRANCH  27  28
BRANCH  24  30
ATOM     30  O   UNL     1      -8.273  -3.057   0.434  0.00  0.00    -0.495 OA
ATOM     31  C   UNL     1      -9.222  -3.500   1.407  0.00  0.00    +0.277 C 
ENDBRANCH  24  30
ENDBRANCH   7  22
TORSDOF 4
