REMARK  Name = ZINC63021286
REMARK  4 active torsions:
REMARK  status: ('A' for Active; 'I' for Inactive)
REMARK    1  A    between atoms: C_1  and  C_2
REMARK    2  A    between atoms: C_5  and  C_9
REMARK    3  A    between atoms: C_9  and  C_11
REMARK    4  A    between atoms: C_9  and  N_22
REMARK                            x       y       z     vdW  Elec       q    Type
REMARK                         _______ _______ _______ _____ _____    ______ ____
ROOT
ATOM      1  C   UNL     1       0.060  -4.276  -0.023  0.00  0.00    -0.013 C 
ENDROOT
BRANCH   1   2
ATOM      2  C   UNL     1      -1.332  -4.798   0.228  0.00  0.00    -0.054 A 
ATOM      3  C   UNL     1      -1.830  -4.841   1.516  0.00  0.00    +0.006 A 
ATOM      4  C   UNL     1      -3.106  -5.319   1.754  0.00  0.00    +0.049 A 
ATOM      5  C   UNL     1      -3.884  -5.755   0.695  0.00  0.00    +0.162 A 
ATOM      6  C   UNL     1      -3.384  -5.712  -0.599  0.00  0.00    +0.162 A 
ATOM      7  C   UNL     1      -2.108  -5.228  -0.834  0.00  0.00    +0.051 A 
ATOM      8  O   UNL     1      -4.160  -6.142  -1.636  0.00  0.00    -0.488 OA
ATOM      9  C   UNL     1      -4.429  -7.545  -1.675  0.00  0.00    +0.232 C 
ATOM     10  C   UNL     1      -5.616  -7.891  -0.790  0.00  0.00    +0.082 C 
ATOM     11  C   UNL     1      -5.339  -7.623   0.681  0.00  0.00    +0.232 C 
ATOM     12  O   UNL     1      -5.146  -6.227   0.915  0.00  0.00    -0.488 OA
ENDBRANCH   1   2
BRANCH   1  17
ATOM     13  C   UNL     1      -0.018   1.503   0.010  0.00  0.00    +0.045 C 
ATOM     14  C   UNL     1       0.002  -0.004   0.002  0.00  0.00    -0.032 A 
ATOM     15  C   UNL     1       0.006  -0.689  -1.199  0.00  0.00    +0.005 A 
ATOM     16  C   UNL     1       0.025  -2.071  -1.207  0.00  0.00    +0.002 A 
ATOM     17  C   UNL     1       0.040  -2.769  -0.013  0.00  0.00    -0.056 A 
ATOM     18  C   UNL     1       0.036  -2.086   1.188  0.00  0.00    +0.022 A 
ATOM     19  C   UNL     1       0.023  -0.702   1.196  0.00  0.00    +0.044 A 
ATOM     20 CL   UNL     1       0.025   0.157   2.704  0.00  0.00    -0.083 Cl
ENDBRANCH   1  17
BRANCH   1  21
ATOM     21  N   UNL     1       0.962  -4.760   1.031  0.00  0.00    +0.385 N 
ATOM     22  H   UNL     1       0.975  -5.769   1.024  0.00  0.00    -0.089 HD
ATOM     23  H   UNL     1       1.893  -4.411   0.863  0.00  0.00    -0.089 HD
ATOM     24  H   UNL     1       0.636  -4.434   1.928  0.00  0.00    -0.089 HD
ENDBRANCH   1  21
TORSDOF 3
