REMARK  Name = ZINC01103847
REMARK  6 active torsions:
REMARK  status: ('A' for Active; 'I' for Inactive)
REMARK    1  A    between atoms: C_6  and  C_7
REMARK    2  A    between atoms: C_10  and  C_12
REMARK    3  A    between atoms: C_13  and  C_14
REMARK    4  A    between atoms: C_13  and  C_16
REMARK    5  A    between atoms: N_18  and  C_19
REMARK    6  A    between atoms: C_20  and  C_28
REMARK                            x       y       z     vdW  Elec       q    Type
REMARK                         _______ _______ _______ _____ _____    ______ ____
ROOT
ATOM      1  C   UNL     1      -3.445   3.033   0.067  0.00  0.00    +0.259 C 
ATOM      2  O   UNL     1      -2.699   2.086   0.236  0.00  0.00    -0.269 OA
ATOM      3  N   UNL     1      -4.762   2.826  -0.126  0.00  0.00    -0.275 N 
ATOM      4  H   UNL     1      -5.436   3.682  -0.279  0.00  0.00    +0.156 HD
ENDROOT
BRANCH   3   5
ATOM      5  C   UNL     1      -5.268   1.537  -0.133  0.00  0.00    +0.085 A 
ATOM      6  C   UNL     1      -6.582   1.127  -0.308  0.00  0.00    +0.068 A 
ATOM      7  C   UNL     1      -6.850  -0.301  -0.275  0.00  0.00    -0.023 A 
ATOM      8  C   UNL     1      -5.770  -1.084  -0.063  0.00  0.00    -0.004 A 
ATOM      9  S   UNL     1      -4.414   0.045   0.084  0.00  0.00    -0.077 S 
ATOM     10  C   UNL     1      -5.742  -2.579   0.027  0.00  0.00    +0.043 C 
ATOM     11  C   UNL     1      -7.181  -3.080   0.215  0.00  0.00    +0.005 C 
ATOM     12  C   UNL     1      -8.082  -2.388  -0.812  0.00  0.00    +0.005 C 
ATOM     13  C   UNL     1      -8.236  -0.908  -0.457  0.00  0.00    +0.037 C 
BRANCH   6  14
ATOM     14  C   UNL     1      -7.660   2.097  -0.523  0.00  0.00    +0.244 C 
ATOM     15  O   UNL     1      -7.951   2.444  -1.653  0.00  0.00    -0.270 OA
ATOM     16  N   UNL     1      -8.328   2.606   0.531  0.00  0.00    -0.325 N 
ATOM     17  H   UNL     1      -9.136   3.334   0.370  0.00  0.00    +0.145 HD
ATOM     18  H   UNL     1      -8.065   2.293   1.552  0.00  0.00    +0.145 HD
ENDBRANCH   6  14
ENDBRANCH   3   5
BRANCH   1  20
ATOM     19  C   UNL     1      -3.005   5.176   1.220  0.00  0.00    +0.070 C 
ATOM     20  C   UNL     1      -2.909   4.399   0.074  0.00  0.00    +0.117 C 
BRANCH  19  24
ATOM     21  C   UNL     1      -4.363   3.177   3.830  0.00  0.00    +0.136 A 
ATOM     22  C   UNL     1      -4.098   4.328   4.541  0.00  0.00    +0.050 A 
ATOM     23  C   UNL     1      -3.546   5.244   3.646  0.00  0.00    +0.050 A 
ATOM     24  C   UNL     1      -3.493   4.614   2.411  0.00  0.00    +0.130 A 
ATOM     25  O   UNL     1      -3.988   3.365   2.553  0.00  0.00    -0.455 OA
BRANCH  21  31
ATOM     26  C   UNL     1      -5.292   1.868   5.734  0.00  0.00    +0.012 A 
ATOM     27  C   UNL     1      -5.849   0.713   6.240  0.00  0.00    +0.016 A 
ATOM     28  C   UNL     1      -6.064  -0.376   5.412  0.00  0.00    +0.018 A 
ATOM     29  C   UNL     1      -5.726  -0.312   4.071  0.00  0.00    +0.016 A 
ATOM     30  C   UNL     1      -5.173   0.839   3.550  0.00  0.00    +0.012 A 
ATOM     31  C   UNL     1      -4.954   1.942   4.380  0.00  0.00    +0.017 A 
ATOM     32 BR   UNL     1      -6.821  -1.959   6.117  0.00  0.00    -0.050 Br
ENDBRANCH  21  31
ENDBRANCH  19  24
BRANCH  20  33
ATOM     33  C   UNL     1      -2.288   4.930  -1.102  0.00  0.00    +0.104 C 
ATOM     34  N   UNL     1      -1.795   5.352  -2.034  0.00  0.00    -0.191 NA
ENDBRANCH  20  33
ENDBRANCH   1  20
TORSDOF 6
