REMARK  Name = ZINC14771015
REMARK  10 active torsions:
REMARK  status: ('A' for Active; 'I' for Inactive)
REMARK    1  A    between atoms: C_1  and  C_2
REMARK    2  A    between atoms: C_2  and  O_3
REMARK    3  A    between atoms: O_3  and  C_4
REMARK    4  A    between atoms: C_7  and  C_11
REMARK    5  A    between atoms: N_13  and  C_14
REMARK    6  A    between atoms: C_14  and  N_16
REMARK    7  A    between atoms: N_16  and  N_17
REMARK    8  A    between atoms: C_18  and  C_20
REMARK    9  A    between atoms: C_20  and  O_21
REMARK   10  A    between atoms: O_21  and  C_22
REMARK                            x       y       z     vdW  Elec       q    Type
REMARK                         _______ _______ _______ _____ _____    ______ ____
ROOT
ATOM      1  C   UNL     1       2.320   1.243  -0.013  0.00  0.00    +0.153 C 
ATOM      2  S   UNL     1       2.343  -0.469  -0.023  0.00  0.00    -0.017 S 
ENDROOT
BRANCH   1   5
ATOM      3  C   UNL     1      -0.014   1.211   0.009  0.00  0.00    +0.250 C 
ATOM      4  O   UNL     1       0.002  -0.004   0.002  0.00  0.00    -0.270 OA
ATOM      5  N   UNL     1       1.143   1.901   0.001  0.00  0.00    -0.263 N 
ATOM      6  H   UNL     1       1.130   2.871   0.007  0.00  0.00    +0.157 HD
BRANCH   3  10
ATOM      7  C   UNL     1      -3.720   3.285   0.039  0.00  0.00    +0.134 A 
ATOM      8  C   UNL     1      -2.526   3.998   0.037  0.00  0.00    +0.047 A 
ATOM      9  C   UNL     1      -1.323   3.329   0.032  0.00  0.00    +0.017 A 
ATOM     10  C   UNL     1      -1.302   1.931   0.019  0.00  0.00    +0.038 A 
ATOM     11  C   UNL     1      -2.504   1.218   0.021  0.00  0.00    +0.032 A 
ATOM     12  C   UNL     1      -3.704   1.895   0.030  0.00  0.00    +0.060 A 
ATOM     13 BR   UNL     1      -5.331   0.931   0.033  0.00  0.00    -0.046 Br
BRANCH   7  14
ATOM     14  O   UNL     1      -4.904   3.949   0.049  0.00  0.00    -0.491 OA
BRANCH  14  16
ATOM     15  C   UNL     1      -6.269   5.943   0.067  0.00  0.00    +0.048 C 
ATOM     16  C   UNL     1      -4.848   5.376   0.057  0.00  0.00    +0.226 C 
ENDBRANCH  14  16
ENDBRANCH   7  14
ENDBRANCH   3  10
ENDBRANCH   1   5
BRANCH   1  17
ATOM     17  N   UNL     1       3.478   1.933  -0.021  0.00  0.00    -0.245 N 
ATOM     18  H   UNL     1       4.324   1.459  -0.031  0.00  0.00    +0.172 HD
BRANCH  17  19
ATOM     19  N   UNL     1       3.459   3.334  -0.013  0.00  0.00    -0.232 N 
ATOM     20  C   UNL     1       4.617   4.023  -0.020  0.00  0.00    +0.267 C 
ATOM     21  O   UNL     1       5.675   3.431  -0.034  0.00  0.00    -0.271 OA
ATOM     22  H   UNL     1       2.612   3.807  -0.002  0.00  0.00    +0.173 HD
BRANCH  20  23
ATOM     23  C   UNL     1       4.596   5.530  -0.012  0.00  0.00    +0.326 C 
BRANCH  23  24
ATOM     24  O   UNL     1       5.937   6.025  -0.022  0.00  0.00    -0.481 OA
BRANCH  24  25
ATOM     25  C   UNL     1       6.096   7.375  -0.017  0.00  0.00    +0.139 A 
ATOM     26  C   UNL     1       4.986   8.206  -0.007  0.00  0.00    +0.047 A 
ATOM     27  C   UNL     1       5.151   9.577   0.004  0.00  0.00    +0.004 A 
ATOM     28  C   UNL     1       6.421  10.123  -0.005  0.00  0.00    +0.002 A 
ATOM     29  C   UNL     1       7.530   9.297  -0.020  0.00  0.00    +0.023 A 
ATOM     30  C   UNL     1       7.371   7.924  -0.026  0.00  0.00    +0.083 A 
ATOM     31 CL   UNL     1       8.764   6.888  -0.045  0.00  0.00    -0.080 Cl
ENDBRANCH  24  25
ENDBRANCH  23  24
ENDBRANCH  20  23
ENDBRANCH  17  19
ENDBRANCH   1  17
TORSDOF 9
