REMARK  Name = ZINC27842189
REMARK  12 active torsions:
REMARK  status: ('A' for Active; 'I' for Inactive)
REMARK    1  A    between atoms: C_1  and  O_2
REMARK    2  A    between atoms: O_2  and  C_3
REMARK    3  A    between atoms: C_3  and  C_5
REMARK    4  A    between atoms: C_5  and  C_6
REMARK    5  A    between atoms: C_6  and  C_8
REMARK    6  A    between atoms: C_6  and  N_22
REMARK    7  A    between atoms: C_11  and  O_14
REMARK    8  A    between atoms: O_14  and  C_15
REMARK    9  A    between atoms: C_15  and  C_16
REMARK   10  A    between atoms: N_22  and  C_23
REMARK   11  A    between atoms: N_33  and  C_34
REMARK   12  A    between atoms: C_34  and  C_35
REMARK                            x       y       z     vdW  Elec       q    Type
REMARK                         _______ _______ _______ _____ _____    ______ ____
ROOT
ATOM      1  N   UNL     1       7.253   7.586  -1.200  0.00  0.00    +0.399 N 
ATOM      2  H   UNL     1       6.735   7.142  -0.337  0.00  0.00    -0.082 HD
ATOM      3  H   UNL     1       8.249   7.936  -0.889  0.00  0.00    -0.082 HD
ENDROOT
BRANCH   1   4
ATOM      4  C   UNL     1       6.476   8.739  -1.674  0.00  0.00    +0.048 C 
ATOM      5  C   UNL     1       6.003   9.563  -0.507  0.00  0.00    -0.058 C 
ATOM      6  C   UNL     1       6.533  10.781  -0.640  0.00  0.00    +0.014 C 
ATOM      7  C   UNL     1       6.297  11.911   0.335  0.00  0.00    +0.040 C 
ATOM      8  C   UNL     1       5.076  11.565   1.195  0.00  0.00    +0.005 C 
ATOM      9  C   UNL     1       5.234  10.151   1.761  0.00  0.00    +0.005 C 
ATOM     10  C   UNL     1       5.106   9.132   0.622  0.00  0.00    +0.031 C 
ATOM     11  C   UNL     1       7.352  10.827  -1.854  0.00  0.00    +0.242 C 
ATOM     12  O   UNL     1       7.964  11.803  -2.245  0.00  0.00    -0.270 OA
ATOM     13  N   UNL     1       7.328   9.631  -2.474  0.00  0.00    -0.304 N 
BRANCH  13  14
ATOM     14  C   UNL     1       8.023   9.284  -3.716  0.00  0.00    +0.141 C 
BRANCH  14  15
ATOM     15  C   UNL     1       7.080   9.443  -4.881  0.00  0.00    -0.030 A 
ATOM     16  C   UNL     1       6.230   8.410  -5.228  0.00  0.00    +0.008 A 
ATOM     17  C   UNL     1       5.361   8.557  -6.293  0.00  0.00    +0.038 A 
ATOM     18  C   UNL     1       5.351   9.736  -7.019  0.00  0.00    +0.123 A 
ATOM     19  C   UNL     1       6.206  10.768  -6.674  0.00  0.00    +0.038 A 
ATOM     20  C   UNL     1       7.070  10.621  -5.605  0.00  0.00    +0.008 A 
ATOM     21  F   UNL     1       4.505   9.878  -8.063  0.00  0.00    -0.205 F 
ENDBRANCH  14  15
ENDBRANCH  13  14
ENDBRANCH   1   4
BRANCH   1  22
ATOM     22  C   UNL     1       7.397   6.577  -2.257  0.00  0.00    -0.027 C 
BRANCH  22  23
ATOM     23  C   UNL     1       6.168   5.706  -2.292  0.00  0.00    -0.061 A 
ATOM     24  C   UNL     1       5.638   5.308  -3.505  0.00  0.00    +0.005 A 
ATOM     25  C   UNL     1       4.511   4.509  -3.539  0.00  0.00    +0.046 A 
ATOM     26  C   UNL     1       3.911   4.107  -2.354  0.00  0.00    +0.121 A 
ATOM     27  C   UNL     1       4.441   4.513  -1.138  0.00  0.00    +0.046 A 
ATOM     28  C   UNL     1       5.572   5.307  -1.109  0.00  0.00    +0.005 A 
BRANCH  26  29
ATOM     29  O   UNL     1       2.802   3.322  -2.385  0.00  0.00    -0.487 OA
BRANCH  29  30
ATOM     30  C   UNL     1       2.238   2.947  -1.127  0.00  0.00    +0.264 C 
BRANCH  30  31
ATOM     31  C   UNL     1       1.025   2.084  -1.358  0.00  0.00    -0.010 A 
ATOM     32  C   UNL     1       1.160   0.711  -1.445  0.00  0.00    +0.007 A 
ATOM     33  C   UNL     1       0.047  -0.081  -1.657  0.00  0.00    +0.000 A 
ATOM     34  C   UNL     1      -1.201   0.500  -1.787  0.00  0.00    +0.000 A 
ATOM     35  C   UNL     1      -1.337   1.873  -1.694  0.00  0.00    +0.000 A 
ATOM     36  C   UNL     1      -0.224   2.665  -1.482  0.00  0.00    +0.007 A 
ENDBRANCH  30  31
ENDBRANCH  29  30
ENDBRANCH  26  29
ENDBRANCH  22  23
BRANCH  22  37
ATOM     37  C   UNL     1       8.627   5.712  -1.973  0.00  0.00    +0.109 C 
BRANCH  37  38
ATOM     38  C   UNL     1       9.863   6.574  -1.994  0.00  0.00    +0.306 C 
ATOM     39  O   UNL     1       9.762   7.773  -2.102  0.00  0.00    -0.251 OA
BRANCH  38  41
ATOM     40  C   UNL     1      12.216   6.906  -1.807  0.00  0.00    +0.280 C 
ATOM     41  O   UNL     1      11.077   6.010  -1.894  0.00  0.00    -0.468 OA
ENDBRANCH  38  41
ENDBRANCH  37  38
ENDBRANCH  22  37
ENDBRANCH   1  22
TORSDOF 11
