REMARK  Name = ZINC08759173
REMARK  11 active torsions:
REMARK  status: ('A' for Active; 'I' for Inactive)
REMARK    1  A    between atoms: C_1  and  C_2
REMARK    2  A    between atoms: C_2  and  C_3
REMARK    3  A    between atoms: C_3  and  C_4
REMARK    4  A    between atoms: C_4  and  C_5
REMARK    5  A    between atoms: C_5  and  C_6
REMARK    6  A    between atoms: C_6  and  N_7
REMARK    7  A    between atoms: C_16  and  S_17
REMARK    8  A    between atoms: S_17  and  C_18
REMARK    9  A    between atoms: C_18  and  C_19
REMARK   10  A    between atoms: N_21  and  C_22
REMARK   11  A    between atoms: C_23  and  C_27
REMARK                            x       y       z     vdW  Elec       q    Type
REMARK                         _______ _______ _______ _____ _____    ______ ____
ROOT
ATOM      1  N   UNL     1      -0.698   1.558   1.213  0.00  0.00    -0.287 N 
ATOM      2  C   UNL     1      -1.672   0.804   1.758  0.00  0.00    +0.263 A 
ATOM      3  O   UNL     1      -1.983  -0.262   1.256  0.00  0.00    -0.267 OA
ATOM      4  C   UNL     1      -2.334   1.274   2.935  0.00  0.00    +0.076 A 
ATOM      5  C   UNL     1      -3.416   0.618   3.688  0.00  0.00    -0.023 A 
ATOM      6  C   UNL     1      -3.879   1.262   4.772  0.00  0.00    -0.004 A 
ATOM      7  S   UNL     1      -2.925   2.760   4.860  0.00  0.00    -0.073 S 
ATOM      8  C   UNL     1      -1.901   2.512   3.433  0.00  0.00    +0.117 A 
ATOM      9  N   UNL     1      -0.933   3.208   2.848  0.00  0.00    -0.216 NA
ATOM     10  C   UNL     1      -0.335   2.752   1.766  0.00  0.00    +0.173 A 
ATOM     11  C   UNL     1      -4.976   0.497   5.462  0.00  0.00    +0.043 C 
ATOM     12  C   UNL     1      -4.856  -0.940   4.907  0.00  0.00    +0.010 C 
ATOM     13  C   UNL     1      -4.197  -0.690   3.536  0.00  0.00    +0.037 C 
ENDROOT
BRANCH   1  14
ATOM     14  C   UNL     1      -0.013   1.086   0.008  0.00  0.00    +0.127 C 
BRANCH  14  15
ATOM     15  C   UNL     1      -0.753   1.593  -1.232  0.00  0.00    +0.022 C 
BRANCH  15  16
ATOM     16  C   UNL     1      -0.037   1.099  -2.490  0.00  0.00    +0.002 C 
BRANCH  16  17
ATOM     17  C   UNL     1      -0.777   1.606  -3.730  0.00  0.00    -0.000 C 
BRANCH  17  19
ATOM     18  C   UNL     1      -0.800   1.619  -6.228  0.00  0.00    +0.004 C 
ATOM     19  C   UNL     1      -0.060   1.113  -4.989  0.00  0.00    -0.003 C 
ENDBRANCH  17  19
ENDBRANCH  16  17
ENDBRANCH  15  16
ENDBRANCH  14  15
ENDBRANCH   1  14
BRANCH  10  20
ATOM     20  S   UNL     1       0.950   3.699   1.020  0.00  0.00    -0.078 S 
BRANCH  20  21
ATOM     21  C   UNL     1       0.989   5.117   2.144  0.00  0.00    +0.173 C 
BRANCH  21  22
ATOM     22  C   UNL     1       2.047   6.090   1.690  0.00  0.00    +0.228 C 
ATOM     23  O   UNL     1       2.709   5.848   0.703  0.00  0.00    -0.275 OA
ATOM     24  N   UNL     1       2.257   7.228   2.380  0.00  0.00    -0.279 N 
ATOM     25  H   UNL     1       1.727   7.421   3.170  0.00  0.00    +0.155 HD
BRANCH  24  26
ATOM     26  C   UNL     1       3.230   8.123   1.962  0.00  0.00    +0.084 A 
ATOM     27  C   UNL     1       3.586   9.339   2.532  0.00  0.00    +0.065 A 
ATOM     28  C   UNL     1       4.647  10.073   1.885  0.00  0.00    +0.022 A 
ATOM     29  C   UNL     1       5.191   9.524   0.784  0.00  0.00    +0.048 A 
ATOM     30  S   UNL     1       4.290   8.000   0.598  0.00  0.00    -0.081 S 
BRANCH  27  31
ATOM     31  C   UNL     1       2.920   9.850   3.734  0.00  0.00    +0.244 C 
ATOM     32  O   UNL     1       2.030   9.205   4.257  0.00  0.00    -0.270 OA
ATOM     33  N   UNL     1       3.292  11.034   4.259  0.00  0.00    -0.325 N 
ATOM     34  H   UNL     1       4.001  11.548   3.842  0.00  0.00    +0.145 HD
ATOM     35  H   UNL     1       2.852  11.372   5.054  0.00  0.00    +0.145 HD
ENDBRANCH  27  31
ENDBRANCH  24  26
ENDBRANCH  21  22
ENDBRANCH  20  21
ENDBRANCH  10  20
TORSDOF 10
