REMARK  Name = ZINC11349004
REMARK  10 active torsions:
REMARK  status: ('A' for Active; 'I' for Inactive)
REMARK    1  A    between atoms: C_1  and  C_2
REMARK    2  A    between atoms: C_2  and  C_3
REMARK    3  A    between atoms: C_3  and  N_4
REMARK    4  A    between atoms: N_4  and  C_5
REMARK    5  A    between atoms: N_4  and  C_16
REMARK    6  A    between atoms: C_5  and  C_6
REMARK    7  A    between atoms: C_9  and  C_12
REMARK    8  A    between atoms: C_17  and  N_32
REMARK    9  A    between atoms: N_18  and  C_25
REMARK   10  A    between atoms: C_25  and  C_26
REMARK                            x       y       z     vdW  Elec       q    Type
REMARK                         _______ _______ _______ _____ _____    ______ ____
ROOT
ATOM      1  C   UNL     1       3.293   2.715   1.169  0.00  0.00    +0.134 A 
ATOM      2  C   UNL     1       2.007   2.246   1.189  0.00  0.00    +0.127 A 
ATOM      3  N   UNL     1       1.356   2.010  -0.000  0.00  0.00    -0.276 N 
ATOM      4  C   UNL     1       1.972   2.248  -1.172  0.00  0.00    +0.331 A 
ATOM      5  O   UNL     1       1.380   2.038  -2.213  0.00  0.00    -0.246 OA
ATOM      6  N   UNL     1       3.234   2.713  -1.211  0.00  0.00    -0.273 N 
ATOM      7  H   UNL     1       3.673   2.883  -2.093  0.00  0.00    +0.173 HD
ATOM      8  C   UNL     1       3.912   2.954  -0.071  0.00  0.00    +0.277 A 
ATOM      9  O   UNL     1       5.055   3.376  -0.115  0.00  0.00    -0.266 OA
ENDROOT
BRANCH   2  10
ATOM     10  N   UNL     1       1.374   2.007   2.388  0.00  0.00    -0.343 N 
ATOM     11  H   UNL     1       0.464   1.671   2.397  0.00  0.00    +0.144 HD
ATOM     12  H   UNL     1       1.837   2.175   3.223  0.00  0.00    +0.144 HD
ENDBRANCH   2  10
BRANCH   1  13
ATOM     13  N   UNL     1       3.986   2.961   2.376  0.00  0.00    -0.319 N 
BRANCH  13  14
ATOM     14  C   UNL     1       4.382   4.372   2.479  0.00  0.00    +0.105 C 
BRANCH  14  16
ATOM     15  C   UNL     1       3.550   6.705   2.799  0.00  0.00    +0.005 C 
ATOM     16  C   UNL     1       3.138   5.236   2.692  0.00  0.00    +0.015 C 
ENDBRANCH  14  16
ENDBRANCH  13  14
BRANCH  13  17
ATOM     17  C   UNL     1       5.153   2.076   2.503  0.00  0.00    +0.140 C 
BRANCH  17  18
ATOM     18  C   UNL     1       5.721   2.190   3.894  0.00  0.00    -0.030 A 
ATOM     19  C   UNL     1       6.699   3.127   4.167  0.00  0.00    +0.006 A 
ATOM     20  C   UNL     1       7.217   3.234   5.444  0.00  0.00    +0.013 A 
ATOM     21  C   UNL     1       6.763   2.397   6.446  0.00  0.00    +0.055 A 
ATOM     22  C   UNL     1       5.788   1.456   6.172  0.00  0.00    +0.013 A 
ATOM     23  C   UNL     1       5.267   1.352   4.896  0.00  0.00    +0.006 A 
BRANCH  21  24
ATOM     24  C   UNL     1       7.331   2.510   7.838  0.00  0.00    +0.417 C 
ATOM     25  F   UNL     1       8.441   1.667   7.958  0.00  0.00    -0.166 F 
ATOM     26  F   UNL     1       7.721   3.832   8.076  0.00  0.00    -0.166 F 
ATOM     27  F   UNL     1       6.357   2.136   8.771  0.00  0.00    -0.166 F 
ENDBRANCH  21  24
ENDBRANCH  17  18
ENDBRANCH  13  17
ENDBRANCH   1  13
BRANCH   3  28
ATOM     28  C   UNL     1      -0.018   1.503   0.010  0.00  0.00    +0.163 C 
BRANCH  28  29
ATOM     29  C   UNL     1       0.002  -0.004   0.002  0.00  0.00    -0.028 A 
ATOM     30  C   UNL     1      -0.006  -0.689  -1.199  0.00  0.00    +0.005 A 
ATOM     31  C   UNL     1       0.018  -2.071  -1.206  0.00  0.00    +0.000 A 
ATOM     32  C   UNL     1       0.039  -2.768  -0.013  0.00  0.00    +0.000 A 
ATOM     33  C   UNL     1       0.041  -2.084   1.188  0.00  0.00    +0.000 A 
ATOM     34  C   UNL     1       0.023  -0.702   1.195  0.00  0.00    +0.005 A 
ENDBRANCH  28  29
ENDBRANCH   3  28
TORSDOF 9
