REMARK  Name = ZINC40986332
REMARK  10 active torsions:
REMARK  status: ('A' for Active; 'I' for Inactive)
REMARK    1  A    between atoms: C_1  and  C_2
REMARK    2  A    between atoms: C_2  and  C_3
REMARK    3  A    between atoms: C_6  and  C_9
REMARK    4  A    between atoms: C_9  and  C_11
REMARK    5  A    between atoms: C_9  and  N_32
REMARK    6  A    between atoms: C_11  and  N_12
REMARK    7  A    between atoms: C_13  and  C_15
REMARK    8  A    between atoms: C_18  and  S_22
REMARK    9  A    between atoms: S_22  and  C_25
REMARK   10  A    between atoms: C_25  and  C_26
REMARK                            x       y       z     vdW  Elec       q    Type
REMARK                         _______ _______ _______ _____ _____    ______ ____
ROOT
ATOM      1  N   UNL     1       3.315  -4.064   3.610  0.00  0.00    -0.312 N 
ATOM      2  C   UNL     1       3.295  -5.403   3.458  0.00  0.00    +0.248 C 
ATOM      3  O   UNL     1       2.816  -6.107   4.326  0.00  0.00    -0.270 OA
ATOM      4  H   UNL     1       3.697  -3.503   2.917  0.00  0.00    +0.149 HD
ENDROOT
BRANCH   2   5
ATOM      5  C   UNL     1       3.856  -6.017   2.236  0.00  0.00    +0.092 A 
ATOM      6  C   UNL     1       4.418  -5.227   1.227  0.00  0.00    +0.130 A 
ATOM      7  N   UNL     1       4.908  -5.817   0.151  0.00  0.00    -0.219 NA
ATOM      8  C   UNL     1       4.874  -7.129   0.021  0.00  0.00    +0.272 A 
ATOM      9  N   UNL     1       4.355  -7.912   0.946  0.00  0.00    -0.199 NA
ATOM     10  C   UNL     1       3.846  -7.407   2.058  0.00  0.00    +0.146 A 
ATOM     11 CL   UNL     1       3.171  -8.448   3.272  0.00  0.00    -0.061 Cl
BRANCH   8  12
ATOM     12  S   UNL     1       5.543  -7.859  -1.437  0.00  0.00    +0.036 S 
ATOM     13  O   UNL     1       4.846  -9.089  -1.579  0.00  0.00    -0.166 OA
ATOM     14  O   UNL     1       5.437  -6.848  -2.429  0.00  0.00    -0.166 OA
BRANCH  12  15
ATOM     15  C   UNL     1       7.286  -8.170  -1.044  0.00  0.00    +0.210 C 
BRANCH  15  16
ATOM     16  C   UNL     1       7.964  -8.800  -2.233  0.00  0.00    -0.026 A 
ATOM     17  C   UNL     1       7.983 -10.176  -2.369  0.00  0.00    +0.005 A 
ATOM     18  C   UNL     1       8.605 -10.754  -3.460  0.00  0.00    +0.000 A 
ATOM     19  C   UNL     1       9.207  -9.956  -4.415  0.00  0.00    +0.000 A 
ATOM     20  C   UNL     1       9.187  -8.581  -4.280  0.00  0.00    +0.000 A 
ATOM     21  C   UNL     1       8.562  -8.003  -3.191  0.00  0.00    +0.005 A 
ENDBRANCH  15  16
ENDBRANCH  12  15
ENDBRANCH   8  12
ENDBRANCH   2   5
BRANCH   1  22
ATOM     22  C   UNL     1       2.759  -3.456   4.821  0.00  0.00    +0.094 C 
BRANCH  22  23
ATOM     23  C   UNL     1       2.783  -1.933   4.684  0.00  0.00    -0.020 C 
BRANCH  23  27
ATOM     24  C   UNL     1       0.146  -0.746   1.541  0.00  0.00    -0.048 A 
ATOM     25  C   UNL     1       1.507  -0.821   1.310  0.00  0.00    +0.004 A 
ATOM     26  C   UNL     1       2.360  -1.205   2.327  0.00  0.00    +0.002 A 
ATOM     27  C   UNL     1       1.853  -1.513   3.576  0.00  0.00    -0.059 A 
ATOM     28  C   UNL     1       0.492  -1.437   3.807  0.00  0.00    +0.002 A 
ATOM     29  C   UNL     1      -0.361  -1.049   2.791  0.00  0.00    +0.004 A 
BRANCH  24  31
ATOM     30  C   UNL     1      -0.950   1.194   0.451  0.00  0.00    +0.009 C 
ATOM     31  C   UNL     1      -0.784  -0.327   0.432  0.00  0.00    +0.032 C 
ENDBRANCH  24  31
ENDBRANCH  23  27
BRANCH  23  32
ATOM     32  N   UNL     1       2.348  -1.321   5.947  0.00  0.00    +0.385 N 
ATOM     33  C   UNL     1       3.299  -1.661   7.036  0.00  0.00    -0.078 C 
ATOM     34  C   UNL     1       3.053  -0.546   8.083  0.00  0.00    -0.020 C 
ATOM     35  C   UNL     1       2.808   0.704   7.207  0.00  0.00    -0.020 C 
ATOM     36  C   UNL     1       2.375   0.154   5.835  0.00  0.00    -0.078 C 
ATOM     37  H   UNL     1       1.419  -1.635   6.184  0.00  0.00    -0.081 HD
ENDBRANCH  23  32
ENDBRANCH  22  23
ENDBRANCH   1  22
TORSDOF 9
