REMARK  Name = ZINC04686296
REMARK  12 active torsions:
REMARK  status: ('A' for Active; 'I' for Inactive)
REMARK    1  A    between atoms: C_1  and  C_2
REMARK    2  A    between atoms: C_2  and  C_3
REMARK    3  A    between atoms: C_3  and  C_5
REMARK    4  A    between atoms: C_3  and  S_12
REMARK    5  A    between atoms: N_7  and  C_8
REMARK    6  A    between atoms: N_7  and  C_10
REMARK    7  A    between atoms: C_8  and  C_9
REMARK    8  A    between atoms: C_10  and  C_11
REMARK    9  A    between atoms: S_12  and  C_13
REMARK   10  A    between atoms: C_17  and  C_21
REMARK   11  A    between atoms: N_24  and  C_25
REMARK   12  A    between atoms: C_29  and  C_31
REMARK                            x       y       z     vdW  Elec       q    Type
REMARK                         _______ _______ _______ _____ _____    ______ ____
ROOT
ATOM      1  C   UNL     1      -4.576   2.446   2.273  0.00  0.00    +0.178 A 
ATOM      2  N   UNL     1      -3.553   2.625   3.074  0.00  0.00    -0.201 NA
ATOM      3  C   UNL     1      -2.292   2.366   2.697  0.00  0.00    +0.187 A 
ATOM      4  C   UNL     1      -2.041   1.867   1.411  0.00  0.00    +0.082 A 
ATOM      5  C   UNL     1      -0.652   1.683   1.297  0.00  0.00    +0.046 A 
ATOM      6  N   UNL     1      -0.094   2.055   2.417  0.00  0.00    -0.279 N 
ATOM      7  N   UNL     1      -1.083   2.479   3.312  0.00  0.00    -0.153 NA
ATOM      8  H   UNL     1       0.999   2.001   2.531  0.00  0.00    +0.189 HD
ATOM      9  C   UNL     1       0.071   1.162   0.082  0.00  0.00    +0.066 C 
ATOM     10  C   UNL     1      -3.182   1.653   0.512  0.00  0.00    +0.124 A 
ATOM     11  N   UNL     1      -3.016   1.188  -0.702  0.00  0.00    -0.384 N 
ATOM     12  N   UNL     1      -4.443   1.959   1.001  0.00  0.00    -0.275 N 
ATOM     13  H   UNL     1      -3.887   1.036  -1.357  0.00  0.00    +0.157 HD
ATOM     14  H   UNL     1      -2.006   0.951  -1.066  0.00  0.00    +0.157 HD
ENDROOT
BRANCH  12  15
ATOM     15  C   UNL     1      -5.574   1.775   0.196  0.00  0.00    +0.051 A 
ATOM     16  C   UNL     1      -5.740   2.534  -0.956  0.00  0.00    +0.026 A 
ATOM     17  C   UNL     1      -6.854   2.347  -1.750  0.00  0.00    +0.002 A 
ATOM     18  C   UNL     1      -7.809   1.412  -1.394  0.00  0.00    +0.003 A 
ATOM     19  C   UNL     1      -7.650   0.658  -0.246  0.00  0.00    -0.048 A 
ATOM     20  C   UNL     1      -6.535   0.838   0.550  0.00  0.00    +0.029 A 
ATOM     21  C   UNL     1      -8.693  -0.359   0.138  0.00  0.00    +0.044 C 
ENDBRANCH  12  15
BRANCH   1  22
ATOM     22  S   UNL     1      -6.190   2.830   2.866  0.00  0.00    -0.075 S 
BRANCH  22  23
ATOM     23  C   UNL     1      -5.801   3.261   4.580  0.00  0.00    +0.140 C 
BRANCH  23  24
ATOM     24  C   UNL     1      -5.021   4.551   4.609  0.00  0.00    +0.229 C 
ATOM     25  O   UNL     1      -5.130   5.345   3.699  0.00  0.00    -0.274 OA
ATOM     26  N   UNL     1      -4.203   4.821   5.645  0.00  0.00    -0.301 N 
BRANCH  26  27
ATOM     27  C   UNL     1      -3.446   6.074   5.673  0.00  0.00    +0.104 C 
ATOM     28  C   UNL     1      -4.271   7.154   6.375  0.00  0.00    +0.024 C 
ENDBRANCH  26  27
BRANCH  26  29
ATOM     29  C   UNL     1      -4.072   3.861   6.744  0.00  0.00    +0.104 C 
ATOM     30  C   UNL     1      -2.936   2.883   6.434  0.00  0.00    +0.024 C 
ENDBRANCH  26  29
ENDBRANCH  23  24
BRANCH  23  32
ATOM     31  C   UNL     1      -7.822   2.087   5.461  0.00  0.00    +0.005 C 
ATOM     32  C   UNL     1      -7.099   3.433   5.370  0.00  0.00    +0.020 C 
ENDBRANCH  23  32
ENDBRANCH  22  23
ENDBRANCH   1  22
TORSDOF 7
