REMARK  Name = ZINC30825187
REMARK  12 active torsions:
REMARK  status: ('A' for Active; 'I' for Inactive)
REMARK    1  A    between atoms: C_1  and  C_2
REMARK    2  A    between atoms: C_2  and  C_3
REMARK    3  A    between atoms: C_2  and  C_4
REMARK    4  A    between atoms: C_2  and  C_5
REMARK    5  A    between atoms: C_7  and  C_15
REMARK    6  A    between atoms: C_9  and  C_11
REMARK    7  A    between atoms: C_11  and  C_12
REMARK    8  A    between atoms: C_11  and  C_13
REMARK    9  A    between atoms: C_11  and  C_14
REMARK   10  A    between atoms: N_21  and  C_24
REMARK   11  A    between atoms: C_27  and  S_30
REMARK   12  A    between atoms: S_30  and  N_33
REMARK                            x       y       z     vdW  Elec       q    Type
REMARK                         _______ _______ _______ _____ _____    ______ ____
ROOT
ATOM      1  C   UNL     1       0.715  -2.056  -0.184  0.00  0.00    +0.166 A 
ATOM      2  N   UNL     1      -0.563  -2.045   0.130  0.00  0.00    -0.128 NA
ATOM      3  N   UNL     1      -0.980  -0.830   0.240  0.00  0.00    -0.122 NA
ATOM      4  C   UNL     1       0.002  -0.004   0.002  0.00  0.00    +0.195 A 
ATOM      5  N   UNL     1       1.116  -0.748  -0.272  0.00  0.00    -0.285 N 
ATOM      6  C   UNL     1       2.443  -0.228  -0.584  0.00  0.00    +0.235 C 
ATOM      7  N   UNL     1       2.371   1.168  -1.024  0.00  0.00    -0.302 N 
ATOM      8  C   UNL     1       1.773   2.043  -0.004  0.00  0.00    +0.184 C 
ATOM      9  S   UNL     1      -0.022   1.760   0.012  0.00  0.00    -0.067 S 
ENDROOT
BRANCH   1  12
ATOM     10  C   UNL     1       1.755  -5.613  -0.793  0.00  0.00    -0.041 A 
ATOM     11  C   UNL     1       0.964  -4.501  -0.590  0.00  0.00    +0.015 A 
ATOM     12  C   UNL     1       1.556  -3.251  -0.403  0.00  0.00    +0.020 A 
ATOM     13  C   UNL     1       2.947  -3.134  -0.428  0.00  0.00    +0.015 A 
ATOM     14  C   UNL     1       3.727  -4.254  -0.627  0.00  0.00    -0.041 A 
ATOM     15  C   UNL     1       3.134  -5.490  -0.811  0.00  0.00    +0.008 A 
BRANCH  10  17
ATOM     16  C   UNL     1      -0.405  -6.823  -0.929  0.00  0.00    +0.015 C 
ATOM     17  C   UNL     1       1.117  -6.963  -0.994  0.00  0.00    -0.013 C 
ATOM     18  C   UNL     1       1.520  -7.518  -2.362  0.00  0.00    +0.015 C 
ATOM     19  C   UNL     1       1.589  -7.919   0.103  0.00  0.00    +0.015 C 
ENDBRANCH  10  17
BRANCH  14  20
ATOM     20  C   UNL     1       5.229  -4.131  -0.649  0.00  0.00    -0.013 C 
ATOM     21  C   UNL     1       5.760  -4.598  -2.005  0.00  0.00    +0.015 C 
ATOM     22  C   UNL     1       5.624  -2.670  -0.422  0.00  0.00    +0.015 C 
ATOM     23  C   UNL     1       5.828  -4.999   0.460  0.00  0.00    +0.015 C 
ENDBRANCH  14  20
ENDBRANCH   1  12
BRANCH   7  24
ATOM     24  C   UNL     1       3.629   1.636  -1.411  0.00  0.00    +0.032 A 
ATOM     25  C   UNL     1       4.735   0.799  -1.338  0.00  0.00    +0.025 A 
ATOM     26  C   UNL     1       5.977   1.264  -1.726  0.00  0.00    +0.030 A 
ATOM     27  C   UNL     1       6.121   2.564  -2.176  0.00  0.00    +0.105 A 
ATOM     28  C   UNL     1       5.022   3.401  -2.244  0.00  0.00    +0.030 A 
ATOM     29  C   UNL     1       3.777   2.941  -1.863  0.00  0.00    +0.025 A 
BRANCH  27  30
ATOM     30  S   UNL     1       7.708   3.155  -2.662  0.00  0.00    +0.056 S 
ATOM     31  O   UNL     1       8.474   2.013  -3.021  0.00  0.00    -0.153 OA
ATOM     32  O   UNL     1       7.482   4.234  -3.559  0.00  0.00    -0.153 OA
BRANCH  30  33
ATOM     33  N   UNL     1       8.424   3.801  -1.316  0.00  0.00    -0.204 NA
ATOM     34  H   UNL     1       9.421   4.183  -1.578  0.00  0.00    +0.144 HD
ATOM     35  H   UNL     1       8.520   3.024  -0.543  0.00  0.00    +0.144 HD
ENDBRANCH  30  33
ENDBRANCH  27  30
ENDBRANCH   7  24
TORSDOF 6
