REMARK  Name = ZINC15448593
REMARK  13 active torsions:
REMARK  status: ('A' for Active; 'I' for Inactive)
REMARK    1  A    between atoms: C_1  and  C_2
REMARK    2  A    between atoms: C_2  and  C_3
REMARK    3  A    between atoms: C_3  and  C_4
REMARK    4  A    between atoms: C_4  and  N_5
REMARK    5  A    between atoms: C_6  and  N_35
REMARK    6  A    between atoms: C_7  and  N_14
REMARK    7  A    between atoms: N_14  and  C_15
REMARK    8  A    between atoms: C_20  and  C_22
REMARK    9  A    between atoms: C_22  and  N_68
REMARK   10  A    between atoms: C_23  and  C_24
REMARK   11  A    between atoms: C_23  and  N_68
REMARK   12  A    between atoms: C_29  and  C_30
REMARK   13  A    between atoms: C_29  and  N_68
REMARK                            x       y       z     vdW  Elec       q    Type
REMARK                         _______ _______ _______ _____ _____    ______ ____
ROOT
ATOM      1  N   UNL     1      -0.666   1.591   4.293  0.00  0.00    -0.263 N 
ATOM      2  C   UNL     1      -1.723   1.770   3.473  0.00  0.00    +0.204 C 
ATOM      3  O   UNL     1      -2.776   2.172   3.922  0.00  0.00    -0.277 OA
ENDROOT
BRANCH   1   6
ATOM      4  N   UNL     1      -1.255   3.119   7.582  0.00  0.00    -0.280 N 
ATOM      5  C   UNL     1      -1.113   2.992   6.220  0.00  0.00    +0.127 A 
ATOM      6  C   UNL     1      -0.817   1.754   5.686  0.00  0.00    +0.140 A 
ATOM      7  C   UNL     1      -0.675   0.656   6.555  0.00  0.00    +0.277 A 
ATOM      8  O   UNL     1      -0.418  -0.450   6.110  0.00  0.00    -0.266 OA
ATOM      9  N   UNL     1      -0.819   0.836   7.883  0.00  0.00    -0.273 N 
ATOM     10  H   UNL     1      -0.710   0.058   8.502  0.00  0.00    +0.173 HD
ATOM     11  C   UNL     1      -1.108   2.050   8.384  0.00  0.00    +0.331 A 
ATOM     12  O   UNL     1      -1.237   2.183   9.586  0.00  0.00    -0.246 OA
BRANCH   5  13
ATOM     13  N   UNL     1      -1.265   4.084   5.399  0.00  0.00    -0.343 N 
ATOM     14  H   UNL     1      -1.184   3.984   4.438  0.00  0.00    +0.144 HD
ATOM     15  H   UNL     1      -1.453   4.955   5.782  0.00  0.00    +0.144 HD
ENDBRANCH   5  13
BRANCH   4  16
ATOM     16  C   UNL     1      -1.569   4.427   8.162  0.00  0.00    +0.128 C 
BRANCH  16  17
ATOM     17  C   UNL     1      -3.085   4.566   8.317  0.00  0.00    +0.021 C 
BRANCH  17  19
ATOM     18  C   UNL     1      -4.936   6.115   8.962  0.00  0.00    +0.004 C 
ATOM     19  C   UNL     1      -3.421   5.976   8.806  0.00  0.00    -0.002 C 
ENDBRANCH  17  19
ENDBRANCH  16  17
ENDBRANCH   4  16
ENDBRANCH   1   6
BRANCH   1  20
ATOM     20  C   UNL     1       0.639   1.227   3.736  0.00  0.00    +0.082 C 
ATOM     21  C   UNL     1       1.125   2.324   2.766  0.00  0.00    +0.023 C 
ATOM     22  C   UNL     1       1.831   1.542   1.630  0.00  0.00    +0.002 C 
ATOM     23  C   UNL     1       0.934   0.289   1.469  0.00  0.00    +0.002 C 
ATOM     24  C   UNL     1       0.518  -0.067   2.911  0.00  0.00    +0.023 C 
ENDBRANCH   1  20
BRANCH   2  25
ATOM     25  C   UNL     1      -1.595   1.472   2.002  0.00  0.00    +0.020 C 
BRANCH  25  26
ATOM     26  N   UNL     1      -2.902   1.714   1.356  0.00  0.00    +0.395 N 
ATOM     27  H   UNL     1      -3.364   2.502   1.825  0.00  0.00    -0.080 HD
BRANCH  26  28
ATOM     28  C   UNL     1      -2.706   2.051  -0.070  0.00  0.00    -0.002 C 
BRANCH  28  29
ATOM     29  C   UNL     1      -4.022   2.506  -0.646  0.00  0.00    +0.089 A 
ATOM     30  C   UNL     1      -4.481   3.770  -0.657  0.00  0.00    +0.042 A 
ATOM     31  C   UNL     1      -5.744   3.742  -1.291  0.00  0.00    +0.041 A 
ATOM     32  C   UNL     1      -5.982   2.462  -1.630  0.00  0.00    +0.195 A 
ATOM     33  O   UNL     1      -4.933   1.719  -1.242  0.00  0.00    -0.470 OA
ENDBRANCH  28  29
ENDBRANCH  26  28
BRANCH  26  34
ATOM     34  C   UNL     1      -3.756   0.514   1.479  0.00  0.00    -0.002 C 
BRANCH  34  35
ATOM     35  C   UNL     1      -4.257   0.420   2.898  0.00  0.00    +0.089 A 
ATOM     36  C   UNL     1      -5.324   1.066   3.400  0.00  0.00    +0.042 A 
ATOM     37  C   UNL     1      -5.429   0.690   4.759  0.00  0.00    +0.041 A 
ATOM     38  C   UNL     1      -4.419  -0.164   5.005  0.00  0.00    +0.195 A 
ATOM     39  O   UNL     1      -3.716  -0.328   3.873  0.00  0.00    -0.470 OA
ENDBRANCH  34  35
ENDBRANCH  26  34
ENDBRANCH  25  26
ENDBRANCH   2  25
TORSDOF 12
