REMARK  Name = ZINC21223065
REMARK  9 active torsions:
REMARK  status: ('A' for Active; 'I' for Inactive)
REMARK    1  A    between atoms: C_1  and  C_2
REMARK    2  A    between atoms: C_5  and  C_8
REMARK    3  A    between atoms: C_13  and  C_23
REMARK    4  A    between atoms: C_27  and  O_33
REMARK    5  A    between atoms: C_28  and  O_29
REMARK    6  A    between atoms: O_29  and  C_30
REMARK    7  A    between atoms: C_30  and  C_31
REMARK    8  A    between atoms: C_30  and  C_32
REMARK    9  A    between atoms: O_33  and  C_34
REMARK                            x       y       z     vdW  Elec       q    Type
REMARK                         _______ _______ _______ _____ _____    ______ ____
ROOT
ATOM      1  C   UNL     1      -1.701  -0.502  -3.885  0.00  0.00    +0.032 C 
ATOM      2  C   UNL     1      -1.213   0.355  -5.051  0.00  0.00    +0.059 C 
ATOM      3  C   UNL     1       0.133   0.976  -4.714  0.00  0.00    +0.017 C 
ATOM      4  C   UNL     1       0.440   1.292  -3.448  0.00  0.00    +0.037 C 
ATOM      5  C   UNL     1       1.730   1.916  -2.973  0.00  0.00    +0.140 C 
ATOM      6  N   UNL     1       2.579   2.411  -4.035  0.00  0.00    -0.331 N 
ATOM      7  C   UNL     1       3.138   1.541  -4.968  0.00  0.00    +0.049 A 
ATOM      8  C   UNL     1       4.508   1.341  -5.037  0.00  0.00    +0.025 A 
ATOM      9  C   UNL     1       5.018   0.430  -5.945  0.00  0.00    +0.002 A 
ATOM     10  C   UNL     1       4.172  -0.281  -6.776  0.00  0.00    +0.002 A 
ATOM     11  C   UNL     1       2.804  -0.070  -6.724  0.00  0.00    +0.025 A 
ATOM     12  C   UNL     1       2.296   0.859  -5.833  0.00  0.00    +0.052 A 
ATOM     13  N   UNL     1       0.944   1.182  -5.784  0.00  0.00    -0.316 N 
ATOM     14  C   UNL     1      -0.489   1.046  -2.405  0.00  0.00    +0.163 C 
ATOM     15  O   UNL     1      -0.195   1.362  -1.268  0.00  0.00    -0.292 OA
ATOM     16  C   UNL     1      -1.823   0.408  -2.656  0.00  0.00    +0.088 C 
ATOM     17  H   UNL     1       2.790   3.488  -4.114  0.00  0.00    +0.147 HD
ATOM     18  H   UNL     1       0.540   1.638  -6.700  0.00  0.00    +0.152 HD
ENDROOT
BRANCH   1  23
ATOM     19  C   UNL     1      -6.858  -2.780  -5.154  0.00  0.00    +0.044 C 
ATOM     20  C   UNL     1      -5.513  -2.186  -4.822  0.00  0.00    -0.050 A 
ATOM     21  C   UNL     1      -4.440  -3.014  -4.550  0.00  0.00    +0.003 A 
ATOM     22  C   UNL     1      -3.207  -2.469  -4.247  0.00  0.00    +0.004 A 
ATOM     23  C   UNL     1      -3.046  -1.096  -4.215  0.00  0.00    -0.043 A 
ATOM     24  C   UNL     1      -4.120  -0.268  -4.482  0.00  0.00    +0.004 A 
ATOM     25  C   UNL     1      -5.353  -0.813  -4.790  0.00  0.00    +0.003 A 
ENDBRANCH   1  23
BRANCH   5  26
ATOM     26  C   UNL     1       2.500   0.884  -2.189  0.00  0.00    +0.023 A 
ATOM     27  C   UNL     1       1.976  -0.384  -2.015  0.00  0.00    +0.009 A 
ATOM     28  C   UNL     1       2.679  -1.332  -1.296  0.00  0.00    +0.004 A 
ATOM     29  C   UNL     1       3.909  -1.017  -0.747  0.00  0.00    +0.049 A 
ATOM     30  C   UNL     1       4.441   0.250  -0.922  0.00  0.00    +0.162 A 
ATOM     31  C   UNL     1       3.731   1.206  -1.641  0.00  0.00    +0.168 A 
BRANCH  30  32
ATOM     32  O   UNL     1       5.652   0.560  -0.387  0.00  0.00    -0.491 OA
ATOM     33  C   UNL     1       6.324  -0.472   0.339  0.00  0.00    +0.277 C 
ENDBRANCH  30  32
BRANCH  31  34
ATOM     34  O   UNL     1       4.247   2.453  -1.811  0.00  0.00    -0.485 OA
BRANCH  34  35
ATOM     35  C   UNL     1       4.049   3.388  -0.748  0.00  0.00    +0.168 C 
ATOM     36  C   UNL     1       2.809   4.236  -1.038  0.00  0.00    +0.051 C 
ATOM     37  C   UNL     1       5.274   4.297  -0.634  0.00  0.00    +0.051 C 
ENDBRANCH  34  35
ENDBRANCH  31  34
ENDBRANCH   5  26
TORSDOF 5
