REMARK  Name = ZINC21256959
REMARK  9 active torsions:
REMARK  status: ('A' for Active; 'I' for Inactive)
REMARK    1  A    between atoms: C_1  and  C_2
REMARK    2  A    between atoms: C_2  and  O_3
REMARK    3  A    between atoms: O_3  and  C_4
REMARK    4  A    between atoms: C_6  and  C_12
REMARK    5  A    between atoms: C_9  and  O_10
REMARK    6  A    between atoms: C_17  and  C_22
REMARK    7  A    between atoms: C_25  and  N_28
REMARK    8  A    between atoms: N_28  and  C_29
REMARK    9  A    between atoms: N_28  and  C_30
REMARK                            x       y       z     vdW  Elec       q    Type
REMARK                         _______ _______ _______ _____ _____    ______ ____
ROOT
ATOM      1  C   UNL     1       3.658   2.238  -0.030  0.00  0.00    +0.136 C 
ATOM      2  C   UNL     1       3.925   2.741   1.369  0.00  0.00    +0.036 C 
ATOM      3  C   UNL     1       3.874   4.018   1.774  0.00  0.00    +0.017 C 
ATOM      4  C   UNL     1       4.131   4.376   3.229  0.00  0.00    +0.059 C 
ATOM      5  C   UNL     1       5.157   3.415   3.827  0.00  0.00    +0.032 C 
ATOM      6  C   UNL     1       4.584   1.997   3.724  0.00  0.00    +0.088 C 
ATOM      7  C   UNL     1       4.261   1.714   2.288  0.00  0.00    +0.163 C 
ATOM      8  O   UNL     1       4.288   0.564   1.897  0.00  0.00    -0.292 OA
ATOM      9  N   UNL     1       3.586   5.075   0.973  0.00  0.00    -0.316 N 
ATOM     10  C   UNL     1       2.530   5.120   0.070  0.00  0.00    +0.052 A 
ATOM     11  C   UNL     1       1.505   6.044   0.178  0.00  0.00    +0.025 A 
ATOM     12  C   UNL     1       0.541   6.108  -0.814  0.00  0.00    +0.002 A 
ATOM     13  C   UNL     1       0.601   5.255  -1.901  0.00  0.00    +0.002 A 
ATOM     14  C   UNL     1       1.613   4.315  -1.999  0.00  0.00    +0.025 A 
ATOM     15  C   UNL     1       2.570   4.238  -1.000  0.00  0.00    +0.049 A 
ATOM     16  N   UNL     1       3.581   3.280  -1.032  0.00  0.00    -0.331 N 
ATOM     17  H   UNL     1       4.210   5.980   1.010  0.00  0.00    +0.152 HD
ATOM     18  H   UNL     1       4.330   3.324  -1.838  0.00  0.00    +0.147 HD
ENDROOT
BRANCH   1  21
ATOM     19  C   UNL     1       1.147  -0.575  -0.276  0.00  0.00    +0.163 A 
ATOM     20  C   UNL     1       2.345   0.123  -0.279  0.00  0.00    +0.055 A 
ATOM     21  C   UNL     1       2.354   1.482  -0.026  0.00  0.00    -0.018 A 
ATOM     22  C   UNL     1       1.171   2.149   0.231  0.00  0.00    +0.029 A 
ATOM     23  C   UNL     1      -0.028   1.459   0.236  0.00  0.00    +0.086 A 
ATOM     24  C   UNL     1      -0.044   0.096  -0.017  0.00  0.00    +0.177 A 
ATOM     25 CL   UNL     1      -1.513   2.301   0.552  0.00  0.00    -0.080 Cl
BRANCH  24  26
ATOM     26  O   UNL     1      -1.222  -0.585  -0.012  0.00  0.00    -0.502 OA
ATOM     27  H   UNL     1      -2.163  -0.053   0.192  0.00  0.00    +0.292 HD
ENDBRANCH  24  26
BRANCH  19  28
ATOM     28  O   UNL     1       1.137  -1.911  -0.524  0.00  0.00    -0.489 OA
BRANCH  28  30
ATOM     29  C   UNL     1       2.186  -4.027  -1.037  0.00  0.00    +0.048 C 
ATOM     30  C   UNL     1       2.397  -2.534  -0.781  0.00  0.00    +0.226 C 
ENDBRANCH  28  30
ENDBRANCH  19  28
ENDBRANCH   1  21
BRANCH   5  31
ATOM     31  C   UNL     1       5.400   3.764   5.273  0.00  0.00    -0.043 A 
ATOM     32  C   UNL     1       4.352   3.738   6.175  0.00  0.00    +0.006 A 
ATOM     33  C   UNL     1       4.573   4.051   7.502  0.00  0.00    +0.023 A 
ATOM     34  C   UNL     1       5.847   4.404   7.928  0.00  0.00    +0.029 A 
ATOM     35  C   UNL     1       6.896   4.434   7.018  0.00  0.00    +0.023 A 
ATOM     36  C   UNL     1       6.670   4.114   5.694  0.00  0.00    +0.006 A 
BRANCH  34  37
ATOM     37  N   UNL     1       6.073   4.726   9.268  0.00  0.00    -0.336 N 
ATOM     38  C   UNL     1       7.386   5.217   9.692  0.00  0.00    +0.129 C 
ATOM     39  C   UNL     1       4.996   4.573  10.250  0.00  0.00    +0.129 C 
ENDBRANCH  34  37
ENDBRANCH   5  31
TORSDOF 6
