REMARK  Name = ZINC38688998
REMARK  7 active torsions:
REMARK  status: ('A' for Active; 'I' for Inactive)
REMARK    1  A    between atoms: C_1  and  C_2
REMARK    2  A    between atoms: C_5  and  C_8
REMARK    3  A    between atoms: C_12  and  S_21
REMARK    4  A    between atoms: N_14  and  C_15
REMARK    5  A    between atoms: C_15  and  C_16
REMARK    6  A    between atoms: S_21  and  C_22
REMARK    7  A    between atoms: C_22  and  C_23
REMARK                            x       y       z     vdW  Elec       q    Type
REMARK                         _______ _______ _______ _____ _____    ______ ____
ROOT
ATOM      1  C   UNL     1       0.126  -4.225   0.004  0.00  0.00    +0.172 C 
ATOM      2  N   UNL     1      -0.574  -4.592  -1.248  0.00  0.00    -0.233 NA
ATOM      3  N   UNL     1      -1.255  -5.857  -0.930  0.00  0.00    -0.229 NA
ATOM      4  C   UNL     1      -1.703  -5.655   0.472  0.00  0.00    +0.201 C 
ATOM      5  N   UNL     1      -0.593  -4.901   1.104  0.00  0.00    -0.250 NA
ATOM      6  H   UNL     1       0.081  -4.714  -2.006  0.00  0.00    +0.143 HD
ATOM      7  H   UNL     1      -0.619  -6.637  -0.998  0.00  0.00    +0.143 HD
ENDROOT
BRANCH   1  12
ATOM      8  C   UNL     1      -0.044   1.502   0.759  0.00  0.00    +0.044 C 
ATOM      9  C   UNL     1       0.001   0.009   0.562  0.00  0.00    -0.050 A 
ATOM     10  C   UNL     1       0.047  -0.519  -0.715  0.00  0.00    +0.004 A 
ATOM     11  C   UNL     1       0.088  -1.889  -0.895  0.00  0.00    +0.007 A 
ATOM     12  C   UNL     1       0.082  -2.731   0.201  0.00  0.00    -0.015 A 
ATOM     13  C   UNL     1       0.037  -2.203   1.478  0.00  0.00    +0.007 A 
ATOM     14  C   UNL     1       0.001  -0.833   1.659  0.00  0.00    +0.004 A 
ENDBRANCH   1  12
BRANCH   5  15
ATOM     15  C   UNL     1       0.302  -5.801   1.843  0.00  0.00    +0.163 C 
BRANCH  15  16
ATOM     16  C   UNL     1       1.369  -4.992   2.533  0.00  0.00    +0.119 A 
ATOM     17  C   UNL     1       1.327  -4.557   3.805  0.00  0.00    +0.046 A 
ATOM     18  C   UNL     1       2.527  -3.844   4.034  0.00  0.00    +0.041 A 
ATOM     19  C   UNL     1       3.230  -3.887   2.889  0.00  0.00    +0.195 A 
ATOM     20  O   UNL     1       2.527  -4.589   1.985  0.00  0.00    -0.467 OA
ENDBRANCH  15  16
ENDBRANCH   5  15
BRANCH   4  21
ATOM     21  S   UNL     1      -1.940  -7.252   1.299  0.00  0.00    -0.117 S 
BRANCH  21  22
ATOM     22  C   UNL     1      -3.481  -7.891   0.586  0.00  0.00    +0.146 C 
BRANCH  22  23
ATOM     23  C   UNL     1      -3.735  -9.283   1.104  0.00  0.00    +0.118 A 
ATOM     24  N   UNL     1      -3.289 -10.426   0.516  0.00  0.00    -0.341 N 
ATOM     25  H   UNL     1      -2.761 -10.487  -0.295  0.00  0.00    +0.167 HD
ATOM     26  C   UNL     1      -3.728 -11.483   1.289  0.00  0.00    +0.066 A 
ATOM     27  C   UNL     1      -3.594 -12.862   1.206  0.00  0.00    +0.028 A 
ATOM     28  C   UNL     1      -4.170 -13.663   2.169  0.00  0.00    +0.002 A 
ATOM     29  C   UNL     1      -4.881 -13.100   3.219  0.00  0.00    +0.002 A 
ATOM     30  C   UNL     1      -5.023 -11.745   3.317  0.00  0.00    +0.030 A 
ATOM     31  C   UNL     1      -4.448 -10.913   2.352  0.00  0.00    +0.089 A 
ATOM     32  N   UNL     1      -4.408  -9.567   2.181  0.00  0.00    -0.232 NA
ENDBRANCH  22  23
ENDBRANCH  21  22
ENDBRANCH   4  21
TORSDOF 6
