REMARK  Name = ZINC12465186
REMARK  10 active torsions:
REMARK  status: ('A' for Active; 'I' for Inactive)
REMARK    1  A    between atoms: C_1  and  C_2
REMARK    2  A    between atoms: C_2  and  O_3
REMARK    3  A    between atoms: O_3  and  C_4
REMARK    4  A    between atoms: C_4  and  C_5
REMARK    5  A    between atoms: C_5  and  N_6
REMARK    6  A    between atoms: C_10  and  N_32
REMARK    7  A    between atoms: N_15  and  C_16
REMARK    8  A    between atoms: C_16  and  C_18
REMARK    9  A    between atoms: N_23  and  S_24
REMARK   10  A    between atoms: S_24  and  C_27
REMARK                            x       y       z     vdW  Elec       q    Type
REMARK                         _______ _______ _______ _____ _____    ______ ____
ROOT
ATOM      1  N   UNL     1       8.041   4.646  -2.339  0.00  0.00    -0.319 N 
ATOM      2  C   UNL     1       9.240   4.843  -1.680  0.00  0.00    +0.058 A 
ATOM      3  C   UNL     1      10.281   5.724  -2.011  0.00  0.00    +0.029 A 
ATOM      4  C   UNL     1      11.416   5.794  -1.238  0.00  0.00    +0.035 A 
ATOM      5  C   UNL     1      11.568   5.001  -0.113  0.00  0.00    +0.127 A 
ATOM      6  C   UNL     1      10.557   4.123   0.237  0.00  0.00    +0.050 A 
ATOM      7  C   UNL     1       9.422   4.053  -0.536  0.00  0.00    +0.041 A 
ATOM      8  S   UNL     1       7.923   3.105  -0.454  0.00  0.00    -0.052 S 
ATOM      9  C   UNL     1       7.144   3.740  -1.867  0.00  0.00    +0.167 A 
ATOM     10  N   UNL     1       5.952   3.421  -2.365  0.00  0.00    -0.155 NA
ENDROOT
BRANCH   5  11
ATOM     11  N   UNL     1      12.797   5.091   0.706  0.00  0.00    +0.056 N 
ATOM     12  O   UNL     1      12.923   4.391   1.695  0.00  0.00    -0.126 OA
ATOM     13  O   UNL     1      13.683   5.866   0.392  0.00  0.00    -0.126 OA
ENDBRANCH   5  11
BRANCH  10  14
ATOM     14  C   UNL     1       5.203   2.503  -1.764  0.00  0.00    +0.257 C 
ATOM     15  O   UNL     1       5.608   1.953  -0.757  0.00  0.00    -0.272 OA
BRANCH  14  16
ATOM     16  C   UNL     1       3.854   2.142  -2.329  0.00  0.00    +0.168 C 
ATOM     17  C   UNL     1       4.015   1.551  -3.745  0.00  0.00    +0.031 C 
ATOM     18  C   UNL     1       2.951   0.422  -3.773  0.00  0.00    +0.019 C 
ATOM     19  C   UNL     1       3.013  -0.098  -2.313  0.00  0.00    +0.110 C 
ATOM     20  N   UNL     1       3.222   1.110  -1.494  0.00  0.00    -0.164 NA
BRANCH  20  21
ATOM     21  S   UNL     1       2.818   1.274   0.104  0.00  0.00    +0.068 S 
ATOM     22  O   UNL     1       3.657   2.292   0.632  0.00  0.00    -0.152 OA
ATOM     23  O   UNL     1       2.776  -0.037   0.649  0.00  0.00    -0.152 OA
BRANCH  21  24
ATOM     24  C   UNL     1       1.171   1.898   0.164  0.00  0.00    +0.143 A 
ATOM     25  C   UNL     1       0.001   1.215   0.200  0.00  0.00    +0.036 A 
ATOM     26  C   UNL     1      -1.186   1.922   0.239  0.00  0.00    +0.010 A 
ATOM     27  C   UNL     1      -1.145   3.277   0.251  0.00  0.00    +0.047 A 
ATOM     28  S   UNL     1       0.612   3.593   0.193  0.00  0.00    -0.077 S 
ENDBRANCH  21  24
ENDBRANCH  20  21
ENDBRANCH  14  16
ENDBRANCH  10  14
BRANCH   1  29
ATOM     29  C   UNL     1       7.736   5.414  -3.548  0.00  0.00    +0.152 C 
BRANCH  29  30
ATOM     30  C   UNL     1       6.980   4.527  -4.539  0.00  0.00    +0.181 C 
BRANCH  30  31
ATOM     31  O   UNL     1       6.801   5.232  -5.769  0.00  0.00    -0.378 OA
BRANCH  31  33
ATOM     32  C   UNL     1       5.968   5.336  -8.036  0.00  0.00    +0.034 C 
ATOM     33  C   UNL     1       6.101   4.488  -6.769  0.00  0.00    +0.156 C 
ENDBRANCH  31  33
ENDBRANCH  30  31
ENDBRANCH  29  30
ENDBRANCH   1  29
TORSDOF 9
