REMARK  Name = ZINC09953335
REMARK  13 active torsions:
REMARK  status: ('A' for Active; 'I' for Inactive)
REMARK    1  A    between atoms: C_1  and  C_2
REMARK    2  A    between atoms: C_2  and  N_3
REMARK    3  A    between atoms: N_3  and  C_4
REMARK    4  A    between atoms: N_3  and  S_10
REMARK    5  A    between atoms: S_10  and  C_13
REMARK    6  A    between atoms: C_16  and  O_19
REMARK    7  A    between atoms: O_19  and  C_20
REMARK    8  A    between atoms: C_20  and  C_21
REMARK    9  A    between atoms: N_23  and  C_24
REMARK   10  A    between atoms: C_26  and  C_31
REMARK   11  A    between atoms: C_26  and  C_32
REMARK   12  A    between atoms: C_27  and  C_29
REMARK   13  A    between atoms: C_27  and  C_30
REMARK                            x       y       z     vdW  Elec       q    Type
REMARK                         _______ _______ _______ _____ _____    ______ ____
ROOT
ATOM      1  C   UNL     1      -0.661  11.560  -4.036  0.00  0.00    +0.109 A 
ATOM      2  C   UNL     1      -1.050  10.619  -4.971  0.00  0.00    +0.032 A 
ATOM      3  C   UNL     1      -1.172   9.291  -4.608  0.00  0.00    +0.047 A 
ATOM      4  C   UNL     1      -0.905   8.903  -3.303  0.00  0.00    +0.121 A 
ATOM      5  C   UNL     1      -0.520   9.850  -2.365  0.00  0.00    +0.047 A 
ATOM      6  C   UNL     1      -0.394  11.175  -2.735  0.00  0.00    +0.032 A 
ENDROOT
BRANCH   1   7
ATOM      7  S   UNL     1      -0.505  13.252  -4.503  0.00  0.00    +0.075 S 
ATOM      8  O   UNL     1       0.399  13.845  -3.582  0.00  0.00    -0.150 OA
ATOM      9  O   UNL     1      -0.283  13.267  -5.906  0.00  0.00    -0.150 OA
BRANCH   7  10
ATOM     10  N   UNL     1      -1.977  13.967  -4.249  0.00  0.00    -0.203 N 
BRANCH  10  11
ATOM     11  C   UNL     1      -2.884  14.091  -5.304  0.00  0.00    +0.051 A 
ATOM     12  C   UNL     1      -4.134  13.489  -5.221  0.00  0.00    +0.025 A 
ATOM     13  C   UNL     1      -5.030  13.618  -6.264  0.00  0.00    +0.002 A 
ATOM     14  C   UNL     1      -4.681  14.335  -7.393  0.00  0.00    +0.000 A 
ATOM     15  C   UNL     1      -3.436  14.931  -7.481  0.00  0.00    +0.002 A 
ATOM     16  C   UNL     1      -2.537  14.811  -6.440  0.00  0.00    +0.025 A 
ENDBRANCH  10  11
BRANCH  10  18
ATOM     17  C   UNL     1      -1.997  15.961  -2.833  0.00  0.00    +0.026 C 
ATOM     18  C   UNL     1      -2.327  14.470  -2.918  0.00  0.00    +0.128 C 
ENDBRANCH  10  18
ENDBRANCH   7  10
ENDBRANCH   1   7
BRANCH   4  19
ATOM     19  O   UNL     1      -1.025   7.598  -2.943  0.00  0.00    -0.483 OA
BRANCH  19  20
ATOM     20  C   UNL     1      -0.734   7.271  -1.583  0.00  0.00    +0.324 C 
BRANCH  20  21
ATOM     21  C   UNL     1      -0.920   5.791  -1.371  0.00  0.00    +0.251 C 
ATOM     22  O   UNL     1      -1.268   5.085  -2.295  0.00  0.00    -0.272 OA
ATOM     23  N   UNL     1      -0.700   5.251  -0.156  0.00  0.00    -0.310 N 
ATOM     24  H   UNL     1      -0.421   5.815   0.582  0.00  0.00    +0.149 HD
BRANCH  23  25
ATOM     25  C   UNL     1      -0.881   3.808   0.050  0.00  0.00    +0.070 C 
ATOM     26  C   UNL     1      -0.018   3.357   1.229  0.00  0.00    +0.009 C 
ATOM     27  C   UNL     1      -0.192   1.856   1.457  0.00  0.00    -0.072 C 
ATOM     28  C   UNL     1      -2.559   2.038   0.643  0.00  0.00    -0.072 C 
ATOM     29  C   UNL     1      -2.345   3.528   0.389  0.00  0.00    +0.009 C 
ATOM     30  C   UNL     1      -2.575   1.288  -0.694  0.00  0.00    -0.010 C 
ATOM     31  C   UNL     1      -3.960   1.873   1.275  0.00  0.00    -0.010 C 
ATOM     32  C   UNL     1       0.497   1.506   2.795  0.00  0.00    -0.010 C 
ATOM     33  C   UNL     1       0.531   1.078   0.354  0.00  0.00    -0.010 C 
ATOM     34  N   UNL     1      -1.607   1.420   1.604  0.00  0.00    +0.386 N 
ATOM     35  H   UNL     1      -1.916   1.655   2.554  0.00  0.00    -0.084 HD
ATOM     36  H   UNL     1      -1.642   0.402   1.475  0.00  0.00    -0.084 HD
ENDBRANCH  23  25
ENDBRANCH  20  21
ENDBRANCH  19  20
ENDBRANCH   4  19
TORSDOF 8
