REMARK  Name = ZINC20115253
REMARK  9 active torsions:
REMARK  status: ('A' for Active; 'I' for Inactive)
REMARK    1  A    between atoms: C_1  and  C_2
REMARK    2  A    between atoms: C_2  and  C_4
REMARK    3  A    between atoms: C_2  and  O_18
REMARK    4  A    between atoms: N_6  and  N_7
REMARK    5  A    between atoms: C_8  and  C_9
REMARK    6  A    between atoms: C_8  and  C_10
REMARK    7  A    between atoms: C_12  and  O_17
REMARK    8  A    between atoms: C_15  and  O_16
REMARK    9  A    between atoms: O_18  and  C_19
REMARK                            x       y       z     vdW  Elec       q    Type
REMARK                         _______ _______ _______ _____ _____    ______ ____
ROOT
ATOM      1  C   UNL     1      -1.069   0.122  -0.188  0.00  0.00    +0.273 C 
ATOM      2  O   UNL     1      -1.254  -0.499   0.837  0.00  0.00    -0.270 OA
ATOM      3  N   UNL     1      -2.042   0.192  -1.118  0.00  0.00    -0.204 N 
ATOM      4  H   UNL     1      -1.894   0.688  -1.938  0.00  0.00    +0.177 HD
ENDROOT
BRANCH   3   5
ATOM      5  N   UNL     1      -3.267  -0.453  -0.901  0.00  0.00    -0.184 NA
ATOM      6  C   UNL     1      -4.165  -0.471  -1.837  0.00  0.00    +0.067 C 
ATOM      7  C   UNL     1      -5.528  -1.054  -1.562  0.00  0.00    +0.068 C 
BRANCH   6   8
ATOM      8  C   UNL     1      -3.854   0.078  -3.169  0.00  0.00    +0.042 A 
ATOM      9  C   UNL     1      -2.893  -0.537  -3.974  0.00  0.00    +0.058 A 
ATOM     10  C   UNL     1      -2.606  -0.016  -5.223  0.00  0.00    +0.118 A 
ATOM     11  C   UNL     1      -3.271   1.116  -5.677  0.00  0.00    +0.049 A 
ATOM     12  C   UNL     1      -4.223   1.730  -4.885  0.00  0.00    +0.049 A 
ATOM     13  C   UNL     1      -4.524   1.217  -3.635  0.00  0.00    +0.126 A 
BRANCH  13  14
ATOM     14  O   UNL     1      -5.464   1.819  -2.860  0.00  0.00    -0.506 OA
ATOM     15  H   UNL     1      -5.127   2.557  -2.335  0.00  0.00    +0.292 HD
ENDBRANCH  13  14
BRANCH  10  16
ATOM     16  O   UNL     1      -1.671  -0.614  -6.009  0.00  0.00    -0.507 OA
ATOM     17  H   UNL     1      -2.026  -1.298  -6.593  0.00  0.00    +0.292 HD
ENDBRANCH  10  16
ENDBRANCH   6   8
ENDBRANCH   3   5
BRANCH   1  19
ATOM     18  C   UNL     1       0.026   2.328  -0.472  0.00  0.00    +0.062 C 
ATOM     19  C   UNL     1       0.248   0.815  -0.422  0.00  0.00    +0.257 C 
BRANCH  19  20
ATOM     20  O   UNL     1       1.148   0.501   0.643  0.00  0.00    -0.478 OA
BRANCH  20  21
ATOM     21  C   UNL     1       2.469   0.418   0.331  0.00  0.00    +0.140 A 
ATOM     22  C   UNL     1       2.903   0.750  -0.944  0.00  0.00    +0.048 A 
ATOM     23  C   UNL     1       4.245   0.665  -1.259  0.00  0.00    +0.023 A 
ATOM     24  C   UNL     1       5.157   0.251  -0.304  0.00  0.00    +0.043 A 
ATOM     25  C   UNL     1       4.726  -0.080   0.969  0.00  0.00    +0.043 A 
ATOM     26  C   UNL     1       3.385   0.008   1.290  0.00  0.00    +0.084 A 
ATOM     27 CL   UNL     1       2.845  -0.400   2.889  0.00  0.00    -0.080 Cl
ATOM     28 CL   UNL     1       6.843   0.145  -0.703  0.00  0.00    -0.083 Cl
ENDBRANCH  20  21
ENDBRANCH  19  20
ENDBRANCH   1  19
TORSDOF 7
