REMARK  Name = ZINC44854138
REMARK  8 active torsions:
REMARK  status: ('A' for Active; 'I' for Inactive)
REMARK    1  A    between atoms: C_1  and  C_2
REMARK    2  A    between atoms: N_5  and  C_8
REMARK    3  A    between atoms: C_11  and  C_14
REMARK    4  A    between atoms: C_14  and  C_16
REMARK    5  A    between atoms: C_14  and  N_17
REMARK    6  A    between atoms: C_18  and  C_20
REMARK    7  A    between atoms: N_24  and  S_33
REMARK    8  A    between atoms: S_33  and  C_36
REMARK                            x       y       z     vdW  Elec       q    Type
REMARK                         _______ _______ _______ _____ _____    ______ ____
ROOT
ATOM      1  N   UNL     1      -2.079  -6.090   6.085  0.00  0.00    -0.306 N 
ATOM      2  C   UNL     1      -2.755  -6.492   7.179  0.00  0.00    +0.254 C 
ATOM      3  O   UNL     1      -3.809  -7.079   7.059  0.00  0.00    -0.272 OA
ATOM      4  H   UNL     1      -1.236  -5.621   6.181  0.00  0.00    +0.149 HD
ENDROOT
BRANCH   2   5
ATOM      5  C   UNL     1      -2.202  -6.211   8.552  0.00  0.00    +0.260 C 
ATOM      6  C   UNL     1      -0.890  -6.964   8.725  0.00  0.00    +0.075 C 
ATOM      7  C   UNL     1      -0.179  -6.603  10.016  0.00  0.00    +0.135 C 
ATOM      8  N   UNL     1      -0.990  -7.001  11.175  0.00  0.00    -0.204 N 
ATOM      9  C   UNL     1      -2.027  -6.147  11.579  0.00  0.00    +0.094 A 
ATOM     10  C   UNL     1      -1.979  -5.504  12.804  0.00  0.00    +0.048 A 
ATOM     11  C   UNL     1      -3.012  -4.659  13.176  0.00  0.00    +0.043 A 
ATOM     12  C   UNL     1      -4.086  -4.458  12.327  0.00  0.00    +0.024 A 
ATOM     13  C   UNL     1      -4.138  -5.102  11.103  0.00  0.00    +0.049 A 
ATOM     14  C   UNL     1      -3.111  -5.949  10.729  0.00  0.00    +0.144 A 
ATOM     15  O   UNL     1      -3.158  -6.609   9.532  0.00  0.00    -0.478 OA
ATOM     16 CL   UNL     1      -2.959  -3.851  14.711  0.00  0.00    -0.083 Cl
BRANCH   8  17
ATOM     17  S   UNL     1      -0.690  -8.416  11.980  0.00  0.00    +0.043 S 
ATOM     18  O   UNL     1      -1.935  -8.772  12.565  0.00  0.00    -0.155 OA
ATOM     19  O   UNL     1      -0.075  -9.259  11.015  0.00  0.00    -0.155 OA
ATOM     20  C   UNL     1       0.504  -7.973  13.272  0.00  0.00    +0.218 C 
ENDBRANCH   8  17
ENDBRANCH   2   5
BRANCH   1  21
ATOM     21  C   UNL     1      -2.617  -6.364   4.750  0.00  0.00    +0.100 C 
ATOM     22  C   UNL     1      -2.202  -7.770   4.311  0.00  0.00    +0.033 C 
BRANCH  21  26
ATOM     23  C   UNL     1      -1.080  -3.494   1.980  0.00  0.00    +0.030 A 
ATOM     24  C   UNL     1      -2.407  -3.899   1.899  0.00  0.00    +0.023 A 
ATOM     25  C   UNL     1      -2.900  -4.827   2.795  0.00  0.00    +0.007 A 
ATOM     26  C   UNL     1      -2.075  -5.352   3.773  0.00  0.00    -0.027 A 
ATOM     27  C   UNL     1      -0.754  -4.952   3.856  0.00  0.00    +0.007 A 
ATOM     28  C   UNL     1      -0.253  -4.028   2.960  0.00  0.00    +0.023 A 
BRANCH  23  33
ATOM     29  C   UNL     1      -0.045   1.525  -0.005  0.00  0.00    +0.007 C 
ATOM     30  C   UNL     1      -0.011  -0.004  -0.005  0.00  0.00    -0.011 C 
ATOM     31  C   UNL     1      -1.442  -0.546  -0.007  0.00  0.00    +0.022 C 
ATOM     32  C   UNL     1      -1.404  -2.077  -0.042  0.00  0.00    +0.105 C 
ATOM     33  N   UNL     1      -0.578  -2.556   1.075  0.00  0.00    -0.330 N 
ATOM     34  C   UNL     1       0.785  -2.029   1.222  0.00  0.00    +0.105 C 
ATOM     35  C   UNL     1       0.723  -0.498   1.244  0.00  0.00    +0.022 C 
ENDBRANCH  23  33
ENDBRANCH  21  26
ENDBRANCH   1  21
TORSDOF 5
