REMARK  Name = ZINC09508374
REMARK  5 active torsions:
REMARK  status: ('A' for Active; 'I' for Inactive)
REMARK    1  A    between atoms: C_1  and  C_2
REMARK    2  A    between atoms: C_2  and  C_21
REMARK    3  A    between atoms: N_5  and  C_9
REMARK    4  A    between atoms: C_9  and  C_10
REMARK    5  A    between atoms: N_12  and  C_13
REMARK                            x       y       z     vdW  Elec       q    Type
REMARK                         _______ _______ _______ _____ _____    ______ ____
ROOT
ATOM      1  C   UNL     1      -7.324   0.335  -1.470  0.00  0.00    +0.047 C 
ATOM      2  C   UNL     1      -7.633   1.760  -1.006  0.00  0.00    +0.136 C 
ATOM      3  C   UNL     1      -6.517   2.709  -1.395  0.00  0.00    +0.251 C 
ATOM      4  O   UNL     1      -6.139   2.974  -2.516  0.00  0.00    -0.272 OA
ATOM      5  N   UNL     1      -6.030   3.194  -0.236  0.00  0.00    -0.215 N 
ATOM      6  C   UNL     1      -6.682   2.695   0.820  0.00  0.00    +0.310 C 
ATOM      7  O   UNL     1      -6.426   2.987   1.972  0.00  0.00    -0.252 OA
ATOM      8  N   UNL     1      -7.652   1.833   0.465  0.00  0.00    -0.281 N 
ATOM      9  H   UNL     1      -8.248   1.353   1.062  0.00  0.00    +0.152 HD
ENDROOT
BRANCH   2  10
ATOM     10  C   UNL     1      -8.946   2.229  -1.577  0.00  0.00    +0.003 A 
ATOM     11  C   UNL     1      -9.969   2.614  -0.732  0.00  0.00    +0.009 A 
ATOM     12  C   UNL     1     -11.172   3.050  -1.255  0.00  0.00    +0.020 A 
ATOM     13  C   UNL     1     -11.356   3.090  -2.626  0.00  0.00    +0.042 A 
ATOM     14  C   UNL     1     -10.334   2.699  -3.472  0.00  0.00    +0.040 A 
ATOM     15  C   UNL     1      -9.129   2.269  -2.948  0.00  0.00    +0.048 A 
ATOM     16 CL   UNL     1      -7.846   1.778  -4.010  0.00  0.00    -0.083 Cl
ATOM     17 CL   UNL     1     -12.869   3.631  -3.283  0.00  0.00    -0.083 Cl
ENDBRANCH   2  10
BRANCH   5  18
ATOM     18  C   UNL     1      -4.928   4.155  -0.144  0.00  0.00    +0.214 C 
BRANCH  18  19
ATOM     19  C   UNL     1      -3.621   3.412  -0.047  0.00  0.00    +0.235 C 
ATOM     20  O   UNL     1      -3.610   2.199  -0.054  0.00  0.00    -0.274 OA
ATOM     21  N   UNL     1      -2.463   4.095   0.047  0.00  0.00    -0.282 N 
ATOM     22  H   UNL     1      -2.475   5.061   0.133  0.00  0.00    +0.155 HD
BRANCH  21  23
ATOM     23  C   UNL     1      -1.241   3.410   0.021  0.00  0.00    +0.072 A 
ATOM     24  C   UNL     1      -1.153   2.169  -0.595  0.00  0.00    +0.064 A 
ATOM     25  C   UNL     1       0.053   1.492  -0.614  0.00  0.00    +0.125 A 
ATOM     26  C   UNL     1       1.175   2.057  -0.030  0.00  0.00    +0.041 A 
ATOM     27  C   UNL     1       1.091   3.296   0.578  0.00  0.00    +0.043 A 
ATOM     28  C   UNL     1      -0.113   3.975   0.606  0.00  0.00    +0.145 A 
ATOM     29  F   UNL     1      -0.194   5.185   1.200  0.00  0.00    -0.204 F 
ATOM     30  F   UNL     1       0.138   0.282  -1.208  0.00  0.00    -0.205 F 
ENDBRANCH  21  23
ENDBRANCH  18  19
ENDBRANCH   5  18
TORSDOF 4
