REMARK  Name = ZINC37840616
REMARK  4 active torsions:
REMARK  status: ('A' for Active; 'I' for Inactive)
REMARK    1  A    between atoms: C_1  and  C_2
REMARK    2  A    between atoms: C_7  and  C_8
REMARK    3  A    between atoms: N_13  and  S_14
REMARK    4  A    between atoms: S_14  and  C_17
REMARK                            x       y       z     vdW  Elec       q    Type
REMARK                         _______ _______ _______ _____ _____    ______ ____
ROOT
ATOM      1  C   UNL     1       0.025   0.045   2.504  0.00  0.00    +0.110 C 
ATOM      2  C   UNL     1      -1.424   0.357   2.933  0.00  0.00    +0.027 C 
ATOM      3  C   UNL     1      -1.384   0.150   4.470  0.00  0.00    +0.019 C 
ATOM      4  C   UNL     1      -0.394  -1.034   4.599  0.00  0.00    +0.110 C 
ATOM      5  N   UNL     1       0.624  -0.791   3.555  0.00  0.00    -0.169 NA
ENDROOT
BRANCH   1  12
ATOM      6  C   UNL     1      -0.018   1.503   0.010  0.00  0.00    +0.044 C 
ATOM      7  C   UNL     1       0.002  -0.004   0.002  0.00  0.00    -0.046 A 
ATOM      8  C   UNL     1       0.006  -0.689  -1.199  0.00  0.00    +0.003 A 
ATOM      9  C   UNL     1       0.025  -2.071  -1.207  0.00  0.00    +0.000 A 
ATOM     10  C   UNL     1       0.040  -2.768  -0.013  0.00  0.00    +0.000 A 
ATOM     11  C   UNL     1       0.037  -2.084   1.188  0.00  0.00    +0.005 A 
ATOM     12  C   UNL     1       0.023  -0.702   1.195  0.00  0.00    -0.026 A 
ENDBRANCH   1  12
BRANCH   5  13
ATOM     13  S   UNL     1       2.178  -1.364   3.564  0.00  0.00    +0.064 S 
ATOM     14  O   UNL     1       2.179  -2.520   4.391  0.00  0.00    -0.153 OA
ATOM     15  O   UNL     1       2.607  -1.396   2.210  0.00  0.00    -0.153 OA
BRANCH  13  16
ATOM     16  C   UNL     1       3.172  -0.160   4.380  0.00  0.00    +0.142 A 
ATOM     17  C   UNL     1       3.805   0.881   3.791  0.00  0.00    +0.133 A 
ATOM     18  N   UNL     1       4.458   1.565   4.755  0.00  0.00    -0.283 N 
ATOM     19  H   UNL     1       4.997   2.360   4.625  0.00  0.00    +0.188 HD
ATOM     20  N   UNL     1       4.218   0.922   5.976  0.00  0.00    -0.180 NA
ATOM     21  C   UNL     1       3.442  -0.107   5.751  0.00  0.00    +0.162 A 
ENDBRANCH  13  16
ENDBRANCH   5  13
TORSDOF 3
