REMARK  Name = ZINC36648011
REMARK  9 active torsions:
REMARK  status: ('A' for Active; 'I' for Inactive)
REMARK    1  A    between atoms: C_1  and  N_2
REMARK    2  A    between atoms: N_2  and  C_3
REMARK    3  A    between atoms: N_2  and  C_4
REMARK    4  A    between atoms: C_4  and  C_5
REMARK    5  A    between atoms: C_5  and  C_6
REMARK    6  A    between atoms: C_6  and  N_7
REMARK    7  A    between atoms: C_17  and  C_19
REMARK    8  A    between atoms: N_24  and  S_26
REMARK    9  A    between atoms: S_26  and  C_29
REMARK                            x       y       z     vdW  Elec       q    Type
REMARK                         _______ _______ _______ _____ _____    ______ ____
ROOT
ATOM      1  N   UNL     1      -2.691  -4.136  -0.329  0.00  0.00    -0.250 N 
ATOM      2  C   UNL     1      -2.528  -5.077   0.674  0.00  0.00    +0.168 A 
ATOM      3  N   UNL     1      -2.291  -4.886   1.951  0.00  0.00    -0.224 NA
ATOM      4  C   UNL     1      -2.154  -5.907   2.825  0.00  0.00    +0.080 A 
ATOM      5  C   UNL     1      -1.898  -5.840   4.214  0.00  0.00    +0.029 A 
ATOM      6  C   UNL     1      -1.786  -6.983   4.961  0.00  0.00    +0.002 A 
ATOM      7  C   UNL     1      -1.919  -8.240   4.389  0.00  0.00    +0.001 A 
ATOM      8  C   UNL     1      -2.169  -8.343   3.033  0.00  0.00    +0.017 A 
ATOM      9  C   UNL     1      -2.283  -7.204   2.276  0.00  0.00    +0.041 A 
ATOM     10  S   UNL     1      -2.596  -6.859   0.561  0.00  0.00    -0.052 S 
ATOM     11  C   UNL     1      -3.033  -4.528  -1.572  0.00  0.00    +0.226 C 
ATOM     12  O   UNL     1      -3.089  -3.716  -2.471  0.00  0.00    -0.275 OA
ENDROOT
BRANCH  11  13
ATOM     13  C   UNL     1      -3.345  -5.977  -1.846  0.00  0.00    +0.091 C 
ATOM     14  C   UNL     1      -4.674  -6.347  -1.184  0.00  0.00    +0.015 C 
ATOM     15  C   UNL     1      -4.976  -7.827  -1.434  0.00  0.00    +0.018 C 
ATOM     16  C   UNL     1      -5.101  -8.071  -2.941  0.00  0.00    +0.109 C 
ATOM     17  N   UNL     1      -3.883  -7.584  -3.602  0.00  0.00    -0.175 NA
ATOM     18  C   UNL     1      -3.451  -6.201  -3.357  0.00  0.00    +0.122 C 
BRANCH  17  19
ATOM     19  S   UNL     1      -3.012  -8.575  -4.603  0.00  0.00    +0.067 S 
ATOM     20  O   UNL     1      -1.685  -8.066  -4.625  0.00  0.00    -0.152 OA
ATOM     21  O   UNL     1      -3.311  -9.908  -4.214  0.00  0.00    -0.152 OA
BRANCH  19  22
ATOM     22  C   UNL     1      -3.657  -8.368  -6.230  0.00  0.00    +0.144 A 
ATOM     23  C   UNL     1      -3.279  -7.493  -7.193  0.00  0.00    +0.038 A 
ATOM     24  C   UNL     1      -3.935  -7.510  -8.410  0.00  0.00    +0.030 A 
ATOM     25  C   UNL     1      -4.938  -8.403  -8.603  0.00  0.00    +0.080 A 
ATOM     26  S   UNL     1      -4.973  -9.263  -7.039  0.00  0.00    -0.057 S 
ATOM     27 CL   UNL     1      -5.926  -8.650 -10.009  0.00  0.00    -0.076 Cl
ENDBRANCH  19  22
ENDBRANCH  17  19
ENDBRANCH  11  13
BRANCH   1  28
ATOM     28  C   UNL     1      -2.491  -2.714  -0.039  0.00  0.00    +0.114 C 
BRANCH  28  29
ATOM     29  C   UNL     1      -1.027  -2.344  -0.282  0.00  0.00    +0.001 C 
BRANCH  29  30
ATOM     30  C   UNL     1      -0.818  -0.859   0.021  0.00  0.00    -0.078 C 
BRANCH  30  32
ATOM     31  C   UNL     1       0.763   0.944  -0.037  0.00  0.00    -0.097 C 
ATOM     32  N   UNL     1       0.588  -0.504  -0.212  0.00  0.00    +0.376 N 
ATOM     33  C   UNL     1       1.439  -1.220   0.748  0.00  0.00    -0.097 C 
ATOM     34  H   UNL     1       0.849  -0.764  -1.151  0.00  0.00    -0.083 HD
ENDBRANCH  30  32
ENDBRANCH  29  30
ENDBRANCH  28  29
ENDBRANCH   1  28
TORSDOF 7
