REMARK  Name = ZINC39639192
REMARK  12 active torsions:
REMARK  status: ('A' for Active; 'I' for Inactive)
REMARK    1  A    between atoms: C_1  and  C_2
REMARK    2  A    between atoms: C_7  and  C_8
REMARK    3  A    between atoms: C_8  and  C_9
REMARK    4  A    between atoms: C_13  and  C_22
REMARK    5  A    between atoms: N_24  and  C_25
REMARK    6  A    between atoms: C_25  and  C_26
REMARK    7  A    between atoms: C_27  and  O_36
REMARK    8  A    between atoms: C_29  and  O_34
REMARK    9  A    between atoms: C_31  and  O_32
REMARK   10  A    between atoms: O_32  and  C_33
REMARK   11  A    between atoms: O_34  and  C_35
REMARK   12  A    between atoms: O_36  and  C_37
REMARK                            x       y       z     vdW  Elec       q    Type
REMARK                         _______ _______ _______ _____ _____    ______ ____
ROOT
ATOM      1  C   UNL     1      -1.106   0.283   2.988  0.00  0.00    +0.220 C 
ATOM      2  O   UNL     1      -1.962  -0.120   2.229  0.00  0.00    -0.275 OA
ATOM      3  N   UNL     1      -1.454   0.984   4.086  0.00  0.00    -0.300 N 
ATOM      4  C   UNL     1      -0.560   1.559   5.117  0.00  0.00    +0.121 C 
ATOM      5  C   UNL     1      -1.190   2.928   5.460  0.00  0.00    +0.100 C 
ATOM      6  C   UNL     1      -2.672   2.785   5.077  0.00  0.00    -0.004 C 
ATOM      7  C   UNL     1      -2.818   1.357   4.530  0.00  0.00    +0.115 C 
ATOM      8  C   UNL     1      -3.038   3.797   3.996  0.00  0.00    -0.010 C 
ATOM      9  C   UNL     1      -4.530   3.674   3.672  0.00  0.00    -0.082 C 
ATOM     10  N   UNL     1      -5.318   3.918   4.887  0.00  0.00    +0.379 N 
ATOM     11  C   UNL     1      -5.027   2.885   5.888  0.00  0.00    -0.082 C 
ATOM     12  C   UNL     1      -3.557   2.974   6.305  0.00  0.00    -0.010 C 
ATOM     13  H   UNL     1      -5.082   4.824   5.263  0.00  0.00    -0.086 HD
ATOM     14  H   UNL     1      -6.300   3.897   4.659  0.00  0.00    -0.086 HD
ENDROOT
BRANCH   5  15
ATOM     15  C   UNL     1      -0.540   4.022   4.653  0.00  0.00    +0.218 C 
ATOM     16  O   UNL     1      -0.094   3.779   3.551  0.00  0.00    -0.275 OA
ATOM     17  N   UNL     1      -0.454   5.270   5.155  0.00  0.00    -0.311 N 
ATOM     18  H   UNL     1      -0.810   5.463   6.036  0.00  0.00    +0.149 HD
BRANCH  17  19
ATOM     19  C   UNL     1       0.178   6.333   4.370  0.00  0.00    +0.147 C 
BRANCH  19  20
ATOM     20  C   UNL     1       0.146   7.621   5.152  0.00  0.00    +0.053 A 
ATOM     21  C   UNL     1      -0.934   8.481   5.026  0.00  0.00    +0.132 A 
ATOM     22  C   UNL     1      -0.964   9.667   5.746  0.00  0.00    +0.091 A 
ATOM     23  C   UNL     1       0.086   9.992   6.591  0.00  0.00    +0.127 A 
ATOM     24  C   UNL     1       1.166   9.131   6.717  0.00  0.00    +0.091 A 
ATOM     25  C   UNL     1       1.194   7.943   6.001  0.00  0.00    +0.132 A 
BRANCH  25  26
ATOM     26  O   UNL     1       2.250   7.098   6.128  0.00  0.00    -0.495 OA
ATOM     27  C   UNL     1       3.294   7.493   7.020  0.00  0.00    +0.277 C 
ENDBRANCH  25  26
BRANCH  23  28
ATOM     28  O   UNL     1       0.058  11.153   7.295  0.00  0.00    -0.495 OA
ATOM     29  C   UNL     1       1.173  11.424   8.146  0.00  0.00    +0.277 C 
ENDBRANCH  23  28
BRANCH  21  30
ATOM     30  O   UNL     1      -1.964   8.163   4.198  0.00  0.00    -0.495 OA
ATOM     31  C   UNL     1      -3.044   9.095   4.118  0.00  0.00    +0.277 C 
ENDBRANCH  21  30
ENDBRANCH  19  20
ENDBRANCH  17  19
ENDBRANCH   5  15
BRANCH   1  32
ATOM     32  C   UNL     1       0.346   0.001   2.704  0.00  0.00    +0.131 C 
BRANCH  32  39
ATOM     33  C   UNL     1       0.398   1.363   0.156  0.00  0.00    +0.044 C 
ATOM     34  C   UNL     1       0.488  -0.140   0.209  0.00  0.00    -0.047 A 
ATOM     35  C   UNL     1       0.602  -0.868  -0.962  0.00  0.00    +0.003 A 
ATOM     36  C   UNL     1       0.684  -2.246  -0.913  0.00  0.00    +0.000 A 
ATOM     37  C   UNL     1       0.655  -2.898   0.305  0.00  0.00    +0.000 A 
ATOM     38  C   UNL     1       0.542  -2.171   1.476  0.00  0.00    +0.004 A 
ATOM     39  C   UNL     1       0.464  -0.792   1.427  0.00  0.00    -0.036 A 
ENDBRANCH  32  39
ENDBRANCH   1  32
TORSDOF 8
