REMARK  Name = ZINC39886252
REMARK  4 active torsions:
REMARK  status: ('A' for Active; 'I' for Inactive)
REMARK    1  A    between atoms: C_1  and  C_2
REMARK    2  A    between atoms: C_7  and  N_8
REMARK    3  A    between atoms: C_11  and  C_12
REMARK    4  A    between atoms: C_17  and  O_18
REMARK                            x       y       z     vdW  Elec       q    Type
REMARK                         _______ _______ _______ _____ _____    ______ ____
ROOT
ATOM      1  N   UNL     1      -0.570  -0.005   2.392  0.00  0.00    -0.231 NA
ATOM      2  C   UNL     1      -0.550  -0.679   3.522  0.00  0.00    +0.140 C 
ATOM      3  C   UNL     1      -0.375  -0.013   4.827  0.00  0.00    +0.058 C 
ATOM      4  C   UNL     1      -0.215   1.305   5.107  0.00  0.00    +0.030 C 
ATOM      5  S   UNL     1      -0.433  -1.410   5.939  0.00  0.00    -0.028 S 
ATOM      6  C   UNL     1      -0.665  -2.697   4.726  0.00  0.00    +0.282 C 
ATOM      7  O   UNL     1      -0.776  -3.894   4.912  0.00  0.00    -0.262 OA
ATOM      8  N   UNL     1      -0.695  -2.030   3.556  0.00  0.00    -0.260 N 
ATOM      9  H   UNL     1      -0.817  -2.520   2.728  0.00  0.00    +0.157 HD
ENDROOT
BRANCH   1  16
ATOM     10  C   UNL     1       1.220   0.475   0.238  0.00  0.00    +0.046 C 
ATOM     11  C   UNL     1       0.041  -0.455   0.120  0.00  0.00    -0.025 A 
ATOM     12  C   UNL     1      -0.202  -1.118  -1.065  0.00  0.00    +0.005 A 
ATOM     13  C   UNL     1      -1.285  -1.972  -1.175  0.00  0.00    +0.000 A 
ATOM     14  C   UNL     1      -2.132  -2.169  -0.098  0.00  0.00    +0.002 A 
ATOM     15  C   UNL     1      -1.903  -1.513   1.093  0.00  0.00    +0.028 A 
ATOM     16  C   UNL     1      -0.807  -0.653   1.214  0.00  0.00    +0.069 A 
ENDBRANCH   1  16
BRANCH   4  17
ATOM     17  C   UNL     1      -0.223   1.766   6.502  0.00  0.00    +0.018 A 
ATOM     18  C   UNL     1      -0.886   1.023   7.485  0.00  0.00    +0.011 A 
ATOM     19  C   UNL     1      -0.889   1.462   8.791  0.00  0.00    +0.001 A 
ATOM     20  C   UNL     1      -0.238   2.636   9.136  0.00  0.00    +0.004 A 
ATOM     21  C   UNL     1       0.420   3.380   8.175  0.00  0.00    +0.046 A 
ATOM     22  C   UNL     1       0.439   2.952   6.858  0.00  0.00    +0.124 A 
BRANCH  22  23
ATOM     23  O   UNL     1       1.090   3.680   5.914  0.00  0.00    -0.506 OA
ATOM     24  H   UNL     1       0.540   4.349   5.485  0.00  0.00    +0.292 HD
ENDBRANCH  22  23
ENDBRANCH   4  17
TORSDOF 3
