REMARK  Name = ZINC08316176
REMARK  4 active torsions:
REMARK  status: ('A' for Active; 'I' for Inactive)
REMARK    1  A    between atoms: C_5  and  C_7
REMARK    2  A    between atoms: C_7  and  C_8
REMARK    3  A    between atoms: N_10  and  N_11
REMARK    4  A    between atoms: C_12  and  C_14
REMARK                            x       y       z     vdW  Elec       q    Type
REMARK                         _______ _______ _______ _____ _____    ______ ____
ROOT
ATOM      1  N   UNL     1      -2.386  -0.486   0.069  0.00  0.00    -0.230 N 
ATOM      2  C   UNL     1      -1.120  -0.947   0.030  0.00  0.00    +0.267 C 
ATOM      3  O   UNL     1      -0.909  -2.145   0.018  0.00  0.00    -0.268 OA
ATOM      4  H   UNL     1      -2.555   0.469   0.079  0.00  0.00    +0.173 HD
ENDROOT
BRANCH   2   5
ATOM      5  C   UNL     1       0.002  -0.004   0.002  0.00  0.00    +0.076 A 
ATOM      6  C   UNL     1       1.355  -0.261  -0.039  0.00  0.00    +0.024 A 
ATOM      7  C   UNL     1       2.235   0.823  -0.072  0.00  0.00    -0.036 A 
ATOM      8  C   UNL     1       1.693   2.055  -0.003  0.00  0.00    -0.006 A 
ATOM      9  S   UNL     1      -0.022   1.777   0.012  0.00  0.00    -0.088 S 
ATOM     10  C   UNL     1       2.292   3.431   0.123  0.00  0.00    +0.043 C 
ATOM     11  C   UNL     1       3.819   3.395   0.200  0.00  0.00    +0.005 C 
ATOM     12  C   UNL     1       4.425   3.225  -1.183  0.00  0.00    +0.000 C 
ATOM     13  C   UNL     1       3.620   2.291  -2.065  0.00  0.00    +0.000 C 
ATOM     14  C   UNL     1       4.072   0.865  -1.737  0.00  0.00    +0.005 C 
ATOM     15  C   UNL     1       3.719   0.555  -0.283  0.00  0.00    +0.036 C 
ENDBRANCH   2   5
BRANCH   1  18
ATOM     16  C   UNL     1      -4.725  -0.926   0.135  0.00  0.00    +0.233 C 
ATOM     17  O   UNL     1      -4.936   0.269   0.147  0.00  0.00    -0.274 OA
ATOM     18  N   UNL     1      -3.459  -1.386   0.096  0.00  0.00    -0.234 N 
ATOM     19  H   UNL     1      -3.291  -2.342   0.087  0.00  0.00    +0.173 HD
BRANCH  16  20
ATOM     20  C   UNL     1      -5.879  -1.895   0.164  0.00  0.00    +0.135 C 
BRANCH  20  25
ATOM     21  C   UNL     1      -8.980  -0.172   1.456  0.00  0.00    +0.000 A 
ATOM     22  C   UNL     1      -9.558   0.276   0.282  0.00  0.00    +0.003 A 
ATOM     23  C   UNL     1      -8.947   0.021  -0.931  0.00  0.00    +0.038 A 
ATOM     24  C   UNL     1      -7.754  -0.682  -0.970  0.00  0.00    +0.127 A 
ATOM     25  C   UNL     1      -7.176  -1.129   0.205  0.00  0.00    -0.003 A 
ATOM     26  C   UNL     1      -7.793  -0.879   1.417  0.00  0.00    +0.007 A 
ATOM     27  F   UNL     1      -7.156  -0.931  -2.155  0.00  0.00    -0.205 F 
ENDBRANCH  20  25
ENDBRANCH  16  20
ENDBRANCH   1  18
TORSDOF 4
