REMARK  Name = ZINC40729350
REMARK  7 active torsions:
REMARK  status: ('A' for Active; 'I' for Inactive)
REMARK    1  A    between atoms: C_4  and  C_7
REMARK    2  A    between atoms: C_7  and  C_8
REMARK    3  A    between atoms: C_15  and  N_34
REMARK    4  A    between atoms: C_16  and  N_20
REMARK    5  A    between atoms: N_20  and  C_21
REMARK    6  A    between atoms: C_21  and  C_22
REMARK    7  A    between atoms: C_21  and  C_28
REMARK                            x       y       z     vdW  Elec       q    Type
REMARK                         _______ _______ _______ _____ _____    ______ ____
ROOT
ATOM      1  C   UNL     1       3.322  -0.585   2.523  0.00  0.00    -0.004 C 
ATOM      2  C   UNL     1       3.686  -0.651   4.008  0.00  0.00    +0.023 C 
ATOM      3  C   UNL     1       5.051  -1.330   4.165  0.00  0.00    +0.107 C 
ATOM      4  N   UNL     1       5.009  -2.637   3.495  0.00  0.00    -0.314 N 
ATOM      5  C   UNL     1       4.584  -2.697   2.090  0.00  0.00    +0.107 C 
ATOM      6  C   UNL     1       3.225  -2.003   1.956  0.00  0.00    +0.023 C 
ATOM      7  C   UNL     1       5.365  -3.795   4.177  0.00  0.00    +0.147 A 
ATOM      8  C   UNL     1       6.672  -4.281   4.113  0.00  0.00    +0.105 A 
ATOM      9  C   UNL     1       6.976  -5.447   4.817  0.00  0.00    +0.145 A 
ATOM     10  N   UNL     1       6.016  -6.047   5.518  0.00  0.00    -0.219 NA
ATOM     11  C   UNL     1       4.794  -5.554   5.551  0.00  0.00    +0.225 A 
ATOM     12  N   UNL     1       4.466  -4.453   4.905  0.00  0.00    -0.219 NA
ENDROOT
BRANCH   8  13
ATOM     13  N   UNL     1       7.654  -3.616   3.361  0.00  0.00    -0.353 N 
ATOM     14  H   UNL     1       7.453  -2.760   2.950  0.00  0.00    +0.143 HD
ATOM     15  H   UNL     1       8.532  -4.012   3.252  0.00  0.00    +0.143 HD
ENDBRANCH   8  13
BRANCH   9  16
ATOM     16  N   UNL     1       8.261  -5.975   4.787  0.00  0.00    -0.317 N 
ATOM     17  H   UNL     1       8.955  -5.532   4.274  0.00  0.00    +0.148 HD
BRANCH  16  18
ATOM     18  C   UNL     1       8.568  -7.199   5.531  0.00  0.00    +0.132 C 
BRANCH  18  19
ATOM     19  C   UNL     1       8.212  -8.399   4.691  0.00  0.00    -0.023 A 
ATOM     20  C   UNL     1       8.483  -8.399   3.336  0.00  0.00    +0.006 A 
ATOM     21  C   UNL     1       8.156  -9.500   2.566  0.00  0.00    +0.000 A 
ATOM     22  C   UNL     1       7.559 -10.600   3.151  0.00  0.00    +0.000 A 
ATOM     23  C   UNL     1       7.288 -10.600   4.507  0.00  0.00    +0.000 A 
ATOM     24  C   UNL     1       7.619  -9.502   5.278  0.00  0.00    +0.006 A 
ENDBRANCH  18  19
BRANCH  18  25
ATOM     25  C   UNL     1      10.039  -7.234   5.857  0.00  0.00    -0.023 A 
ATOM     26  C   UNL     1      10.964  -6.805   4.924  0.00  0.00    +0.006 A 
ATOM     27  C   UNL     1      12.313  -6.837   5.224  0.00  0.00    +0.000 A 
ATOM     28  C   UNL     1      12.737  -7.296   6.457  0.00  0.00    +0.000 A 
ATOM     29  C   UNL     1      11.812  -7.723   7.390  0.00  0.00    +0.000 A 
ATOM     30  C   UNL     1      10.462  -7.688   7.092  0.00  0.00    +0.006 A 
ENDBRANCH  18  25
ENDBRANCH  16  18
ENDBRANCH   9  16
BRANCH   1  31
ATOM     31  C   UNL     1       1.976   0.124   2.360  0.00  0.00    +0.038 C 
BRANCH  31  35
ATOM     32  C   UNL     1       2.341   4.189   3.621  0.00  0.00    +0.000 A 
ATOM     33  C   UNL     1       2.586   3.849   2.304  0.00  0.00    +0.000 A 
ATOM     34  C   UNL     1       2.468   2.534   1.895  0.00  0.00    +0.003 A 
ATOM     35  C   UNL     1       2.106   1.558   2.805  0.00  0.00    -0.047 A 
ATOM     36  C   UNL     1       1.862   1.897   4.122  0.00  0.00    +0.003 A 
ATOM     37  C   UNL     1       1.978   3.212   4.530  0.00  0.00    +0.000 A 
ENDBRANCH  31  35
ENDBRANCH   1  31
TORSDOF 7
