REMARK  Name = ZINC01130779
REMARK  10 active torsions:
REMARK  status: ('A' for Active; 'I' for Inactive)
REMARK    1  A    between atoms: C_1  and  C_2
REMARK    2  A    between atoms: C_7  and  C_8
REMARK    3  A    between atoms: C_8  and  O_9
REMARK    4  A    between atoms: O_9  and  C_10
REMARK    5  A    between atoms: C_11  and  O_32
REMARK    6  A    between atoms: C_13  and  C_17
REMARK    7  A    between atoms: C_20  and  C_31
REMARK    8  A    between atoms: C_26  and  N_30
REMARK    9  A    between atoms: C_27  and  C_28
REMARK   10  A    between atoms: O_32  and  C_33
REMARK                            x       y       z     vdW  Elec       q    Type
REMARK                         _______ _______ _______ _____ _____    ______ ____
ROOT
ATOM      1  C   UNL     1      -2.049   2.487   3.499  0.00  0.00    +0.176 A 
ATOM      2  C   UNL     1      -1.906   1.120   3.277  0.00  0.00    +0.163 A 
ATOM      3  C   UNL     1      -1.251   0.670   2.143  0.00  0.00    +0.054 A 
ATOM      4  C   UNL     1      -0.730   1.578   1.239  0.00  0.00    -0.030 A 
ATOM      5  C   UNL     1      -0.871   2.935   1.458  0.00  0.00    +0.023 A 
ATOM      6  C   UNL     1      -1.530   3.392   2.586  0.00  0.00    +0.063 A 
ATOM      7 BR   UNL     1      -1.721   5.249   2.883  0.00  0.00    -0.046 Br
ENDROOT
BRANCH   4   8
ATOM      8  C   UNL     1      -0.013   1.086   0.008  0.00  0.00    +0.101 C 
ATOM      9  C   UNL     1       1.399   1.613  -0.003  0.00  0.00    +0.049 A 
ATOM     10  C   UNL     1       2.481   1.247   0.786  0.00  0.00    +0.068 A 
ATOM     11  N   UNL     1       3.512   1.974   0.427  0.00  0.00    -0.176 NA
ATOM     12  N   UNL     1       3.111   2.831  -0.610  0.00  0.00    -0.246 N 
ATOM     13  H   UNL     1       3.689   3.498  -1.079  0.00  0.00    +0.192 HD
ATOM     14  C   UNL     1       1.813   2.595  -0.860  0.00  0.00    +0.222 A 
ATOM     15  O   UNL     1       0.988   3.168  -1.770  0.00  0.00    -0.423 OA
ATOM     16  C   UNL     1      -0.194   2.564  -2.009  0.00  0.00    +0.200 C 
ATOM     17  C   UNL     1      -0.714   1.592  -1.228  0.00  0.00    +0.098 C 
ATOM     18  C   UNL     1       2.471   0.197   1.868  0.00  0.00    +0.068 C 
BRANCH  16  19
ATOM     19  N   UNL     1      -0.911   2.960  -3.111  0.00  0.00    -0.328 N 
ATOM     20  H   UNL     1      -0.564   3.656  -3.691  0.00  0.00    +0.145 HD
ATOM     21  H   UNL     1      -1.765   2.545  -3.309  0.00  0.00    +0.145 HD
ENDBRANCH  16  19
BRANCH  17  22
ATOM     22  C   UNL     1      -1.978   1.021  -1.586  0.00  0.00    +0.101 C 
ATOM     23  N   UNL     1      -2.980   0.569  -1.870  0.00  0.00    -0.191 NA
ENDBRANCH  17  22
ENDBRANCH   4   8
BRANCH   2  24
ATOM     24  O   UNL     1      -2.413   0.229   4.170  0.00  0.00    -0.491 OA
ATOM     25  C   UNL     1      -2.229  -1.158   3.878  0.00  0.00    +0.277 C 
ENDBRANCH   2  24
BRANCH   1  26
ATOM     26  O   UNL     1      -2.697   2.933   4.608  0.00  0.00    -0.483 OA
BRANCH  26  27
ATOM     27  C   UNL     1      -4.107   3.134   4.499  0.00  0.00    +0.265 C 
BRANCH  27  34
ATOM     28  C   UNL     1      -6.928   3.690   4.785  0.00  0.00    +0.044 C 
ATOM     29  C   UNL     1      -5.997   3.893   5.954  0.00  0.00    -0.044 A 
ATOM     30  C   UNL     1      -6.494   4.344   7.162  0.00  0.00    +0.004 A 
ATOM     31  C   UNL     1      -5.640   4.530   8.234  0.00  0.00    +0.000 A 
ATOM     32  C   UNL     1      -4.291   4.263   8.097  0.00  0.00    +0.000 A 
ATOM     33  C   UNL     1      -3.795   3.807   6.890  0.00  0.00    +0.007 A 
ATOM     34  C   UNL     1      -4.648   3.627   5.816  0.00  0.00    -0.007 A 
ENDBRANCH  27  34
ENDBRANCH  26  27
ENDBRANCH   1  26
TORSDOF 7
