REMARK  Name = ZINC33026102
REMARK  7 active torsions:
REMARK  status: ('A' for Active; 'I' for Inactive)
REMARK    1  A    between atoms: C_1  and  C_2
REMARK    2  A    between atoms: C_9  and  C_13
REMARK    3  A    between atoms: C_13  and  S_14
REMARK    4  A    between atoms: S_14  and  C_15
REMARK    5  A    between atoms: C_20  and  N_21
REMARK    6  A    between atoms: C_22  and  C_24
REMARK    7  A    between atoms: C_24  and  N_25
REMARK                            x       y       z     vdW  Elec       q    Type
REMARK                         _______ _______ _______ _____ _____    ______ ____
ROOT
ATOM      1  C   UNL     1       1.964  -6.560   1.433  0.00  0.00    +0.029 A 
ATOM      2  C   UNL     1       2.258  -7.139   0.207  0.00  0.00    +0.016 A 
ATOM      3  C   UNL     1       2.276  -8.515   0.079  0.00  0.00    +0.001 A 
ATOM      4  C   UNL     1       1.990  -9.319   1.167  0.00  0.00    +0.002 A 
ATOM      5  C   UNL     1       1.691  -8.751   2.392  0.00  0.00    +0.024 A 
ATOM      6  C   UNL     1       1.676  -7.371   2.531  0.00  0.00    +0.047 A 
ENDROOT
BRANCH   6   7
ATOM      7  N   UNL     1       1.372  -6.794   3.772  0.00  0.00    -0.283 N 
ATOM      8  C   UNL     1       1.581  -7.488   4.908  0.00  0.00    +0.235 C 
ATOM      9  O   UNL     1       2.124  -8.572   4.865  0.00  0.00    -0.274 OA
ATOM     10  H   UNL     1       0.964  -5.774   3.818  0.00  0.00    +0.155 HD
BRANCH   8  11
ATOM     11  C   UNL     1       1.140  -6.918   6.231  0.00  0.00    +0.213 C 
BRANCH  11  12
ATOM     12  N   UNL     1       1.478  -7.856   7.304  0.00  0.00    -0.225 N 
ATOM     13  C   UNL     1       0.663  -8.831   7.747  0.00  0.00    +0.254 C 
ATOM     14  O   UNL     1      -0.451  -9.069   7.328  0.00  0.00    -0.270 OA
ATOM     15  C   UNL     1       1.353  -9.566   8.829  0.00  0.00    +0.049 A 
ATOM     16  C   UNL     1       1.016 -10.640   9.636  0.00  0.00    +0.014 A 
ATOM     17  C   UNL     1       1.917 -11.094  10.587  0.00  0.00    +0.001 A 
ATOM     18  C   UNL     1       3.148 -10.484  10.733  0.00  0.00    +0.001 A 
ATOM     19  C   UNL     1       3.499  -9.408   9.933  0.00  0.00    +0.014 A 
ATOM     20  C   UNL     1       2.608  -8.943   8.979  0.00  0.00    +0.049 A 
ATOM     21  C   UNL     1       2.641  -7.854   7.980  0.00  0.00    +0.254 C 
ATOM     22  O   UNL     1       3.564  -7.085   7.799  0.00  0.00    -0.270 OA
ENDBRANCH  11  12
ENDBRANCH   8  11
ENDBRANCH   6   7
BRANCH   1  23
ATOM     23  S   UNL     1       1.948  -4.806   1.602  0.00  0.00    -0.117 S 
BRANCH  23  24
ATOM     24  C   UNL     1       2.373  -4.202  -0.055  0.00  0.00    +0.130 C 
BRANCH  24  33
ATOM     25  C   UNL     1      -1.282  -0.776   0.013  0.00  0.00    +0.047 C 
ATOM     26  C   UNL     1       0.013  -0.005  -0.004  0.00  0.00    -0.008 A 
ATOM     27  C   UNL     1       0.001   1.357   0.001  0.00  0.00    +0.008 A 
ATOM     28  C   UNL     1       1.214   2.059  -0.016  0.00  0.00    +0.019 A 
ATOM     29  C   UNL     1       2.388   1.388  -0.037  0.00  0.00    +0.096 A 
ATOM     30  N   UNL     1       2.410   0.026  -0.042  0.00  0.00    -0.268 N 
ATOM     31  C   UNL     1       1.244  -0.686  -0.026  0.00  0.00    +0.143 A 
ATOM     32  N   UNL     1       1.257  -2.018  -0.030  0.00  0.00    -0.233 NA
ATOM     33  C   UNL     1       2.394  -2.696  -0.050  0.00  0.00    +0.059 A 
ATOM     34  C   UNL     1       3.600  -2.022  -0.067  0.00  0.00    +0.094 A 
ATOM     35  C   UNL     1       3.594  -0.623  -0.062  0.00  0.00    +0.259 A 
ATOM     36  O   UNL     1       4.643   0.002  -0.077  0.00  0.00    -0.267 OA
ENDBRANCH  24  33
ENDBRANCH  23  24
ENDBRANCH   1  23
TORSDOF 6
