REMARK  Name = ZINC05341759
REMARK  3 active torsions:
REMARK  status: ('A' for Active; 'I' for Inactive)
REMARK    1  A    between atoms: C_1  and  C_2
REMARK    2  A    between atoms: C_2  and  C_3
REMARK    3  A    between atoms: C_2  and  N_11
REMARK                            x       y       z     vdW  Elec       q    Type
REMARK                         _______ _______ _______ _____ _____    ______ ____
ROOT
ATOM      1  N   UNL     1       0.743  -0.276   1.238  0.00  0.00    -0.212 N 
ATOM      2  C   UNL     1       1.863  -1.027   1.307  0.00  0.00    +0.247 C 
ATOM      3  O   UNL     1       2.429  -1.588   0.394  0.00  0.00    -0.273 OA
ATOM      4  C   UNL     1       2.260  -1.017   2.761  0.00  0.00    +0.113 C 
ATOM      5  C   UNL     1       3.659  -0.415   2.947  0.00  0.00    +0.035 C 
ATOM      6  C   UNL     1       4.264  -1.230   4.119  0.00  0.00    +0.003 C 
ATOM      7  C   UNL     1       3.726  -2.660   3.860  0.00  0.00    +0.003 C 
ATOM      8  C   UNL     1       2.289  -2.435   3.338  0.00  0.00    +0.035 C 
ATOM      9  N   UNL     1       1.239  -0.196   3.414  0.00  0.00    -0.285 N 
ATOM     10  C   UNL     1       0.394   0.200   2.441  0.00  0.00    +0.310 C 
ATOM     11  O   UNL     1      -0.577   0.905   2.633  0.00  0.00    -0.252 OA
ATOM     12  H   UNL     1       1.183   0.023   4.357  0.00  0.00    +0.151 HD
ENDROOT
BRANCH   1  14
ATOM     13  C   UNL     1      -0.028   1.498  -0.259  0.00  0.00    +0.038 C 
ATOM     14  C   UNL     1       0.004  -0.009   0.001  0.00  0.00    +0.168 C 
BRANCH  14  15
ATOM     15  C   UNL     1      -1.405  -0.526   0.137  0.00  0.00    +0.236 C 
ATOM     16  O   UNL     1      -1.840  -0.822   1.229  0.00  0.00    -0.274 OA
ATOM     17  N   UNL     1      -2.182  -0.659  -0.957  0.00  0.00    -0.300 N 
ATOM     18  C   UNL     1      -1.636  -0.410  -2.298  0.00  0.00    +0.108 C 
ATOM     19  C   UNL     1      -1.909  -1.635  -3.177  0.00  0.00    +0.019 C 
ATOM     20  C   UNL     1      -3.407  -1.948  -3.157  0.00  0.00    +0.003 C 
ATOM     21  C   UNL     1      -3.842  -2.274  -1.726  0.00  0.00    +0.019 C 
ATOM     22  C   UNL     1      -3.589  -1.063  -0.831  0.00  0.00    +0.108 C 
ENDBRANCH  14  15
ENDBRANCH   1  14
TORSDOF 2
