REMARK  Name = ZINC40903705
REMARK  11 active torsions:
REMARK  status: ('A' for Active; 'I' for Inactive)
REMARK    1  A    between atoms: C_1  and  C_2
REMARK    2  A    between atoms: C_2  and  C_3
REMARK    3  A    between atoms: C_3  and  C_4
REMARK    4  A    between atoms: C_6  and  C_9
REMARK    5  A    between atoms: C_12  and  N_16
REMARK    6  A    between atoms: C_19  and  C_22
REMARK    7  A    between atoms: N_24  and  C_25
REMARK    8  A    between atoms: C_25  and  C_26
REMARK    9  A    between atoms: C_26  and  C_27
REMARK   10  A    between atoms: C_30  and  S_33
REMARK   11  A    between atoms: S_33  and  N_36
REMARK                            x       y       z     vdW  Elec       q    Type
REMARK                         _______ _______ _______ _____ _____    ______ ____
ROOT
ATOM      1  N   UNL     1       4.494  -8.427  -0.930  0.00  0.00    -0.328 N 
ATOM      2  C   UNL     1       4.276  -8.999  -2.266  0.00  0.00    +0.106 C 
ATOM      3  C   UNL     1       4.045 -10.507  -2.124  0.00  0.00    +0.031 C 
ATOM      4  C   UNL     1       5.215 -11.128  -1.358  0.00  0.00    +0.078 C 
ATOM      5  C   UNL     1       5.291 -10.517   0.043  0.00  0.00    +0.031 C 
ATOM      6  C   UNL     1       5.539  -9.006  -0.075  0.00  0.00    +0.106 C 
ENDROOT
BRANCH   1  10
ATOM      7  C   UNL     1       2.203  -5.209   0.400  0.00  0.00    +0.025 A 
ATOM      8  C   UNL     1       3.393  -4.982  -0.289  0.00  0.00    +0.013 A 
ATOM      9  C   UNL     1       4.150  -6.048  -0.728  0.00  0.00    +0.027 A 
ATOM     10  C   UNL     1       3.727  -7.349  -0.484  0.00  0.00    +0.065 A 
ATOM     11  C   UNL     1       2.538  -7.579   0.204  0.00  0.00    +0.145 A 
ATOM     12  C   UNL     1       1.781  -6.515   0.649  0.00  0.00    +0.052 A 
ATOM     13  F   UNL     1       2.128  -8.845   0.439  0.00  0.00    -0.204 F 
BRANCH   7  16
ATOM     14  C   UNL     1       0.762  -2.018   1.233  0.00  0.00    +0.228 A 
ATOM     15  N   UNL     1       1.686  -2.763   0.696  0.00  0.00    -0.191 NA
ATOM     16  C   UNL     1       1.388  -4.063   0.873  0.00  0.00    +0.202 A 
ATOM     17  N   UNL     1       0.259  -4.149   1.532  0.00  0.00    -0.056 NA
ATOM     18  O   UNL     1      -0.163  -2.816   1.782  0.00  0.00    -0.338 OA
BRANCH  14  19
ATOM     19  C   UNL     1       0.742  -0.511   1.242  0.00  0.00    +0.098 C 
BRANCH  19  21
ATOM     20  C   UNL     1      -0.019   1.526   0.010  0.00  0.00    +0.004 C 
ATOM     21  C   UNL     1       0.002  -0.004   0.002  0.00  0.00    +0.006 C 
ENDBRANCH  19  21
ENDBRANCH  14  19
ENDBRANCH   7  16
ENDBRANCH   1  10
BRANCH   4  22
ATOM     22  C   UNL     1       5.009 -12.617  -1.246  0.00  0.00    +0.216 C 
ATOM     23  O   UNL     1       4.023 -13.130  -1.732  0.00  0.00    -0.276 OA
ATOM     24  N   UNL     1       5.919 -13.377  -0.607  0.00  0.00    -0.315 N 
ATOM     25  H   UNL     1       6.707 -12.966  -0.218  0.00  0.00    +0.149 HD
BRANCH  24  26
ATOM     26  C   UNL     1       5.718 -14.824  -0.498  0.00  0.00    +0.109 C 
BRANCH  26  27
ATOM     27  C   UNL     1       6.888 -15.445   0.268  0.00  0.00    +0.054 C 
BRANCH  27  28
ATOM     28  C   UNL     1       6.681 -16.934   0.379  0.00  0.00    -0.046 A 
ATOM     29  C   UNL     1       5.992 -17.457   1.457  0.00  0.00    +0.005 A 
ATOM     30  C   UNL     1       5.803 -18.823   1.559  0.00  0.00    +0.029 A 
ATOM     31  C   UNL     1       6.302 -19.665   0.584  0.00  0.00    +0.105 A 
ATOM     32  C   UNL     1       6.991 -19.142  -0.495  0.00  0.00    +0.029 A 
ATOM     33  C   UNL     1       7.177 -17.776  -0.599  0.00  0.00    +0.005 A 
BRANCH  31  34
ATOM     34  S   UNL     1       6.062 -21.406   0.714  0.00  0.00    +0.056 S 
ATOM     35  O   UNL     1       7.097 -22.017  -0.044  0.00  0.00    -0.153 OA
ATOM     36  O   UNL     1       5.861 -21.685   2.093  0.00  0.00    -0.153 OA
BRANCH  34  37
ATOM     37  N   UNL     1       4.639 -21.762  -0.053  0.00  0.00    -0.204 NA
ATOM     38  H   UNL     1       4.119 -21.054  -0.464  0.00  0.00    +0.144 HD
ATOM     39  H   UNL     1       4.325 -22.680  -0.092  0.00  0.00    +0.144 HD
ENDBRANCH  34  37
ENDBRANCH  31  34
ENDBRANCH  27  28
ENDBRANCH  26  27
ENDBRANCH  24  26
ENDBRANCH   4  22
TORSDOF 10
