REMARK  Name = ZINC06926828
REMARK  6 active torsions:
REMARK  status: ('A' for Active; 'I' for Inactive)
REMARK    1  A    between atoms: N_9  and  N_23
REMARK    2  A    between atoms: C_10  and  C_12
REMARK    3  A    between atoms: C_12  and  O_13
REMARK    4  A    between atoms: O_13  and  C_14
REMARK    5  A    between atoms: C_19  and  C_20
REMARK    6  A    between atoms: C_24  and  C_25
REMARK                            x       y       z     vdW  Elec       q    Type
REMARK                         _______ _______ _______ _____ _____    ______ ____
ROOT
ATOM      1  C   UNL     1      -0.031   1.359   0.071  0.00  0.00    +0.001 A 
ATOM      2  C   UNL     1       1.150   2.088   0.041  0.00  0.00    +0.002 A 
ATOM      3  C   UNL     1       2.371   1.452  -0.001  0.00  0.00    +0.028 A 
ATOM      4  C   UNL     1       2.423   0.056  -0.013  0.00  0.00    +0.078 A 
ATOM      5  C   UNL     1       1.219  -0.682   0.018  0.00  0.00    +0.067 A 
ATOM      6  C   UNL     1      -0.005  -0.019   0.060  0.00  0.00    +0.015 A 
ATOM      7  C   UNL     1       1.309  -2.150   0.004  0.00  0.00    +0.281 A 
ATOM      8  O   UNL     1       0.310  -2.844   0.028  0.00  0.00    -0.265 OA
ATOM      9  N   UNL     1       2.546  -2.698  -0.038  0.00  0.00    -0.201 N 
ATOM     10  C   UNL     1       3.651  -1.909  -0.066  0.00  0.00    +0.170 A 
ATOM     11  N   UNL     1       3.603  -0.611  -0.054  0.00  0.00    -0.228 NA
ENDROOT
BRANCH   9  12
ATOM     12  N   UNL     1       2.687  -4.091  -0.053  0.00  0.00    -0.296 N 
ATOM     13  C   UNL     1       2.150  -4.809  -1.051  0.00  0.00    +0.113 C 
ATOM     14  H   UNL     1       3.173  -4.537   0.658  0.00  0.00    +0.187 HD
BRANCH  13  15
ATOM     15  C   UNL     1       2.192  -6.205  -1.008  0.00  0.00    +0.039 A 
ATOM     16  C   UNL     1       1.741  -6.975  -2.102  0.00  0.00    +0.013 A 
ATOM     17  C   UNL     1       1.790  -8.332  -2.042  0.00  0.00    +0.001 A 
ATOM     18  C   UNL     1       2.278  -8.993  -0.918  0.00  0.00    +0.004 A 
ATOM     19  C   UNL     1       2.728  -8.310   0.171  0.00  0.00    +0.051 A 
ATOM     20  C   UNL     1       2.712  -6.905   0.174  0.00  0.00    +0.187 A 
ATOM     21  O   UNL     1       3.118  -6.278   1.143  0.00  0.00    -0.287 OA
ENDBRANCH  13  15
ENDBRANCH   9  12
BRANCH  10  22
ATOM     22  C   UNL     1       5.003  -2.574  -0.112  0.00  0.00    +0.305 C 
BRANCH  22  23
ATOM     23  O   UNL     1       6.025  -1.575  -0.135  0.00  0.00    -0.484 OA
BRANCH  23  24
ATOM     24  C   UNL     1       7.309  -2.008  -0.177  0.00  0.00    +0.133 A 
ATOM     25  C   UNL     1       7.585  -3.368  -0.201  0.00  0.00    +0.046 A 
ATOM     26  C   UNL     1       8.893  -3.808  -0.244  0.00  0.00    +0.004 A 
ATOM     27  C   UNL     1       9.938  -2.898  -0.262  0.00  0.00    +0.001 A 
ATOM     28  C   UNL     1       9.682  -1.544  -0.239  0.00  0.00    +0.017 A 
ATOM     29  C   UNL     1       8.363  -1.085  -0.202  0.00  0.00    +0.078 A 
BRANCH  29  30
ATOM     30  C   UNL     1       8.082   0.363  -0.182  0.00  0.00    +0.245 C 
ATOM     31  O   UNL     1       6.933   0.758  -0.145  0.00  0.00    -0.270 OA
ATOM     32  N   UNL     1       9.099   1.247  -0.206  0.00  0.00    -0.325 N 
ATOM     33  H   UNL     1      10.016   0.931  -0.237  0.00  0.00    +0.145 HD
ATOM     34  H   UNL     1       8.914   2.199  -0.194  0.00  0.00    +0.145 HD
ENDBRANCH  29  30
ENDBRANCH  23  24
ENDBRANCH  22  23
ENDBRANCH  10  22
TORSDOF 6
