REMARK  Name = ZINC13100424
REMARK  9 active torsions:
REMARK  status: ('A' for Active; 'I' for Inactive)
REMARK    1  A    between atoms: C_1  and  C_2
REMARK    2  A    between atoms: C_2  and  S_3
REMARK    3  A    between atoms: S_3  and  N_6
REMARK    4  A    between atoms: C_15  and  C_17
REMARK    5  A    between atoms: N_19  and  C_20
REMARK    6  A    between atoms: N_19  and  C_21
REMARK    7  A    between atoms: C_22  and  N_37
REMARK    8  A    between atoms: N_23  and  C_30
REMARK    9  A    between atoms: C_30  and  C_31
REMARK                            x       y       z     vdW  Elec       q    Type
REMARK                         _______ _______ _______ _____ _____    ______ ____
ROOT
ATOM      1  C   UNL     1       4.018   0.979  -0.211  0.00  0.00    +0.239 C 
ATOM      2  O   UNL     1       3.842   2.109   0.194  0.00  0.00    -0.273 OA
ATOM      3  N   UNL     1       2.963   0.165  -0.420  0.00  0.00    -0.266 N 
ATOM      4  C   UNL     1       3.167  -1.165  -0.999  0.00  0.00    +0.138 C 
ENDROOT
BRANCH   1  14
ATOM      5  N   UNL     1       6.013  -0.027   0.764  0.00  0.00    -0.165 NA
ATOM      6  C   UNL     1       7.347  -0.630   0.674  0.00  0.00    +0.145 C 
ATOM      7  C   UNL     1       8.236   0.231  -0.188  0.00  0.00    -0.028 A 
ATOM      8  C   UNL     1       9.597  -0.045  -0.193  0.00  0.00    +0.005 A 
ATOM      9  C   UNL     1      10.459   0.702  -0.969  0.00  0.00    +0.000 A 
ATOM     10  C   UNL     1       9.964   1.730  -1.749  0.00  0.00    +0.000 A 
ATOM     11  C   UNL     1       8.613   2.007  -1.742  0.00  0.00    +0.004 A 
ATOM     12  C   UNL     1       7.743   1.261  -0.957  0.00  0.00    -0.041 A 
ATOM     13  C   UNL     1       6.285   1.639  -0.978  0.00  0.00    +0.065 C 
ATOM     14  C   UNL     1       5.416   0.485  -0.481  0.00  0.00    +0.170 C 
BRANCH   5  15
ATOM     15  S   UNL     1       5.210   0.075   2.209  0.00  0.00    +0.033 S 
ATOM     16  O   UNL     1       6.229   0.287   3.176  0.00  0.00    -0.158 OA
ATOM     17  O   UNL     1       4.200   1.051   1.995  0.00  0.00    -0.158 OA
BRANCH  15  19
ATOM     18  C   UNL     1       3.516  -1.522   3.645  0.00  0.00    +0.029 C 
ATOM     19  C   UNL     1       4.459  -1.560   2.441  0.00  0.00    +0.182 C 
ENDBRANCH  15  19
ENDBRANCH   5  15
ENDBRANCH   1  14
BRANCH   3  20
ATOM     20  C   UNL     1       1.663   0.594  -0.080  0.00  0.00    +0.139 A 
ATOM     21  C   UNL     1       0.903  -0.117   0.826  0.00  0.00    +0.128 A 
ATOM     22  N   UNL     1      -0.362   0.327   1.137  0.00  0.00    -0.276 N 
ATOM     23  C   UNL     1      -0.852   1.441   0.564  0.00  0.00    +0.331 A 
ATOM     24  O   UNL     1      -1.974   1.814   0.849  0.00  0.00    -0.246 OA
ATOM     25  N   UNL     1      -0.126   2.147  -0.321  0.00  0.00    -0.273 N 
ATOM     26  H   UNL     1      -0.514   2.972  -0.732  0.00  0.00    +0.173 HD
ATOM     27  C   UNL     1       1.118   1.755  -0.660  0.00  0.00    +0.277 A 
ATOM     28  O   UNL     1       1.768   2.403  -1.464  0.00  0.00    -0.266 OA
BRANCH  21  29
ATOM     29  N   UNL     1       1.403  -1.256   1.410  0.00  0.00    -0.343 N 
ATOM     30  H   UNL     1       0.917  -1.684   2.132  0.00  0.00    +0.144 HD
ATOM     31  H   UNL     1       2.242  -1.632   1.100  0.00  0.00    +0.144 HD
ENDBRANCH  21  29
BRANCH  22  32
ATOM     32  C   UNL     1      -1.179  -0.419   2.096  0.00  0.00    +0.163 C 
BRANCH  32  33
ATOM     33  C   UNL     1      -1.994  -1.454   1.365  0.00  0.00    -0.028 A 
ATOM     34  C   UNL     1      -3.255  -1.137   0.896  0.00  0.00    +0.005 A 
ATOM     35  C   UNL     1      -4.000  -2.085   0.221  0.00  0.00    +0.000 A 
ATOM     36  C   UNL     1      -3.489  -3.354   0.023  0.00  0.00    +0.000 A 
ATOM     37  C   UNL     1      -2.230  -3.673   0.496  0.00  0.00    +0.000 A 
ATOM     38  C   UNL     1      -1.482  -2.723   1.167  0.00  0.00    +0.005 A 
ENDBRANCH  32  33
ENDBRANCH  22  32
ENDBRANCH   3  20
TORSDOF 7
