REMARK  Name = ZINC37370552
REMARK  4 active torsions:
REMARK  status: ('A' for Active; 'I' for Inactive)
REMARK    1  A    between atoms: C_4  and  S_11
REMARK    2  A    between atoms: C_5  and  S_7
REMARK    3  A    between atoms: S_7  and  N_10
REMARK    4  A    between atoms: S_11  and  N_14
REMARK                            x       y       z     vdW  Elec       q    Type
REMARK                         _______ _______ _______ _____ _____    ______ ____
ROOT
ATOM      1  C   UNL     1       0.193   1.374   0.292  0.00  0.00    +0.002 A 
ATOM      2  C   UNL     1       0.501   0.338   1.154  0.00  0.00    +0.002 A 
ATOM      3  C   UNL     1       1.647  -0.408   0.955  0.00  0.00    +0.030 A 
ATOM      4  C   UNL     1       2.484  -0.120  -0.107  0.00  0.00    +0.132 A 
ATOM      5  C   UNL     1       2.175   0.916  -0.969  0.00  0.00    +0.131 A 
ATOM      6  C   UNL     1       1.030   1.663  -0.768  0.00  0.00    +0.030 A 
ENDROOT
BRANCH   5   7
ATOM      7  S   UNL     1       3.243   1.284  -2.321  0.00  0.00    +0.058 S 
ATOM      8  O   UNL     1       3.547   0.046  -2.948  0.00  0.00    -0.153 OA
ATOM      9  O   UNL     1       2.650   2.368  -3.023  0.00  0.00    -0.153 OA
BRANCH   7  10
ATOM     10  N   UNL     1       4.662   1.853  -1.683  0.00  0.00    -0.203 NA
ATOM     11  H   UNL     1       5.497   1.710  -2.155  0.00  0.00    +0.144 HD
ATOM     12  H   UNL     1       4.657   2.329  -0.838  0.00  0.00    +0.144 HD
ENDBRANCH   7  10
ENDBRANCH   5   7
BRANCH   4  13
ATOM     13  S   UNL     1       3.946  -1.071  -0.360  0.00  0.00    +0.063 S 
ATOM     14  O   UNL     1       3.646  -2.011  -1.383  0.00  0.00    -0.153 OA
ATOM     15  O   UNL     1       5.019  -0.146  -0.466  0.00  0.00    -0.153 OA
BRANCH  13  16
ATOM     16  N   UNL     1       4.208  -1.943   1.023  0.00  0.00    -0.177 NA
ATOM     17  C   UNL     1       4.909  -1.342   2.166  0.00  0.00    +0.109 C 
ATOM     18  C   UNL     1       4.040  -1.502   3.417  0.00  0.00    +0.017 C 
ATOM     19  C   UNL     1       3.687  -2.980   3.603  0.00  0.00    +0.003 C 
ATOM     20  C   UNL     1       2.888  -3.470   2.394  0.00  0.00    +0.017 C 
ATOM     21  C   UNL     1       3.738  -3.331   1.133  0.00  0.00    +0.109 C 
ENDBRANCH  13  16
ENDBRANCH   4  13
TORSDOF 4
