REMARK  Name = ZINC29787947
REMARK  9 active torsions:
REMARK  status: ('A' for Active; 'I' for Inactive)
REMARK    1  A    between atoms: C_1  and  C_2
REMARK    2  A    between atoms: C_2  and  C_25
REMARK    3  A    between atoms: C_4  and  N_10
REMARK    4  A    between atoms: C_6  and  C_8
REMARK    5  A    between atoms: C_6  and  C_9
REMARK    6  A    between atoms: C_11  and  C_13
REMARK    7  A    between atoms: C_13  and  C_14
REMARK    8  A    between atoms: C_14  and  C_15
REMARK    9  A    between atoms: C_17  and  C_20
REMARK                            x       y       z     vdW  Elec       q    Type
REMARK                         _______ _______ _______ _____ _____    ______ ____
ROOT
ATOM      1  N   UNL     1      -1.195   2.161   0.019  0.00  0.00    -0.313 N 
ATOM      2  C   UNL     1      -0.018   1.503   0.010  0.00  0.00    +0.214 C 
ATOM      3  O   UNL     1       1.024   2.123   0.004  0.00  0.00    -0.276 OA
ATOM      4  H   UNL     1      -2.140   1.598   0.021  0.00  0.00    +0.149 HD
ENDROOT
BRANCH   1   8
ATOM      5  C   UNL     1      -1.687   6.203  -1.662  0.00  0.00    -0.010 C 
ATOM      6  C   UNL     1      -2.591   5.643  -0.557  0.00  0.00    -0.072 C 
ATOM      7  C   UNL     1      -2.532   4.118  -0.574  0.00  0.00    +0.009 C 
ATOM      8  C   UNL     1      -1.214   3.629   0.028  0.00  0.00    +0.070 C 
ATOM      9  C   UNL     1      -1.125   4.126   1.470  0.00  0.00    +0.009 C 
ATOM     10  C   UNL     1      -1.164   5.651   1.510  0.00  0.00    -0.072 C 
ATOM     11  N   UNL     1      -2.251   6.208   0.732  0.00  0.00    +0.386 N 
ATOM     12  C   UNL     1       0.188   6.211   1.053  0.00  0.00    -0.010 C 
ATOM     13  C   UNL     1      -1.360   6.073   2.983  0.00  0.00    -0.010 C 
ATOM     14  C   UNL     1      -4.040   6.056  -0.898  0.00  0.00    -0.010 C 
ATOM     15  H   UNL     1      -1.970   7.265   0.607  0.00  0.00    -0.084 HD
ATOM     16  H   UNL     1      -3.119   6.137   1.404  0.00  0.00    -0.084 HD
ENDBRANCH   1   8
BRANCH   2  17
ATOM     17  C   UNL     1       0.002  -0.004   0.002  0.00  0.00    +0.105 C 
BRANCH  17  18
ATOM     18  C   UNL     1       1.451  -0.494  -0.015  0.00  0.00    +0.108 C 
BRANCH  18  19
ATOM     19  C   UNL     1       1.472  -2.001  -0.023  0.00  0.00    +0.228 A 
ATOM     20  N   UNL     1       1.467  -2.773  -1.081  0.00  0.00    -0.191 NA
ATOM     21  C   UNL     1       1.494  -4.040  -0.606  0.00  0.00    +0.203 A 
ATOM     22  N   UNL     1       1.505  -3.962   0.700  0.00  0.00    -0.056 NA
ATOM     23  O   UNL     1       1.492  -2.801   1.048  0.00  0.00    -0.338 OA
BRANCH  21  24
ATOM     24  C   UNL     1       1.503  -5.282  -1.415  0.00  0.00    +0.029 A 
ATOM     25  C   UNL     1       1.531  -6.533  -0.801  0.00  0.00    +0.019 A 
ATOM     26  C   UNL     1       1.533  -7.624  -1.599  0.00  0.00    +0.046 A 
ATOM     27  S   UNL     1       1.508  -6.903  -3.229  0.00  0.00    -0.104 S 
ATOM     28  C   UNL     1       1.490  -5.230  -2.778  0.00  0.00    +0.057 A 
ENDBRANCH  21  24
ENDBRANCH  18  19
ENDBRANCH  17  18
ENDBRANCH   2  17
TORSDOF 5
