REMARK  Name = ZINC49563416
REMARK  5 active torsions:
REMARK  status: ('A' for Active; 'I' for Inactive)
REMARK    1  A    between atoms: C_4  and  C_7
REMARK    2  A    between atoms: C_7  and  N_8
REMARK    3  A    between atoms: N_16  and  C_17
REMARK    4  A    between atoms: C_17  and  C_19
REMARK    5  A    between atoms: N_28  and  C_30
REMARK                            x       y       z     vdW  Elec       q    Type
REMARK                         _______ _______ _______ _____ _____    ______ ____
ROOT
ATOM      1  N   UNL     1       4.059   0.902   2.418  0.00  0.00    +0.386 N 
ATOM      2  C   UNL     1       5.332   0.204   2.190  0.00  0.00    -0.072 C 
ATOM      3  C   UNL     1       6.005  -0.118   3.528  0.00  0.00    +0.035 C 
ATOM      4  C   UNL     1       4.990  -0.840   4.404  0.00  0.00    +0.024 A 
ATOM      5  C   UNL     1       3.683  -0.778   4.099  0.00  0.00    -0.004 A 
ATOM      6  S   UNL     1       2.913  -1.745   5.365  0.00  0.00    -0.059 S 
ATOM      7  C   UNL     1       4.298  -2.176   6.219  0.00  0.00    +0.164 A 
ATOM      8  N   UNL     1       5.296  -1.575   5.516  0.00  0.00    -0.339 N 
ATOM      9  N   UNL     1       4.394  -2.925   7.316  0.00  0.00    -0.151 NA
ATOM     10  C   UNL     1       3.066  -0.048   2.952  0.00  0.00    -0.033 C 
ATOM     11  H   UNL     1       6.218  -1.666   5.802  0.00  0.00    +0.167 HD
ATOM     12  H   UNL     1       4.200   1.650   3.080  0.00  0.00    -0.081 HD
ENDROOT
BRANCH   9  13
ATOM     13  C   UNL     1       5.590  -3.163   7.860  0.00  0.00    +0.290 C 
ATOM     14  O   UNL     1       6.595  -2.695   7.351  0.00  0.00    -0.266 OA
BRANCH  13  15
ATOM     15  C   UNL     1       5.696  -3.994   9.079  0.00  0.00    +0.156 A 
ATOM     16  C   UNL     1       7.018  -4.359   9.609  0.00  0.00    +0.020 A 
ATOM     17  C   UNL     1       8.197  -3.942   8.993  0.00  0.00    +0.011 A 
ATOM     18  C   UNL     1       9.412  -4.310   9.530  0.00  0.00    +0.001 A 
ATOM     19  C   UNL     1       9.474  -5.091  10.676  0.00  0.00    +0.001 A 
ATOM     20  C   UNL     1       8.321  -5.515  11.301  0.00  0.00    +0.014 A 
ATOM     21  C   UNL     1       7.082  -5.154  10.775  0.00  0.00    +0.051 A 
ATOM     22  C   UNL     1       5.821  -5.576  11.399  0.00  0.00    +0.280 A 
ATOM     23  O   UNL     1       5.829  -6.261  12.405  0.00  0.00    -0.265 OA
ATOM     24  N   UNL     1       4.655  -5.192  10.841  0.00  0.00    -0.196 N 
ATOM     25  N   UNL     1       4.613  -4.402   9.692  0.00  0.00    -0.158 NA
BRANCH  24  26
ATOM     26  C   UNL     1       3.453  -5.594  11.434  0.00  0.00    +0.069 A 
ATOM     27  C   UNL     1       3.263  -5.432  12.801  0.00  0.00    +0.028 A 
ATOM     28  C   UNL     1       2.076  -5.830  13.383  0.00  0.00    +0.002 A 
ATOM     29  C   UNL     1       1.077  -6.389  12.608  0.00  0.00    +0.000 A 
ATOM     30  C   UNL     1       1.263  -6.551  11.247  0.00  0.00    +0.002 A 
ATOM     31  C   UNL     1       2.445  -6.150  10.657  0.00  0.00    +0.028 A 
ENDBRANCH  24  26
ENDBRANCH  13  15
ENDBRANCH   9  13
BRANCH   1  32
ATOM     32  C   UNL     1       3.572   1.458   1.148  0.00  0.00    -0.043 C 
BRANCH  32  36
ATOM     33  C   UNL     1       0.059   3.780   1.863  0.00  0.00    +0.000 A 
ATOM     34  C   UNL     1       1.305   4.378   1.915  0.00  0.00    +0.000 A 
ATOM     35  C   UNL     1       2.442   3.626   1.683  0.00  0.00    +0.002 A 
ATOM     36  C   UNL     1       2.333   2.277   1.401  0.00  0.00    -0.064 A 
ATOM     37  C   UNL     1       1.087   1.680   1.351  0.00  0.00    +0.002 A 
ATOM     38  C   UNL     1      -0.050   2.432   1.581  0.00  0.00    +0.000 A 
ENDBRANCH  32  36
ENDBRANCH   1  32
TORSDOF 5
