REMARK  Name = ZINC39710745
REMARK  12 active torsions:
REMARK  status: ('A' for Active; 'I' for Inactive)
REMARK    1  A    between atoms: C_1  and  C_2
REMARK    2  A    between atoms: C_6  and  N_9
REMARK    3  A    between atoms: C_7  and  C_8
REMARK    4  A    between atoms: N_12  and  C_15
REMARK    5  A    between atoms: C_15  and  C_17
REMARK    6  A    between atoms: C_15  and  C_31
REMARK    7  A    between atoms: C_23  and  C_30
REMARK    8  A    between atoms: C_24  and  C_29
REMARK    9  A    between atoms: N_36  and  C_37
REMARK   10  A    between atoms: C_37  and  C_38
REMARK   11  A    between atoms: C_37  and  C_39
REMARK   12  A    between atoms: C_37  and  C_40
REMARK                            x       y       z     vdW  Elec       q    Type
REMARK                         _______ _______ _______ _____ _____    ______ ____
ROOT
ATOM      1  C   UNL     1      -0.345  -2.890   6.462  0.00  0.00    -0.009 C 
ENDROOT
BRANCH   1   2
ATOM      2  C   UNL     1      -1.475  -3.625   7.187  0.00  0.00    +0.088 C 
ATOM      3  C   UNL     1      -1.377  -5.095   6.830  0.00  0.00    -0.006 C 
ATOM      4  C   UNL     1      -1.230  -5.979   7.858  0.00  0.00    -0.007 A 
ATOM      5  C   UNL     1      -1.129  -7.417   7.603  0.00  0.00    +0.010 A 
ATOM      6  C   UNL     1      -0.984  -8.260   8.658  0.00  0.00    +0.004 A 
ATOM      7  C   UNL     1      -0.931  -7.782   9.968  0.00  0.00    -0.046 A 
ATOM      8  C   UNL     1      -1.018  -6.461  10.270  0.00  0.00    -0.026 A 
ATOM      9  C   UNL     1      -1.171  -5.503   9.251  0.00  0.00    +0.043 A 
ATOM     10  N   UNL     1      -1.256  -4.209   9.559  0.00  0.00    -0.284 N 
ATOM     11  C   UNL     1      -1.400  -3.259   8.652  0.00  0.00    +0.223 C 
ATOM     12  O   UNL     1      -1.472  -2.094   8.995  0.00  0.00    -0.275 OA
ATOM     13  C   UNL     1      -0.953  -6.017  11.709  0.00  0.00    +0.046 C 
ATOM     14  C   UNL     1      -0.769  -8.773  11.092  0.00  0.00    +0.044 C 
ATOM     15  H   UNL     1      -1.210  -3.953  10.494  0.00  0.00    +0.155 HD
ENDBRANCH   1   2
BRANCH   1  19
ATOM     16  N   UNL     1      -0.712  -2.641   2.301  0.00  0.00    -0.333 N 
ATOM     17  C   UNL     1      -1.842  -3.230   3.037  0.00  0.00    +0.086 C 
ATOM     18  C   UNL     1      -1.732  -2.814   4.508  0.00  0.00    -0.059 C 
ATOM     19  N   UNL     1      -0.410  -3.189   5.025  0.00  0.00    +0.387 N 
ATOM     20  C   UNL     1       0.634  -2.434   4.322  0.00  0.00    -0.059 C 
ATOM     21  C   UNL     1       0.643  -2.836   2.839  0.00  0.00    +0.086 C 
ATOM     22  H   UNL     1      -0.263  -4.177   4.882  0.00  0.00    -0.081 HD
BRANCH  16  28
ATOM     23  C   UNL     1      -1.567   1.645   0.053  0.00  0.00    +0.044 C 
ATOM     24  C   UNL     1      -1.338   0.156   0.002  0.00  0.00    -0.046 A 
ATOM     25  C   UNL     1      -1.333  -0.500  -1.216  0.00  0.00    +0.004 A 
ATOM     26  C   UNL     1      -1.123  -1.866  -1.268  0.00  0.00    +0.002 A 
ATOM     27  C   UNL     1      -0.917  -2.579  -0.103  0.00  0.00    +0.023 A 
ATOM     28  C   UNL     1      -0.921  -1.923   1.121  0.00  0.00    +0.033 A 
ATOM     29  C   UNL     1      -1.127  -0.550   1.169  0.00  0.00    -0.027 A 
ATOM     30  C   UNL     1      -1.126   0.167   2.495  0.00  0.00    +0.046 C 
ENDBRANCH  16  28
ENDBRANCH   1  19
BRANCH   1  31
ATOM     31  C   UNL     1       1.003  -3.352   7.018  0.00  0.00    +0.205 C 
ATOM     32  N   UNL     1       1.100  -4.817   6.977  0.00  0.00    -0.152 NA
ATOM     33  N   UNL     1       1.236  -5.240   8.127  0.00  0.00    -0.070 NA
ATOM     34  N   UNL     1       1.254  -4.223   9.081  0.00  0.00    -0.179 N 
ATOM     35  N   UNL     1       1.113  -3.011   8.452  0.00  0.00    -0.183 NA
ATOM     36  H   UNL     1       1.350  -4.351  10.037  0.00  0.00    +0.191 HD
BRANCH  35  37
ATOM     37  C   UNL     1       2.277  -2.149   8.700  0.00  0.00    +0.035 C 
ATOM     38  C   UNL     1       2.133  -0.854   7.897  0.00  0.00    +0.029 C 
ATOM     39  C   UNL     1       2.358  -1.818  10.191  0.00  0.00    +0.029 C 
ATOM     40  C   UNL     1       3.552  -2.877   8.269  0.00  0.00    +0.029 C 
ENDBRANCH  35  37
ENDBRANCH   1  31
TORSDOF 5
