REMARK  Name = ZINC24869372
REMARK  7 active torsions:
REMARK  status: ('A' for Active; 'I' for Inactive)
REMARK    1  A    between atoms: C_1  and  C_2
REMARK    2  A    between atoms: C_5  and  C_8
REMARK    3  A    between atoms: C_8  and  C_10
REMARK    4  A    between atoms: C_8  and  N_13
REMARK    5  A    between atoms: C_14  and  C_16
REMARK    6  A    between atoms: N_19  and  S_22
REMARK    7  A    between atoms: S_22  and  C_25
REMARK                            x       y       z     vdW  Elec       q    Type
REMARK                         _______ _______ _______ _____ _____    ______ ____
ROOT
ATOM      1  C   UNL     1      -1.533   2.225  -4.047  0.00  0.00    +0.077 C 
ATOM      2  C   UNL     1      -0.412   3.044  -3.404  0.00  0.00    +0.030 C 
ATOM      3  C   UNL     1      -0.702   3.213  -1.909  0.00  0.00    +0.110 C 
ATOM      4  N   UNL     1      -0.897   1.885  -1.312  0.00  0.00    -0.177 NA
ATOM      5  C   UNL     1      -1.885   0.979  -1.914  0.00  0.00    +0.110 C 
ATOM      6  C   UNL     1      -1.586   0.837  -3.405  0.00  0.00    +0.030 C 
ENDROOT
BRANCH   1   8
ATOM      7  N   UNL     1      -2.130   1.398  -6.301  0.00  0.00    -0.308 N 
ATOM      8  C   UNL     1      -1.269   2.085  -5.524  0.00  0.00    +0.217 C 
ATOM      9  O   UNL     1      -0.281   2.590  -6.014  0.00  0.00    -0.275 OA
ATOM     10  H   UNL     1      -3.026   0.939  -5.857  0.00  0.00    +0.149 HD
BRANCH   7  11
ATOM     11  C   UNL     1      -1.873   1.262  -7.737  0.00  0.00    +0.106 C 
BRANCH  11  16
ATOM     12  C   UNL     1      -6.863   0.373 -10.512  0.00  0.00    +0.044 C 
ATOM     13  C   UNL     1      -5.562   0.605  -9.788  0.00  0.00    -0.050 A 
ATOM     14  C   UNL     1      -4.601   1.431 -10.341  0.00  0.00    +0.004 A 
ATOM     15  C   UNL     1      -3.407   1.643  -9.677  0.00  0.00    +0.006 A 
ATOM     16  C   UNL     1      -3.175   1.030  -8.460  0.00  0.00    -0.027 A 
ATOM     17  C   UNL     1      -4.133   0.201  -7.910  0.00  0.00    +0.006 A 
ATOM     18  C   UNL     1      -5.329  -0.008  -8.571  0.00  0.00    +0.004 A 
ENDBRANCH  11  16
BRANCH  11  19
ATOM     19  C   UNL     1      -0.938   0.075  -7.978  0.00  0.00    +0.014 C 
ATOM     20  C   UNL     1      -0.629  -0.834  -6.786  0.00  0.00    +0.006 C 
ATOM     21  C   UNL     1       0.443   0.119  -7.320  0.00  0.00    +0.006 C 
ENDBRANCH  11  19
ENDBRANCH   7  11
ENDBRANCH   1   8
BRANCH   4  22
ATOM     22  S   UNL     1      -0.017   1.417   0.010  0.00  0.00    +0.061 S 
ATOM     23  O   UNL     1       0.002  -0.004   0.002  0.00  0.00    -0.153 OA
ATOM     24  O   UNL     1       1.172   2.195   0.003  0.00  0.00    -0.153 OA
BRANCH  22  25
ATOM     25  C   UNL     1      -0.927   1.900   1.439  0.00  0.00    +0.106 A 
ATOM     26  C   UNL     1      -0.707   3.157   2.000  0.00  0.00    +0.029 A 
ATOM     27  C   UNL     1      -1.397   3.564   3.101  0.00  0.00    +0.010 A 
ATOM     28  C   UNL     1      -2.337   2.701   3.690  0.00  0.00    -0.018 A 
ATOM     29  C   UNL     1      -3.063   3.083   4.831  0.00  0.00    +0.008 A 
ATOM     30  C   UNL     1      -3.965   2.221   5.375  0.00  0.00    +0.001 A 
ATOM     31  C   UNL     1      -4.181   0.962   4.817  0.00  0.00    +0.001 A 
ATOM     32  C   UNL     1      -3.495   0.558   3.713  0.00  0.00    +0.008 A 
ATOM     33  C   UNL     1      -2.556   1.421   3.123  0.00  0.00    -0.016 A 
ATOM     34  C   UNL     1      -1.829   1.038   1.983  0.00  0.00    +0.037 A 
ENDBRANCH  22  25
ENDBRANCH   4  22
TORSDOF 6
