REMARK  Name = ZINC38510877
REMARK  3 active torsions:
REMARK  status: ('A' for Active; 'I' for Inactive)
REMARK    1  A    between atoms: C_11  and  N_18
REMARK    2  A    between atoms: C_19  and  C_21
REMARK    3  A    between atoms: N_26  and  C_28
REMARK                            x       y       z     vdW  Elec       q    Type
REMARK                         _______ _______ _______ _____ _____    ______ ____
ROOT
ATOM      1  C   UNL     1       0.116   1.119   1.655  0.00  0.00    +0.002 A 
ATOM      2  C   UNL     1       1.296   1.845   1.720  0.00  0.00    +0.001 A 
ATOM      3  C   UNL     1       2.496   1.214   1.446  0.00  0.00    +0.017 A 
ATOM      4  C   UNL     1       2.500  -0.118   1.115  0.00  0.00    +0.041 A 
ATOM      5  C   UNL     1       1.318  -0.890   1.040  0.00  0.00    +0.081 A 
ATOM      6  C   UNL     1       0.110  -0.211   1.326  0.00  0.00    +0.029 A 
ATOM      7  N   UNL     1       1.486  -2.186   0.701  0.00  0.00    -0.221 NA
ATOM      8  C   UNL     1       2.666  -2.704   0.456  0.00  0.00    +0.196 A 
ATOM      9  S   UNL     1       3.754  -1.306   0.697  0.00  0.00    -0.048 S 
ATOM     10  N   UNL     1       2.989  -4.008   0.100  0.00  0.00    -0.193 N 
ATOM     11  C   UNL     1       4.227  -4.466  -0.238  0.00  0.00    +0.134 A 
ATOM     12  C   UNL     1       4.110  -5.794  -0.515  0.00  0.00    +0.016 A 
ATOM     13  C   UNL     1       2.769  -6.153  -0.342  0.00  0.00    +0.069 A 
ATOM     14  N   UNL     1       2.101  -5.088   0.031  0.00  0.00    -0.168 NA
ATOM     15  C   UNL     1       2.599  -7.627  -0.642  0.00  0.00    +0.058 C 
ATOM     16  C   UNL     1       3.862  -8.028  -1.433  0.00  0.00    +0.011 C 
ATOM     17  C   UNL     1       4.909  -7.006  -0.941  0.00  0.00    +0.041 C 
ENDROOT
BRANCH  11  18
ATOM     18  N   UNL     1       5.398  -3.712  -0.290  0.00  0.00    -0.270 N 
ATOM     19  C   UNL     1       6.591  -4.307  -0.093  0.00  0.00    +0.223 C 
ATOM     20  O   UNL     1       6.650  -5.506   0.080  0.00  0.00    -0.275 OA
ATOM     21  H   UNL     1       5.355  -2.760  -0.469  0.00  0.00    +0.156 HD
BRANCH  19  22
ATOM     22  C   UNL     1       7.853  -3.483  -0.086  0.00  0.00    +0.102 C 
ATOM     23  C   UNL     1       8.105  -2.845  -1.472  0.00  0.00    +0.110 C 
ATOM     24  C   UNL     1       9.607  -2.903  -1.639  0.00  0.00    +0.221 C 
ATOM     25  O   UNL     1      10.241  -2.263  -2.452  0.00  0.00    -0.275 OA
ATOM     26  N   UNL     1      10.138  -3.765  -0.755  0.00  0.00    -0.271 N 
ATOM     27  C   UNL     1       9.099  -4.380   0.081  0.00  0.00    +0.127 C 
BRANCH  26  28
ATOM     28  C   UNL     1      11.506  -4.041  -0.644  0.00  0.00    +0.036 A 
ATOM     29  C   UNL     1      12.400  -3.502  -1.560  0.00  0.00    +0.026 A 
ATOM     30  C   UNL     1      13.750  -3.775  -1.449  0.00  0.00    +0.040 A 
ATOM     31  C   UNL     1      14.211  -4.586  -0.426  0.00  0.00    +0.124 A 
ATOM     32  C   UNL     1      13.321  -5.125   0.488  0.00  0.00    +0.040 A 
ATOM     33  C   UNL     1      11.972  -4.849   0.384  0.00  0.00    +0.026 A 
ATOM     34  F   UNL     1      15.531  -4.853  -0.320  0.00  0.00    -0.205 F 
ENDBRANCH  26  28
ENDBRANCH  19  22
ENDBRANCH  11  18
TORSDOF 3
