REMARK  Name = ZINC44737186
REMARK  6 active torsions:
REMARK  status: ('A' for Active; 'I' for Inactive)
REMARK    1  A    between atoms: C_1  and  C_2
REMARK    2  A    between atoms: C_9  and  C_11
REMARK    3  A    between atoms: C_11  and  C_13
REMARK    4  A    between atoms: C_11  and  N_14
REMARK    5  A    between atoms: C_15  and  C_17
REMARK    6  A    between atoms: C_28  and  C_30
REMARK                            x       y       z     vdW  Elec       q    Type
REMARK                         _______ _______ _______ _____ _____    ______ ____
ROOT
ATOM      1  C   UNL     1       2.053  -9.043   0.388  0.00  0.00    +0.100 C 
ATOM      2  C   UNL     1       3.135  -8.144  -0.252  0.00  0.00    +0.121 C 
ATOM      3  N   UNL     1       4.355  -8.397   0.550  0.00  0.00    -0.296 N 
ATOM      4  C   UNL     1       4.322  -9.855   0.820  0.00  0.00    +0.115 C 
ATOM      5  C   UNL     1       2.837 -10.166   1.088  0.00  0.00    -0.004 C 
ATOM      6  C   UNL     1       2.557 -10.150   2.587  0.00  0.00    -0.010 C 
ATOM      7  C   UNL     1       3.302 -11.311   3.253  0.00  0.00    -0.082 C 
ATOM      8  N   UNL     1       2.858 -12.581   2.665  0.00  0.00    +0.379 N 
ATOM      9  C   UNL     1       3.214 -12.626   1.242  0.00  0.00    -0.082 C 
ATOM     10  C   UNL     1       2.465 -11.520   0.491  0.00  0.00    -0.010 C 
ATOM     11  C   UNL     1       5.284  -7.504   0.945  0.00  0.00    +0.247 C 
ATOM     12  O   UNL     1       5.107  -6.317   0.752  0.00  0.00    -0.270 OA
ATOM     13  H   UNL     1       3.305 -13.347   3.146  0.00  0.00    -0.086 HD
ATOM     14  H   UNL     1       1.857 -12.663   2.763  0.00  0.00    -0.086 HD
ENDROOT
BRANCH  11  15
ATOM     15  C   UNL     1       6.519  -7.969   1.613  0.00  0.00    +0.037 A 
ATOM     16  C   UNL     1       6.944  -9.289   1.461  0.00  0.00    +0.013 A 
ATOM     17  C   UNL     1       8.097  -9.716   2.087  0.00  0.00    +0.001 A 
ATOM     18  C   UNL     1       8.831  -8.838   2.864  0.00  0.00    +0.000 A 
ATOM     19  C   UNL     1       8.415  -7.528   3.019  0.00  0.00    +0.001 A 
ATOM     20  C   UNL     1       7.267  -7.087   2.394  0.00  0.00    +0.013 A 
ENDBRANCH  11  15
BRANCH   1  22
ATOM     21  N   UNL     1      -0.000  -8.656   1.712  0.00  0.00    -0.305 N 
ATOM     22  C   UNL     1       1.248  -8.260   1.393  0.00  0.00    +0.219 C 
ATOM     23  O   UNL     1       1.723  -7.274   1.915  0.00  0.00    -0.275 OA
ATOM     24  H   UNL     1      -0.380  -9.445   1.294  0.00  0.00    +0.149 HD
BRANCH  21  25
ATOM     25  C   UNL     1      -0.783  -7.896   2.689  0.00  0.00    +0.136 C 
ATOM     26  C   UNL     1      -0.431  -8.365   4.101  0.00  0.00    +0.036 C 
BRANCH  25  35
ATOM     27  C   UNL     1      -8.197  -7.805   2.041  0.00  0.00    +0.044 C 
ATOM     28  C   UNL     1      -6.754  -8.233   1.956  0.00  0.00    -0.048 A 
ATOM     29  C   UNL     1      -6.429  -9.445   1.362  0.00  0.00    +0.005 A 
ATOM     30  C   UNL     1      -5.127  -9.851   1.275  0.00  0.00    +0.030 A 
ATOM     31  C   UNL     1      -4.110  -9.041   1.788  0.00  0.00    +0.089 A 
ATOM     32  C   UNL     1      -4.439  -7.814   2.388  0.00  0.00    +0.067 A 
ATOM     33  C   UNL     1      -5.767  -7.416   2.463  0.00  0.00    +0.031 A 
ATOM     34  N   UNL     1      -3.243  -7.254   2.789  0.00  0.00    -0.340 N 
ATOM     35  C   UNL     1      -2.253  -8.118   2.437  0.00  0.00    +0.128 A 
ATOM     36  N   UNL     1      -2.759  -9.163   1.851  0.00  0.00    -0.231 NA
ATOM     37  H   UNL     1      -3.129  -6.401   3.238  0.00  0.00    +0.167 HD
ENDBRANCH  25  35
ENDBRANCH  21  25
ENDBRANCH   1  22
TORSDOF 4
