REMARK  Name = ZINC18199005
REMARK  10 active torsions:
REMARK  status: ('A' for Active; 'I' for Inactive)
REMARK    1  A    between atoms: C_1  and  O_2
REMARK    2  A    between atoms: O_2  and  C_3
REMARK    3  A    between atoms: C_7  and  C_11
REMARK    4  A    between atoms: C_8  and  O_9
REMARK    5  A    between atoms: O_9  and  C_10
REMARK    6  A    between atoms: C_16  and  C_21
REMARK    7  A    between atoms: C_24  and  O_29
REMARK    8  A    between atoms: C_25  and  O_27
REMARK    9  A    between atoms: O_27  and  C_28
REMARK   10  A    between atoms: O_29  and  C_30
REMARK                            x       y       z     vdW  Elec       q    Type
REMARK                         _______ _______ _______ _____ _____    ______ ____
ROOT
ATOM      1  C   UNL     1       0.083   1.467   0.095  0.00  0.00    +0.179 C 
ATOM      2  C   UNL     1      -0.877   0.796  -0.863  0.00  0.00    +0.041 C 
ATOM      3  C   UNL     1      -0.929  -0.545  -1.004  0.00  0.00    +0.020 C 
ATOM      4  C   UNL     1      -1.910  -1.187  -1.957  0.00  0.00    +0.060 C 
ATOM      5  C   UNL     1      -2.159  -0.255  -3.144  0.00  0.00    +0.032 C 
ATOM      6  C   UNL     1      -2.700   1.075  -2.608  0.00  0.00    +0.088 C 
ATOM      7  C   UNL     1      -1.722   1.634  -1.614  0.00  0.00    +0.164 C 
ATOM      8  O   UNL     1      -1.659   2.837  -1.454  0.00  0.00    -0.292 OA
ATOM      9  N   UNL     1      -0.098  -1.381  -0.298  0.00  0.00    -0.287 N 
ATOM     10  C   UNL     1       0.994  -0.823   0.346  0.00  0.00    +0.220 A 
ATOM     11  N   UNL     1       1.095   0.516   0.535  0.00  0.00    -0.219 N 
ATOM     12  N   UNL     1       2.302   0.735   1.198  0.00  0.00    -0.132 NA
ATOM     13  C   UNL     1       2.854  -0.446   1.379  0.00  0.00    +0.233 A 
ATOM     14  N   UNL     1       2.053  -1.387   0.860  0.00  0.00    -0.180 NA
ATOM     15  N   UNL     1       4.077  -0.680   2.010  0.00  0.00    -0.326 N 
ATOM     16  H   UNL     1      -0.270  -2.335  -0.252  0.00  0.00    +0.155 HD
ATOM     17  H   UNL     1       4.410  -1.586   2.099  0.00  0.00    +0.145 HD
ATOM     18  H   UNL     1       4.594   0.064   2.358  0.00  0.00    +0.145 HD
ENDROOT
BRANCH   1  23
ATOM     19  C   UNL     1      -1.237   3.756   2.806  0.00  0.00    +0.162 A 
ATOM     20  C   UNL     1      -2.085   2.902   3.493  0.00  0.00    +0.049 A 
ATOM     21  C   UNL     1      -2.228   1.591   3.080  0.00  0.00    +0.004 A 
ATOM     22  C   UNL     1      -1.532   1.130   1.978  0.00  0.00    +0.010 A 
ATOM     23  C   UNL     1      -0.680   1.975   1.292  0.00  0.00    +0.027 A 
ATOM     24  C   UNL     1      -0.531   3.290   1.701  0.00  0.00    +0.167 A 
BRANCH  19  26
ATOM     25  C   UNL     1      -1.849   5.455   4.354  0.00  0.00    +0.277 C 
ATOM     26  O   UNL     1      -1.094   5.046   3.212  0.00  0.00    -0.491 OA
ENDBRANCH  19  26
BRANCH  24  27
ATOM     27  O   UNL     1       0.301   4.125   1.023  0.00  0.00    -0.491 OA
ATOM     28  C   UNL     1      -0.296   4.999   0.063  0.00  0.00    +0.277 C 
ENDBRANCH  24  27
ENDBRANCH   1  23
BRANCH   5  29
ATOM     29  C   UNL     1      -3.169  -0.876  -4.075  0.00  0.00    -0.040 A 
ATOM     30  C   UNL     1      -4.429  -1.200  -3.607  0.00  0.00    +0.008 A 
ATOM     31  C   UNL     1      -5.361  -1.765  -4.458  0.00  0.00    +0.049 A 
ATOM     32  C   UNL     1      -5.029  -2.018  -5.779  0.00  0.00    +0.161 A 
ATOM     33  C   UNL     1      -3.759  -1.697  -6.248  0.00  0.00    +0.162 A 
ATOM     34  C   UNL     1      -2.831  -1.126  -5.392  0.00  0.00    +0.053 A 
BRANCH  33  35
ATOM     35  O   UNL     1      -3.428  -1.944  -7.544  0.00  0.00    -0.491 OA
ATOM     36  C   UNL     1      -2.106  -1.589  -7.955  0.00  0.00    +0.277 C 
ENDBRANCH  33  35
BRANCH  32  37
ATOM     37  O   UNL     1      -5.943  -2.579  -6.616  0.00  0.00    -0.491 OA
ATOM     38  C   UNL     1      -7.226  -2.881  -6.066  0.00  0.00    +0.277 C 
ENDBRANCH  32  37
ENDBRANCH   5  29
TORSDOF 6
