REMARK  Name = ZINC08567651
REMARK  9 active torsions:
REMARK  status: ('A' for Active; 'I' for Inactive)
REMARK    1  A    between atoms: C_1  and  O_2
REMARK    2  A    between atoms: O_2  and  C_3
REMARK    3  A    between atoms: C_6  and  C_17
REMARK    4  A    between atoms: C_8  and  C_9
REMARK    5  A    between atoms: C_9  and  S_10
REMARK    6  A    between atoms: S_10  and  C_11
REMARK    7  A    between atoms: C_20  and  C_31
REMARK    8  A    between atoms: C_26  and  N_30
REMARK    9  A    between atoms: C_27  and  C_28
REMARK                            x       y       z     vdW  Elec       q    Type
REMARK                         _______ _______ _______ _____ _____    ______ ____
ROOT
ATOM      1  C   UNL     1      -4.981  -2.629   0.034  0.00  0.00    +0.102 C 
ATOM      2  C   UNL     1      -5.759  -2.229   1.261  0.00  0.00    +0.054 A 
ATOM      3  C   UNL     1      -5.551  -2.587   2.596  0.00  0.00    +0.100 A 
ATOM      4  N   UNL     1      -6.479  -1.996   3.325  0.00  0.00    -0.171 NA
ATOM      5  N   UNL     1      -7.302  -1.247   2.469  0.00  0.00    -0.246 N 
ATOM      6  H   UNL     1      -8.065  -0.711   2.736  0.00  0.00    +0.192 HD
ATOM      7  C   UNL     1      -6.845  -1.403   1.209  0.00  0.00    +0.223 A 
ATOM      8  O   UNL     1      -7.312  -0.880   0.048  0.00  0.00    -0.423 OA
ATOM      9  C   UNL     1      -6.850  -1.405  -1.105  0.00  0.00    +0.200 C 
ATOM     10  C   UNL     1      -5.777  -2.225  -1.182  0.00  0.00    +0.098 C 
ENDROOT
BRANCH   1  14
ATOM     11  C   UNL     1      -1.200  -0.637   0.010  0.00  0.00    +0.124 A 
ATOM     12  C   UNL     1      -2.375   0.101   0.019  0.00  0.00    +0.046 A 
ATOM     13  C   UNL     1      -3.596  -0.545   0.027  0.00  0.00    +0.008 A 
ATOM     14  C   UNL     1      -3.648  -1.927   0.026  0.00  0.00    -0.034 A 
ATOM     15  C   UNL     1      -2.479  -2.665   0.017  0.00  0.00    +0.012 A 
ATOM     16  C   UNL     1      -1.255  -2.023   0.003  0.00  0.00    +0.005 A 
BRANCH  11  18
ATOM     17  C   UNL     1      -0.017   1.425   0.010  0.00  0.00    +0.277 C 
ATOM     18  O   UNL     1       0.002  -0.004   0.002  0.00  0.00    -0.495 OA
ENDBRANCH  11  18
BRANCH  16  19
ATOM     19  C   UNL     1       0.018  -2.829  -0.013  0.00  0.00    +0.114 C 
BRANCH  19  20
ATOM     20  S   UNL     1       0.545  -3.161   1.691  0.00  0.00    -0.101 S 
BRANCH  20  21
ATOM     21  C   UNL     1       2.026  -4.098   1.504  0.00  0.00    +0.097 A 
ATOM     22  C   UNL     1       2.711  -4.537   2.633  0.00  0.00    +0.035 A 
ATOM     23  C   UNL     1       3.872  -5.271   2.472  0.00  0.00    +0.004 A 
ATOM     24  C   UNL     1       4.311  -5.542   1.183  0.00  0.00    +0.020 A 
ATOM     25  C   UNL     1       3.582  -5.075   0.107  0.00  0.00    +0.112 A 
ATOM     26  N   UNL     1       2.474  -4.382   0.291  0.00  0.00    -0.249 NA
ENDBRANCH  20  21
ENDBRANCH  19  20
ENDBRANCH  16  19
ENDBRANCH   1  14
BRANCH   3  27
ATOM     27  C   UNL     1      -4.476  -3.475   3.105  0.00  0.00    +0.003 A 
ATOM     28  C   UNL     1      -4.041  -4.555   2.339  0.00  0.00    +0.010 A 
ATOM     29  C   UNL     1      -3.041  -5.378   2.817  0.00  0.00    +0.001 A 
ATOM     30  C   UNL     1      -2.471  -5.133   4.053  0.00  0.00    +0.000 A 
ATOM     31  C   UNL     1      -2.899  -4.062   4.817  0.00  0.00    +0.001 A 
ATOM     32  C   UNL     1      -3.894  -3.229   4.346  0.00  0.00    +0.010 A 
ENDBRANCH   3  27
BRANCH   9  33
ATOM     33  N   UNL     1      -7.508  -1.091  -2.268  0.00  0.00    -0.328 N 
ATOM     34  H   UNL     1      -8.281  -0.506  -2.244  0.00  0.00    +0.145 HD
ATOM     35  H   UNL     1      -7.199  -1.454  -3.113  0.00  0.00    +0.145 HD
ENDBRANCH   9  33
BRANCH  10  36
ATOM     36  C   UNL     1      -5.382  -2.727  -2.463  0.00  0.00    +0.101 C 
ATOM     37  N   UNL     1      -5.068  -3.125  -3.480  0.00  0.00    -0.191 NA
ENDBRANCH  10  36
TORSDOF 8
