REMARK  Name = ZINC32948052
REMARK  12 active torsions:
REMARK  status: ('A' for Active; 'I' for Inactive)
REMARK    1  A    between atoms: C_1  and  C_2
REMARK    2  A    between atoms: C_6  and  N_9
REMARK    3  A    between atoms: C_7  and  C_8
REMARK    4  A    between atoms: C_12  and  N_29
REMARK    5  A    between atoms: C_13  and  C_15
REMARK    6  A    between atoms: C_15  and  C_17
REMARK    7  A    between atoms: C_20  and  O_27
REMARK    8  A    between atoms: C_21  and  O_25
REMARK    9  A    between atoms: C_22  and  O_23
REMARK   10  A    between atoms: O_23  and  C_24
REMARK   11  A    between atoms: O_25  and  C_26
REMARK   12  A    between atoms: O_27  and  C_28
REMARK                            x       y       z     vdW  Elec       q    Type
REMARK                         _______ _______ _______ _____ _____    ______ ____
ROOT
ATOM      1  N   UNL     1       0.048  -8.561   0.011  0.00  0.00    -0.293 N 
ATOM      2  C   UNL     1       0.007  -7.411  -0.748  0.00  0.00    +0.165 A 
ATOM      3  N   UNL     1       0.004  -7.291  -2.067  0.00  0.00    -0.210 NA
ATOM      4  C   UNL     1      -0.043  -6.118  -2.651  0.00  0.00    +0.136 A 
ATOM      5  C   UNL     1      -0.078  -4.988  -1.822  0.00  0.00    +0.102 A 
ATOM      6  S   UNL     1      -0.052  -5.761  -0.211  0.00  0.00    -0.047 S 
ATOM      7  H   UNL     1      -0.066  -8.503   1.103  0.00  0.00    +0.154 HD
ENDROOT
BRANCH   1  13
ATOM      8  C   UNL     1       0.164 -13.466   0.313  0.00  0.00    +0.044 C 
ATOM      9  C   UNL     1       0.296 -12.194  -0.486  0.00  0.00    -0.046 A 
ATOM     10  C   UNL     1       0.603 -12.254  -1.833  0.00  0.00    +0.004 A 
ATOM     11  C   UNL     1       0.726 -11.090  -2.569  0.00  0.00    +0.002 A 
ATOM     12  C   UNL     1       0.537  -9.863  -1.962  0.00  0.00    +0.023 A 
ATOM     13  C   UNL     1       0.234  -9.800  -0.608  0.00  0.00    +0.036 A 
ATOM     14  C   UNL     1       0.112 -10.972   0.129  0.00  0.00    -0.026 A 
ATOM     15  C   UNL     1      -0.222 -10.908   1.597  0.00  0.00    +0.046 C 
ENDBRANCH   1  13
BRANCH   4  16
ATOM     16  N   UNL     1      -0.054  -6.000  -4.032  0.00  0.00    -0.342 N 
ATOM     17  H   UNL     1      -0.095  -5.004  -4.498  0.00  0.00    +0.144 HD
ATOM     18  H   UNL     1      -0.023  -6.901  -4.661  0.00  0.00    +0.144 HD
ENDBRANCH   4  16
BRANCH   5  19
ATOM     19  C   UNL     1      -0.127  -3.622  -2.164  0.00  0.00    +0.207 C 
ATOM     20  O   UNL     1      -0.285  -3.289  -3.327  0.00  0.00    -0.286 OA
BRANCH  19  21
ATOM     21  C   UNL     1       0.013  -2.593  -1.115  0.00  0.00    +0.068 A 
ATOM     22  C   UNL     1       0.349  -2.963   0.190  0.00  0.00    +0.019 A 
ATOM     23  C   UNL     1       0.479  -2.002   1.167  0.00  0.00    +0.050 A 
ATOM     24  C   UNL     1       0.279  -0.661   0.862  0.00  0.00    +0.165 A 
ATOM     25  C   UNL     1      -0.054  -0.280  -0.433  0.00  0.00    +0.204 A 
ATOM     26  C   UNL     1      -0.193  -1.242  -1.424  0.00  0.00    +0.176 A 
BRANCH  26  27
ATOM     27  O   UNL     1      -0.523  -0.874  -2.689  0.00  0.00    -0.491 OA
ATOM     28  C   UNL     1      -1.911  -0.894  -3.029  0.00  0.00    +0.277 C 
ENDBRANCH  26  27
BRANCH  25  29
ATOM     29  O   UNL     1      -0.250   1.034  -0.727  0.00  0.00    -0.488 OA
ATOM     30  C   UNL     1       0.909   1.807  -1.047  0.00  0.00    +0.277 C 
ENDBRANCH  25  29
BRANCH  24  31
ATOM     31  O   UNL     1       0.409   0.281   1.832  0.00  0.00    -0.491 OA
ATOM     32  C   UNL     1       0.752  -0.179   3.141  0.00  0.00    +0.277 C 
ENDBRANCH  24  31
ENDBRANCH  19  21
ENDBRANCH   5  19
TORSDOF 7
