REMARK  Name = ZINC22914620
REMARK  15 active torsions:
REMARK  status: ('A' for Active; 'I' for Inactive)
REMARK    1  A    between atoms: C_1  and  N_2
REMARK    2  A    between atoms: N_5  and  C_8
REMARK    3  A    between atoms: C_8  and  C_9
REMARK    4  A    between atoms: C_9  and  C_11
REMARK    5  A    between atoms: C_9  and  O_32
REMARK    6  A    between atoms: C_11  and  O_12
REMARK    7  A    between atoms: O_12  and  C_13
REMARK    8  A    between atoms: C_15  and  O_30
REMARK    9  A    between atoms: C_18  and  C_19
REMARK   10  A    between atoms: C_19  and  N_20
REMARK   11  A    between atoms: N_20  and  C_21
REMARK   12  A    between atoms: C_21  and  C_22
REMARK   13  A    between atoms: C_22  and  C_23
REMARK   14  A    between atoms: C_23  and  C_24
REMARK   15  A    between atoms: O_30  and  C_31
REMARK                            x       y       z     vdW  Elec       q    Type
REMARK                         _______ _______ _______ _____ _____    ______ ____
ROOT
ATOM      1  C   UNL     1       0.002  -0.004   0.002  0.00  0.00    +0.125 A 
ATOM      2  C   UNL     1       1.212  -0.681  -0.013  0.00  0.00    +0.091 A 
ATOM      3  C   UNL     1       1.227  -2.067  -0.020  0.00  0.00    +0.124 A 
ATOM      4  C   UNL     1       0.033  -2.774  -0.012  0.00  0.00    +0.046 A 
ATOM      5  C   UNL     1      -1.171  -2.096   0.003  0.00  0.00    +0.009 A 
ATOM      6  C   UNL     1      -1.190  -0.715   0.015  0.00  0.00    -0.022 A 
ENDROOT
BRANCH   3   7
ATOM      7  O   UNL     1       2.411  -2.734  -0.035  0.00  0.00    -0.495 OA
ATOM      8  C   UNL     1       2.352  -4.162  -0.041  0.00  0.00    +0.277 C 
ENDBRANCH   3   7
BRANCH   1   9
ATOM      9  O   UNL     1      -0.016   1.355   0.009  0.00  0.00    -0.489 OA
BRANCH   9  10
ATOM     10  C   UNL     1       1.248   2.021   0.001  0.00  0.00    +0.261 C 
BRANCH  10  11
ATOM     11  C   UNL     1       1.027   3.535   0.011  0.00  0.00    +0.166 C 
BRANCH  11  12
ATOM     12  O   UNL     1       0.406   3.917   1.240  0.00  0.00    -0.387 OA
ATOM     13  H   UNL     1      -0.576   3.503   1.513  0.00  0.00    +0.210 HD
ENDBRANCH  11  12
BRANCH  11  14
ATOM     14  C   UNL     1       2.374   4.248  -0.123  0.00  0.00    +0.119 C 
BRANCH  14  19
ATOM     15  C   UNL     1       2.216   9.809  -1.099  0.00  0.00    -0.096 C 
ATOM     16  N   UNL     1       2.428   8.355  -1.109  0.00  0.00    +0.379 N 
ATOM     17  C   UNL     1       3.170   7.923   0.085  0.00  0.00    -0.064 C 
ATOM     18  C   UNL     1       3.439   6.419  -0.003  0.00  0.00    +0.066 C 
ATOM     19  N   UNL     1       2.162   5.701  -0.114  0.00  0.00    -0.303 NA
ATOM     20  C   UNL     1       1.420   6.133  -1.307  0.00  0.00    +0.066 C 
ATOM     21  C   UNL     1       1.151   7.637  -1.220  0.00  0.00    -0.064 C 
ATOM     22  H   UNL     1       3.034   8.110  -1.993  0.00  0.00    -0.082 HD
ENDBRANCH  14  19
ENDBRANCH  11  14
ENDBRANCH  10  11
ENDBRANCH   9  10
ENDBRANCH   1   9
BRANCH   6  23
ATOM     23  C   UNL     1      -2.505   0.021   0.038  0.00  0.00    -0.043 C 
BRANCH  23  24
ATOM     24  N   UNL     1      -2.834   0.477  -1.319  0.00  0.00    +0.382 N 
ATOM     25  H   UNL     1      -2.043   1.150  -1.682  0.00  0.00    -0.085 HD
ATOM     26  H   UNL     1      -2.911  -0.392  -1.989  0.00  0.00    -0.085 HD
BRANCH  24  27
ATOM     27  C   UNL     1      -4.112   1.200  -1.336  0.00  0.00    -0.082 C 
BRANCH  27  28
ATOM     28  C   UNL     1      -4.421   1.657  -2.763  0.00  0.00    -0.014 C 
BRANCH  28  29
ATOM     29  C   UNL     1      -5.753   2.410  -2.781  0.00  0.00    +0.035 C 
BRANCH  29  30
ATOM     30  C   UNL     1      -6.056   2.861  -4.187  0.00  0.00    -0.029 A 
ATOM     31  C   UNL     1      -5.625   4.101  -4.635  0.00  0.00    +0.006 A 
ATOM     32  C   UNL     1      -5.923   4.471  -5.937  0.00  0.00    +0.020 A 
ATOM     33  C   UNL     1      -6.644   3.604  -6.736  0.00  0.00    +0.111 A 
ATOM     34  N   UNL     1      -7.042   2.435  -6.274  0.00  0.00    -0.263 NA
ATOM     35  C   UNL     1      -6.773   2.047  -5.043  0.00  0.00    +0.114 A 
ENDBRANCH  29  30
ENDBRANCH  28  29
ENDBRANCH  27  28
ENDBRANCH  24  27
ENDBRANCH  23  24
ENDBRANCH   6  23
TORSDOF 13
