REMARK  Name = ZINC38975028
REMARK  6 active torsions:
REMARK  status: ('A' for Active; 'I' for Inactive)
REMARK    1  A    between atoms: C_4  and  N_7
REMARK    2  A    between atoms: C_8  and  C_29
REMARK    3  A    between atoms: C_12  and  S_14
REMARK    4  A    between atoms: S_14  and  C_15
REMARK    5  A    between atoms: C_15  and  C_16
REMARK    6  A    between atoms: C_16  and  N_18
REMARK                            x       y       z     vdW  Elec       q    Type
REMARK                         _______ _______ _______ _____ _____    ______ ____
ROOT
ATOM      1  N   UNL     1       3.631  -0.506   0.053  0.00  0.00    -0.284 N 
ATOM      2  C   UNL     1       3.778  -1.971   0.091  0.00  0.00    +0.190 C 
ATOM      3  N   UNL     1       5.232  -2.251   0.086  0.00  0.00    -0.230 NA
ATOM      4  N   UNL     1       5.832  -1.051  -0.520  0.00  0.00    -0.226 NA
ATOM      5  C   UNL     1       4.998   0.051   0.020  0.00  0.00    +0.218 C 
ATOM      6  H   UNL     1       5.440  -3.074  -0.460  0.00  0.00    +0.143 HD
ATOM      7  H   UNL     1       5.772  -1.086  -1.527  0.00  0.00    +0.143 HD
ENDROOT
BRANCH   1  11
ATOM      8  C   UNL     1       0.064   1.642   0.028  0.00  0.00    +0.000 A 
ATOM      9  C   UNL     1       1.271   2.310   0.121  0.00  0.00    +0.002 A 
ATOM     10  C   UNL     1       2.456   1.601   0.130  0.00  0.00    +0.023 A 
ATOM     11  C   UNL     1       2.434   0.215   0.045  0.00  0.00    +0.033 A 
ATOM     12  C   UNL     1       1.220  -0.454  -0.048  0.00  0.00    +0.023 A 
ATOM     13  C   UNL     1       0.039   0.262  -0.057  0.00  0.00    +0.002 A 
ENDBRANCH   1  11
BRANCH   2  14
ATOM     14  C   UNL     1       3.150  -2.521   1.346  0.00  0.00    +0.007 A 
ATOM     15  C   UNL     1       2.456  -1.686   2.208  0.00  0.00    +0.010 A 
ATOM     16  C   UNL     1       1.895  -2.235   3.350  0.00  0.00    +0.020 A 
ATOM     17  C   UNL     1       2.045  -3.588   3.590  0.00  0.00    +0.111 A 
ATOM     18  N   UNL     1       2.712  -4.353   2.748  0.00  0.00    -0.263 NA
ATOM     19  C   UNL     1       3.254  -3.865   1.649  0.00  0.00    +0.117 A 
ENDBRANCH   2  14
BRANCH   5  20
ATOM     20  S   UNL     1       5.545   0.494   1.692  0.00  0.00    -0.112 S 
BRANCH  20  21
ATOM     21  C   UNL     1       5.687  -1.102   2.544  0.00  0.00    +0.170 C 
BRANCH  21  22
ATOM     22  C   UNL     1       6.265  -0.887   3.919  0.00  0.00    +0.248 C 
ATOM     23  O   UNL     1       6.553   0.234   4.289  0.00  0.00    -0.273 OA
BRANCH  22  24
ATOM     24  N   UNL     1       6.460  -1.924   4.727  0.00  0.00    -0.156 NA
ATOM     25  C   UNL     1       6.873  -1.726   5.977  0.00  0.00    +0.164 A 
ATOM     26  N   UNL     1       7.029  -0.543   6.623  0.00  0.00    -0.335 N 
ATOM     27  H   UNL     1       6.831   0.290   6.168  0.00  0.00    +0.168 HD
ATOM     28  C   UNL     1       7.471  -0.529   7.933  0.00  0.00    +0.055 A 
ATOM     29  C   UNL     1       7.700   0.566   8.778  0.00  0.00    +0.027 A 
ATOM     30  C   UNL     1       8.146   0.375  10.066  0.00  0.00    +0.002 A 
ATOM     31  C   UNL     1       8.381  -0.896  10.562  0.00  0.00    +0.001 A 
ATOM     32  C   UNL     1       8.163  -1.993   9.748  0.00  0.00    +0.017 A 
ATOM     33  C   UNL     1       7.717  -1.804   8.461  0.00  0.00    +0.039 A 
ATOM     34  S   UNL     1       7.311  -2.884   7.114  0.00  0.00    -0.052 S 
ENDBRANCH  22  24
ENDBRANCH  21  22
ENDBRANCH  20  21
ENDBRANCH   5  20
TORSDOF 6
