REMARK  Name = ZINC01763023
REMARK  8 active torsions:
REMARK  status: ('A' for Active; 'I' for Inactive)
REMARK    1  A    between atoms: C_1  and  C_2
REMARK    2  A    between atoms: C_3  and  C_28
REMARK    3  A    between atoms: C_4  and  C_23
REMARK    4  A    between atoms: C_6  and  N_22
REMARK    5  A    between atoms: C_7  and  C_11
REMARK    6  A    between atoms: C_11  and  C_13
REMARK    7  A    between atoms: C_17  and  N_19
REMARK    8  A    between atoms: N_30  and  C_31
REMARK                            x       y       z     vdW  Elec       q    Type
REMARK                         _______ _______ _______ _____ _____    ______ ____
ROOT
ATOM      1  C   UNL     1       0.093   1.558   0.142  0.00  0.00    +0.066 C 
ATOM      2  C   UNL     1       0.002   0.055   0.089  0.00  0.00    +0.052 A 
ATOM      3  C   UNL     1      -0.003  -0.597  -1.149  0.00  0.00    +0.069 A 
ATOM      4  C   UNL     1      -0.088  -2.001  -1.199  0.00  0.00    +0.043 A 
ATOM      5  C   UNL     1      -0.169  -2.725   0.031  0.00  0.00    +0.040 A 
ATOM      6  C   UNL     1      -0.264  -4.159   0.230  0.00  0.00    +0.053 A 
ATOM      7  C   UNL     1      -0.331  -4.638   1.526  0.00  0.00    +0.083 A 
ATOM      8  S   UNL     1      -0.268  -3.157   2.514  0.00  0.00    -0.064 S 
ATOM      9  C   UNL     1      -0.156  -1.952   1.214  0.00  0.00    +0.112 A 
ATOM     10  N   UNL     1      -0.069  -0.635   1.206  0.00  0.00    -0.244 NA
ENDROOT
BRANCH   4  11
ATOM     11  C   UNL     1      -0.095  -2.707  -2.487  0.00  0.00    +0.136 A 
ATOM     12  C   UNL     1       0.934  -2.751  -3.383  0.00  0.00    +0.050 A 
ATOM     13  C   UNL     1       0.494  -3.533  -4.465  0.00  0.00    +0.042 A 
ATOM     14  C   UNL     1      -0.766  -3.926  -4.184  0.00  0.00    +0.196 A 
ATOM     15  O   UNL     1      -1.117  -3.431  -2.988  0.00  0.00    -0.463 OA
ENDBRANCH   4  11
BRANCH   3  16
ATOM     16  C   UNL     1       0.081   0.182  -2.394  0.00  0.00    +0.251 C 
ATOM     17  O   UNL     1       1.167   0.439  -2.878  0.00  0.00    -0.270 OA
ATOM     18  N   UNL     1      -1.045   0.611  -2.998  0.00  0.00    -0.281 N 
ATOM     19  H   UNL     1      -1.907   0.460  -2.580  0.00  0.00    +0.155 HD
BRANCH  18  20
ATOM     20  C   UNL     1      -0.970   1.272  -4.228  0.00  0.00    +0.034 A 
ATOM     21  C   UNL     1      -1.968   1.092  -5.177  0.00  0.00    +0.025 A 
ATOM     22  C   UNL     1      -1.892   1.747  -6.391  0.00  0.00    +0.022 A 
ATOM     23  C   UNL     1      -0.822   2.582  -6.662  0.00  0.00    +0.041 A 
ATOM     24  C   UNL     1       0.174   2.763  -5.718  0.00  0.00    +0.022 A 
ATOM     25  C   UNL     1       0.100   2.115  -4.501  0.00  0.00    +0.025 A 
ATOM     26 CL   UNL     1      -0.729   3.402  -8.189  0.00  0.00    -0.084 Cl
ENDBRANCH  18  20
ENDBRANCH   3  16
BRANCH   6  27
ATOM     27  N   UNL     1      -0.286  -5.027  -0.851  0.00  0.00    -0.356 N 
ATOM     28  H   UNL     1      -0.239  -4.677  -1.755  0.00  0.00    +0.142 HD
ATOM     29  H   UNL     1      -0.349  -5.984  -0.704  0.00  0.00    +0.142 HD
ENDBRANCH   6  27
BRANCH   7  30
ATOM     30  C   UNL     1      -0.427  -5.979   1.962  0.00  0.00    +0.202 C 
ATOM     31  O   UNL     1      -0.577  -6.874   1.149  0.00  0.00    -0.286 OA
BRANCH  30  32
ATOM     32  C   UNL     1      -0.346  -6.296   3.405  0.00  0.00    +0.025 A 
ATOM     33  C   UNL     1      -0.926  -7.465   3.899  0.00  0.00    +0.012 A 
ATOM     34  C   UNL     1      -0.847  -7.754   5.245  0.00  0.00    +0.003 A 
ATOM     35  C   UNL     1      -0.193  -6.889   6.105  0.00  0.00    +0.033 A 
ATOM     36  C   UNL     1       0.385  -5.729   5.621  0.00  0.00    +0.127 A 
ATOM     37  C   UNL     1       0.317  -5.430   4.276  0.00  0.00    +0.044 A 
BRANCH  36  38
ATOM     38  N   UNL     1       1.082  -4.809   6.548  0.00  0.00    +0.056 N 
ATOM     39  O   UNL     1       1.146  -5.072   7.726  0.00  0.00    -0.126 OA
ATOM     40  O   UNL     1       1.587  -3.795   6.126  0.00  0.00    -0.126 OA
ENDBRANCH  36  38
ENDBRANCH  30  32
ENDBRANCH   7  30
TORSDOF 7
