REMARK  Name = ZINC29397673
REMARK  8 active torsions:
REMARK  status: ('A' for Active; 'I' for Inactive)
REMARK    1  A    between atoms: C_4  and  C_7
REMARK    2  A    between atoms: C_7  and  C_8
REMARK    3  A    between atoms: N_10  and  C_11
REMARK    4  A    between atoms: N_14  and  C_17
REMARK    5  A    between atoms: C_17  and  C_18
REMARK    6  A    between atoms: N_20  and  C_21
REMARK    7  A    between atoms: C_31  and  C_33
REMARK    8  A    between atoms: C_33  and  C_34
REMARK                            x       y       z     vdW  Elec       q    Type
REMARK                         _______ _______ _______ _____ _____    ______ ____
ROOT
ATOM      1  C   UNL     1       0.261  -1.283  -2.095  0.00  0.00    +0.197 C 
ATOM      2  O   UNL     1      -0.641  -1.953  -1.638  0.00  0.00    -0.278 OA
ATOM      3  N   UNL     1       0.626  -0.138  -1.485  0.00  0.00    -0.313 N 
ATOM      4  H   UNL     1       1.444   0.469  -1.899  0.00  0.00    +0.149 HD
ENDROOT
BRANCH   3   5
ATOM      5  C   UNL     1      -0.067   0.297  -0.269  0.00  0.00    +0.081 C 
ATOM      6  C   UNL     1       0.580  -0.359   0.957  0.00  0.00    +0.027 C 
ATOM      7  C   UNL     1       2.090  -0.148   0.875  0.00  0.00    +0.037 C 
ATOM      8  C   UNL     1       2.410   1.305   0.640  0.00  0.00    -0.041 A 
ATOM      9  C   UNL     1       3.705   1.733   0.906  0.00  0.00    +0.042 A 
ATOM     10  C   UNL     1       4.063   3.052   0.706  0.00  0.00    +0.124 A 
ATOM     11  C   UNL     1       3.123   3.955   0.237  0.00  0.00    +0.038 A 
ATOM     12  C   UNL     1       1.838   3.530  -0.025  0.00  0.00    +0.007 A 
ATOM     13  C   UNL     1       1.476   2.204   0.178  0.00  0.00    -0.039 A 
ATOM     14  C   UNL     1       0.053   1.812  -0.124  0.00  0.00    +0.044 C 
ATOM     15  F   UNL     1       5.324   3.459   0.967  0.00  0.00    -0.205 F 
BRANCH  14  16
ATOM     16  C   UNL     1      -0.389   2.481  -1.427  0.00  0.00    +0.046 C 
BRANCH  16  17
ATOM     17  C   UNL     1      -1.853   2.211  -1.659  0.00  0.00    -0.029 A 
ATOM     18  C   UNL     1      -2.817   3.020  -1.077  0.00  0.00    +0.006 A 
ATOM     19  C   UNL     1      -4.152   2.734  -1.318  0.00  0.00    +0.020 A 
ATOM     20  C   UNL     1      -4.476   1.658  -2.124  0.00  0.00    +0.111 A 
ATOM     21  N   UNL     1      -3.532   0.909  -2.660  0.00  0.00    -0.263 NA
ATOM     22  C   UNL     1      -2.252   1.156  -2.457  0.00  0.00    +0.114 A 
ENDBRANCH  16  17
ENDBRANCH  14  16
ENDBRANCH   3   5
BRANCH   1  23
ATOM     23  C   UNL     1       0.973  -1.731  -3.345  0.00  0.00    +0.019 C 
BRANCH  23  27
ATOM     24  C   UNL     1       0.671  -5.840  -4.488  0.00  0.00    +0.069 C 
ATOM     25  C   UNL     1       0.177  -5.404  -3.106  0.00  0.00    +0.003 C 
ATOM     26  C   UNL     1       0.828  -4.069  -2.735  0.00  0.00    -0.076 C 
ATOM     27  N   UNL     1       0.481  -3.057  -3.741  0.00  0.00    +0.385 N 
ATOM     28  C   UNL     1       0.987  -3.432  -5.068  0.00  0.00    -0.076 C 
ATOM     29  C   UNL     1       0.341  -4.747  -5.508  0.00  0.00    +0.003 C 
ATOM     30  H   UNL     1      -0.616  -3.008  -3.802  0.00  0.00    -0.081 HD
BRANCH  24  33
ATOM     31  C   UNL     1       0.597  -7.921  -5.754  0.00  0.00    +0.218 C 
ATOM     32  O   UNL     1       1.678  -7.637  -6.227  0.00  0.00    -0.275 OA
ATOM     33  N   UNL     1       0.008  -7.088  -4.874  0.00  0.00    -0.312 N 
ATOM     34  H   UNL     1      -0.972  -7.345  -4.446  0.00  0.00    +0.149 HD
BRANCH  31  35
ATOM     35  C   UNL     1      -0.086  -9.204  -6.151  0.00  0.00    +0.130 C 
BRANCH  35  39
ATOM     36  C   UNL     1       2.358 -11.311  -8.951  0.00  0.00    +0.000 A 
ATOM     37  C   UNL     1       2.506 -11.539  -7.596  0.00  0.00    +0.000 A 
ATOM     38  C   UNL     1       1.716 -10.857  -6.689  0.00  0.00    +0.004 A 
ATOM     39  C   UNL     1       0.777  -9.947  -7.139  0.00  0.00    -0.039 A 
ATOM     40  C   UNL     1       0.624  -9.724  -8.495  0.00  0.00    +0.004 A 
ATOM     41  C   UNL     1       1.419 -10.402  -9.400  0.00  0.00    +0.000 A 
ENDBRANCH  35  39
ENDBRANCH  31  35
ENDBRANCH  24  33
ENDBRANCH  23  27
ENDBRANCH   1  23
TORSDOF 8
