REMARK  Name = ZINC14479134
REMARK  10 active torsions:
REMARK  status: ('A' for Active; 'I' for Inactive)
REMARK    1  A    between atoms: C_1  and  C_2
REMARK    2  A    between atoms: C_5  and  N_9
REMARK    3  A    between atoms: C_7  and  C_8
REMARK    4  A    between atoms: N_9  and  S_10
REMARK    5  A    between atoms: S_10  and  C_13
REMARK    6  A    between atoms: C_26  and  C_29
REMARK    7  A    between atoms: C_32  and  O_37
REMARK    8  A    between atoms: C_33  and  O_35
REMARK    9  A    between atoms: O_35  and  C_36
REMARK   10  A    between atoms: O_37  and  C_38
REMARK                            x       y       z     vdW  Elec       q    Type
REMARK                         _______ _______ _______ _____ _____    ______ ____
ROOT
ATOM      1  C   UNL     1      -4.160   5.183   2.071  0.00  0.00    +0.109 A 
ATOM      2  C   UNL     1      -4.887   5.628   0.982  0.00  0.00    +0.030 A 
ATOM      3  C   UNL     1      -4.435   6.697   0.237  0.00  0.00    +0.025 A 
ATOM      4  C   UNL     1      -3.249   7.337   0.575  0.00  0.00    +0.031 A 
ATOM      5  C   UNL     1      -2.513   6.874   1.672  0.00  0.00    -0.018 A 
ATOM      6  C   UNL     1      -2.978   5.812   2.416  0.00  0.00    +0.034 A 
ATOM      7  C   UNL     1      -1.242   7.564   1.980  0.00  0.00    +0.049 C 
ATOM      8  C   UNL     1      -0.666   7.580   3.348  0.00  0.00    -0.023 C 
ATOM      9  C   UNL     1       0.006   8.714   3.512  0.00  0.00    -0.030 C 
ATOM     10  C   UNL     1      -0.101   9.572   2.250  0.00  0.00    +0.033 C 
ATOM     11  C   UNL     1      -1.423   9.075   1.650  0.00  0.00    +0.029 C 
ATOM     12  C   UNL     1      -1.567   9.146   0.140  0.00  0.00    +0.105 C 
ATOM     13  N   UNL     1      -2.828   8.441  -0.175  0.00  0.00    -0.336 N 
ATOM     14  H   UNL     1      -3.374   8.750  -0.915  0.00  0.00    +0.147 HD
ENDROOT
BRANCH  12  15
ATOM     15  C   UNL     1      -1.647  10.582  -0.309  0.00  0.00    -0.023 A 
ATOM     16  C   UNL     1      -2.841  11.271  -0.206  0.00  0.00    +0.009 A 
ATOM     17  C   UNL     1      -2.920  12.589  -0.616  0.00  0.00    +0.050 A 
ATOM     18  C   UNL     1      -1.800  13.222  -1.131  0.00  0.00    +0.162 A 
ATOM     19  C   UNL     1      -0.598  12.529  -1.234  0.00  0.00    +0.162 A 
ATOM     20  C   UNL     1      -0.525  11.210  -0.816  0.00  0.00    +0.055 A 
BRANCH  19  21
ATOM     21  O   UNL     1       0.504  13.147  -1.738  0.00  0.00    -0.491 OA
ATOM     22  C   UNL     1       1.703  12.373  -1.814  0.00  0.00    +0.277 C 
ENDBRANCH  19  21
BRANCH  18  23
ATOM     23  O   UNL     1      -1.876  14.519  -1.535  0.00  0.00    -0.491 OA
ATOM     24  C   UNL     1      -3.142  15.168  -1.399  0.00  0.00    +0.277 C 
ENDBRANCH  18  23
ENDBRANCH  12  15
BRANCH   1  25
ATOM     25  S   UNL     1      -4.745   3.821   3.025  0.00  0.00    +0.072 S 
ATOM     26  O   UNL     1      -6.150   3.761   2.827  0.00  0.00    -0.150 OA
ATOM     27  O   UNL     1      -4.162   3.949   4.314  0.00  0.00    -0.150 OA
BRANCH  25  28
ATOM     28  N   UNL     1      -4.112   2.446   2.353  0.00  0.00    -0.216 N 
ATOM     29  H   UNL     1      -4.700   1.790   1.947  0.00  0.00    +0.174 HD
BRANCH  28  34
ATOM     30  C   UNL     1       1.491   1.573   2.424  0.00  0.00    +0.044 C 
ATOM     31  C   UNL     1       0.002   1.805   2.405  0.00  0.00    -0.047 A 
ATOM     32  C   UNL     1      -0.642   2.252   3.545  0.00  0.00    +0.005 A 
ATOM     33  C   UNL     1      -2.006   2.466   3.531  0.00  0.00    +0.025 A 
ATOM     34  C   UNL     1      -2.732   2.231   2.370  0.00  0.00    +0.048 A 
ATOM     35  C   UNL     1      -2.082   1.789   1.225  0.00  0.00    +0.028 A 
ATOM     36  C   UNL     1      -0.718   1.572   1.248  0.00  0.00    -0.046 A 
ATOM     37  C   UNL     1      -0.013   1.086   0.008  0.00  0.00    +0.044 C 
ENDBRANCH  28  34
ENDBRANCH  25  28
ENDBRANCH   1  25
TORSDOF 6
