REMARK  Name = ZINC39482710
REMARK  10 active torsions:
REMARK  status: ('A' for Active; 'I' for Inactive)
REMARK    1  A    between atoms: C_1  and  O_2
REMARK    2  A    between atoms: O_2  and  C_3
REMARK    3  A    between atoms: N_6  and  C_10
REMARK    4  A    between atoms: C_12  and  S_27
REMARK    5  A    between atoms: C_15  and  N_16
REMARK    6  A    between atoms: N_16  and  S_17
REMARK    7  A    between atoms: S_17  and  C_20
REMARK    8  A    between atoms: C_25  and  O_26
REMARK    9  A    between atoms: S_27  and  O_30
REMARK   10  A    between atoms: O_30  and  C_31
REMARK                            x       y       z     vdW  Elec       q    Type
REMARK                         _______ _______ _______ _____ _____    ______ ____
ROOT
ATOM      1  C   UNL     1       1.467  -3.212   3.528  0.00  0.00    +0.054 A 
ATOM      2  C   UNL     1       1.756  -4.558   3.363  0.00  0.00    +0.055 A 
ATOM      3  C   UNL     1       1.279  -5.484   4.272  0.00  0.00    +0.130 A 
ATOM      4  C   UNL     1       0.513  -5.072   5.346  0.00  0.00    +0.032 A 
ATOM      5  C   UNL     1       0.219  -3.732   5.519  0.00  0.00    +0.028 A 
ATOM      6  C   UNL     1       0.699  -2.796   4.615  0.00  0.00    +0.069 A 
ENDROOT
BRANCH   1   9
ATOM      7  C   UNL     1       1.063  -0.373   1.363  0.00  0.00    +0.203 C 
ATOM      8  C   UNL     1       1.161  -1.901   1.424  0.00  0.00    +0.153 C 
ATOM      9  N   UNL     1       1.950  -2.272   2.609  0.00  0.00    -0.323 N 
ATOM     10  C   UNL     1       3.259  -1.630   2.803  0.00  0.00    +0.120 C 
ATOM     11  C   UNL     1       3.078  -0.112   2.688  0.00  0.00    +0.102 C 
ATOM     12  N   UNL     1       2.413   0.204   1.417  0.00  0.00    -0.289 NA
ATOM     13  H   UNL     1       2.969  -0.102   0.633  0.00  0.00    +0.124 HD
BRANCH   7  15
ATOM     14  C   UNL     1       0.082   1.402   0.086  0.00  0.00    +0.196 C 
ATOM     15  O   UNL     1       0.426   0.016   0.145  0.00  0.00    -0.363 OA
ENDBRANCH   7  15
ENDBRANCH   1   9
BRANCH   3  16
ATOM     16  S   UNL     1       1.648  -7.194   4.059  0.00  0.00    +0.151 S 
ATOM     17  O   UNL     1       0.630  -7.916   4.739  0.00  0.00    -0.131 OA
ATOM     18  O   UNL     1       1.922  -7.382   2.678  0.00  0.00    -0.131 OA
BRANCH  16  19
ATOM     19  O   UNL     1       2.947  -7.469   4.802  0.00  0.00    -0.342 OA
BRANCH  19  20
ATOM     20  C   UNL     1       2.812  -7.519   6.154  0.00  0.00    +0.157 A 
ATOM     21  C   UNL     1       2.950  -6.363   6.908  0.00  0.00    +0.048 A 
ATOM     22  C   UNL     1       2.812  -6.415   8.282  0.00  0.00    +0.004 A 
ATOM     23  C   UNL     1       2.535  -7.618   8.905  0.00  0.00    +0.000 A 
ATOM     24  C   UNL     1       2.397  -8.772   8.155  0.00  0.00    +0.004 A 
ATOM     25  C   UNL     1       2.529  -8.723   6.780  0.00  0.00    +0.048 A 
ENDBRANCH  19  20
ENDBRANCH  16  19
ENDBRANCH   3  16
BRANCH   6  26
ATOM     26  N   UNL     1       0.407  -1.438   4.790  0.00  0.00    -0.214 N 
ATOM     27  H   UNL     1       0.261  -0.869   4.018  0.00  0.00    +0.174 HD
BRANCH  26  28
ATOM     28  S   UNL     1       0.312  -0.801   6.316  0.00  0.00    +0.076 S 
ATOM     29  O   UNL     1       1.444  -1.283   7.028  0.00  0.00    -0.150 OA
ATOM     30  O   UNL     1       0.042   0.585   6.162  0.00  0.00    -0.150 OA
BRANCH  28  31
ATOM     31  C   UNL     1      -1.106  -1.507   7.087  0.00  0.00    +0.150 A 
ATOM     32  C   UNL     1      -0.960  -2.305   8.206  0.00  0.00    +0.032 A 
ATOM     33  C   UNL     1      -2.072  -2.859   8.812  0.00  0.00    +0.002 A 
ATOM     34  C   UNL     1      -3.333  -2.617   8.300  0.00  0.00    +0.004 A 
ATOM     35  C   UNL     1      -3.485  -1.821   7.181  0.00  0.00    +0.047 A 
ATOM     36  C   UNL     1      -2.371  -1.259   6.575  0.00  0.00    +0.143 A 
BRANCH  36  37
ATOM     37  O   UNL     1      -2.518  -0.470   5.478  0.00  0.00    -0.505 OA
ATOM     38  H   UNL     1      -2.512  -0.955   4.641  0.00  0.00    +0.292 HD
ENDBRANCH  36  37
ENDBRANCH  28  31
ENDBRANCH  26  28
ENDBRANCH   6  26
TORSDOF 9
