REMARK  Name = ZINC62848497
REMARK  8 active torsions:
REMARK  status: ('A' for Active; 'I' for Inactive)
REMARK    1  A    between atoms: C_1  and  C_2
REMARK    2  A    between atoms: C_2  and  C_3
REMARK    3  A    between atoms: C_3  and  C_9
REMARK    4  A    between atoms: N_11  and  C_12
REMARK    5  A    between atoms: C_18  and  C_20
REMARK    6  A    between atoms: C_20  and  C_21
REMARK    7  A    between atoms: C_20  and  C_22
REMARK    8  A    between atoms: C_20  and  C_23
REMARK                            x       y       z     vdW  Elec       q    Type
REMARK                         _______ _______ _______ _____ _____    ______ ____
ROOT
ATOM      1  C   UNL     1       2.603   0.044   1.029  0.00  0.00    +0.219 C 
ATOM      2  O   UNL     1       3.675  -0.460   0.766  0.00  0.00    -0.275 OA
ATOM      3  N   UNL     1       2.549   1.312   1.483  0.00  0.00    -0.312 N 
ATOM      4  H   UNL     1       1.690   1.737   1.631  0.00  0.00    +0.149 HD
ENDROOT
BRANCH   1   5
ATOM      5  C   UNL     1       1.333  -0.747   0.848  0.00  0.00    +0.043 C 
ATOM      6  C   UNL     1       0.591  -0.840   2.185  0.00  0.00    -0.003 C 
ATOM      7  C   UNL     1       1.456  -1.603   3.191  0.00  0.00    -0.082 C 
ATOM      8  N   UNL     1       1.726  -2.954   2.684  0.00  0.00    +0.379 N 
ATOM      9  C   UNL     1       2.499  -2.874   1.440  0.00  0.00    -0.082 C 
ATOM     10  C   UNL     1       1.675  -2.160   0.366  0.00  0.00    -0.003 C 
ATOM     11  H   UNL     1       2.251  -3.471   3.373  0.00  0.00    -0.086 HD
ATOM     12  H   UNL     1       0.852  -3.425   2.506  0.00  0.00    -0.086 HD
BRANCH   5  14
ATOM     13  C   UNL     1       1.167  -0.006  -1.532  0.00  0.00    +0.005 C 
ATOM     14  C   UNL     1       0.442  -0.055  -0.185  0.00  0.00    +0.012 C 
ENDBRANCH   5  14
ENDBRANCH   1   5
BRANCH   3  15
ATOM     15  C   UNL     1       3.786   2.047   1.754  0.00  0.00    +0.077 C 
ATOM     16  C   UNL     1       4.304   2.669   0.456  0.00  0.00    +0.022 C 
ATOM     17  C   UNL     1       5.597   3.437   0.738  0.00  0.00    +0.002 C 
ATOM     18  C   UNL     1       5.321   4.543   1.759  0.00  0.00    +0.000 C 
ATOM     19  C   UNL     1       4.803   3.921   3.057  0.00  0.00    +0.006 C 
ATOM     20  C   UNL     1       3.510   3.153   2.775  0.00  0.00    +0.015 C 
BRANCH  20  21
ATOM     21  C   UNL     1       2.992   2.531   4.073  0.00  0.00    -0.033 C 
ATOM     22  C   UNL     1       3.965   1.448   4.543  0.00  0.00    +0.011 C 
ATOM     23  C   UNL     1       2.876   3.614   5.147  0.00  0.00    +0.011 C 
ATOM     24  C   UNL     1       1.616   1.908   3.826  0.00  0.00    +0.011 C 
ENDBRANCH  20  21
ENDBRANCH   3  15
TORSDOF 4
