REMARK  Name = ZINC56558204
REMARK  3 active torsions:
REMARK  status: ('A' for Active; 'I' for Inactive)
REMARK    1  A    between atoms: C_1  and  C_2
REMARK    2  A    between atoms: C_7  and  N_8
REMARK    3  A    between atoms: C_15  and  C_18
REMARK                            x       y       z     vdW  Elec       q    Type
REMARK                         _______ _______ _______ _____ _____    ______ ____
ROOT
ATOM      1  N   UNL     1       0.031  -0.003   2.421  0.00  0.00    -0.269 N 
ATOM      2  C   UNL     1      -0.059  -0.680   3.583  0.00  0.00    +0.306 C 
ATOM      3  O   UNL     1      -0.061  -1.896   3.579  0.00  0.00    -0.252 OA
ATOM      4  N   UNL     1      -0.146  -0.010   4.749  0.00  0.00    -0.285 N 
ATOM      5  C   UNL     1      -0.266   1.454   4.764  0.00  0.00    +0.109 C 
ATOM      6  C   UNL     1       0.833   2.030   5.662  0.00  0.00    +0.020 C 
ATOM      7  C   UNL     1       0.750   1.379   7.044  0.00  0.00    +0.016 C 
ATOM      8  C   UNL     1       0.974  -0.129   6.913  0.00  0.00    +0.093 C 
ATOM      9  C   UNL     1      -0.129  -0.730   6.030  0.00  0.00    +0.122 C 
ATOM     10  H   UNL     1       0.083   0.966   2.428  0.00  0.00    +0.156 HD
ENDROOT
BRANCH   8  11
ATOM     11  C   UNL     1       0.926  -0.765   8.279  0.00  0.00    +0.223 C 
ATOM     12  O   UNL     1       0.731  -0.080   9.260  0.00  0.00    -0.275 OA
ATOM     13  N   UNL     1       1.098  -2.095   8.409  0.00  0.00    -0.270 N 
ATOM     14  C   UNL     1       1.159  -2.670   9.679  0.00  0.00    +0.125 A 
ATOM     15  C   UNL     1       1.456  -4.021   9.809  0.00  0.00    +0.045 A 
ATOM     16  C   UNL     1       1.514  -4.579  11.075  0.00  0.00    +0.025 A 
ATOM     17  C   UNL     1       1.271  -3.760  12.171  0.00  0.00    +0.059 A 
ATOM     18  C   UNL     1       0.981  -2.425  11.966  0.00  0.00    +0.132 A 
ATOM     19  N   UNL     1       0.939  -1.921  10.748  0.00  0.00    -0.239 NA
ATOM     20 CL   UNL     1       1.330  -4.409  13.780  0.00  0.00    -0.082 Cl
ATOM     21  H   UNL     1       1.180  -2.654   7.620  0.00  0.00    +0.156 HD
ENDBRANCH   8  11
BRANCH   1  28
ATOM     22  C   UNL     1      -1.007   1.301   0.115  0.00  0.00    +0.046 C 
ATOM     23  C   UNL     1      -0.449  -0.098   0.056  0.00  0.00    -0.026 A 
ATOM     24  C   UNL     1      -0.425  -0.782  -1.144  0.00  0.00    +0.043 A 
ATOM     25  C   UNL     1       0.087  -2.067  -1.199  0.00  0.00    +0.124 A 
ATOM     26  C   UNL     1       0.578  -2.669  -0.052  0.00  0.00    +0.040 A 
ATOM     27  C   UNL     1       0.556  -1.988   1.149  0.00  0.00    +0.026 A 
ATOM     28  C   UNL     1       0.048  -0.697   1.205  0.00  0.00    +0.038 A 
ATOM     29  F   UNL     1       0.109  -2.735  -2.374  0.00  0.00    -0.205 F 
ENDBRANCH   1  28
TORSDOF 2
