REMARK  Name = ZINC31044118
REMARK  8 active torsions:
REMARK  status: ('A' for Active; 'I' for Inactive)
REMARK    1  A    between atoms: C_1  and  C_2
REMARK    2  A    between atoms: C_7  and  C_8
REMARK    3  A    between atoms: C_8  and  C_10
REMARK    4  A    between atoms: C_8  and  N_11
REMARK    5  A    between atoms: C_12  and  C_14
REMARK    6  A    between atoms: N_19  and  C_21
REMARK    7  A    between atoms: C_21  and  C_22
REMARK    8  A    between atoms: C_24  and  C_27
REMARK                            x       y       z     vdW  Elec       q    Type
REMARK                         _______ _______ _______ _____ _____    ______ ____
ROOT
ATOM      1  C   UNL     1       9.739  -0.988   2.774  0.00  0.00    +0.058 C 
ATOM      2  C   UNL     1       9.083  -2.043   3.669  0.00  0.00    +0.009 C 
ATOM      3  C   UNL     1       7.561  -1.900   3.580  0.00  0.00    -0.018 C 
ATOM      4  C   UNL     1       7.123  -2.046   2.121  0.00  0.00    -0.078 C 
ATOM      5  N   UNL     1       7.778  -1.014   1.307  0.00  0.00    +0.386 N 
ATOM      6  C   UNL     1       9.239  -1.161   1.338  0.00  0.00    -0.065 C 
ATOM      7  H   UNL     1       7.530  -0.035   1.743  0.00  0.00    -0.081 HD
ENDROOT
BRANCH   1   9
ATOM      8  N   UNL     1      11.900  -1.050   3.977  0.00  0.00    -0.309 N 
ATOM      9  C   UNL     1      11.236  -1.160   2.809  0.00  0.00    +0.215 C 
ATOM     10  O   UNL     1      11.843  -1.397   1.786  0.00  0.00    -0.276 OA
ATOM     11  H   UNL     1      11.349  -0.835   4.904  0.00  0.00    +0.149 HD
BRANCH   8  12
ATOM     12  C   UNL     1      13.355  -1.217   4.011  0.00  0.00    +0.100 C 
ATOM     13  C   UNL     1      13.695  -2.704   4.126  0.00  0.00    +0.033 C 
BRANCH  12  20
ATOM     14  C   UNL     1      16.098  -0.309   3.980  0.00  0.00    +0.044 C 
ATOM     15  C   UNL     1      15.230  -0.045   5.184  0.00  0.00    -0.046 A 
ATOM     16  C   UNL     1      15.746   0.632   6.273  0.00  0.00    +0.004 A 
ATOM     17  C   UNL     1      14.950   0.874   7.377  0.00  0.00    +0.000 A 
ATOM     18  C   UNL     1      13.637   0.441   7.391  0.00  0.00    +0.000 A 
ATOM     19  C   UNL     1      13.120  -0.233   6.300  0.00  0.00    +0.006 A 
ATOM     20  C   UNL     1      13.918  -0.479   5.198  0.00  0.00    -0.025 A 
ENDBRANCH  12  20
ENDBRANCH   8  12
ENDBRANCH   1   9
BRANCH   5  21
ATOM     21  C   UNL     1       7.276  -1.036  -0.073  0.00  0.00    +0.022 C 
BRANCH  21  22
ATOM     22  C   UNL     1       5.772  -1.131  -0.060  0.00  0.00    +0.211 A 
ATOM     23  N   UNL     1       4.929  -0.129  -0.052  0.00  0.00    -0.193 NA
ATOM     24  C   UNL     1       3.699  -0.689  -0.037  0.00  0.00    +0.202 A 
ATOM     25  N   UNL     1       3.865  -1.986  -0.047  0.00  0.00    -0.056 NA
ATOM     26  O   UNL     1       5.048  -2.255  -0.060  0.00  0.00    -0.340 OA
BRANCH  24  27
ATOM     27  C   UNL     1       2.402   0.033  -0.021  0.00  0.00    +0.023 A 
ATOM     28  C   UNL     1       1.205  -0.680  -0.013  0.00  0.00    +0.013 A 
ATOM     29  C   UNL     1       0.002  -0.004   0.002  0.00  0.00    +0.016 A 
ATOM     30  C   UNL     1      -0.017   1.380   0.010  0.00  0.00    +0.018 A 
ATOM     31  C   UNL     1       1.170   2.093   0.002  0.00  0.00    +0.016 A 
ATOM     32  C   UNL     1       2.378   1.426  -0.013  0.00  0.00    +0.013 A 
ATOM     33 BR   UNL     1      -1.669   2.300   0.022  0.00  0.00    -0.050 Br
ENDBRANCH  24  27
ENDBRANCH  21  22
ENDBRANCH   5  21
TORSDOF 6
