REMARK  Name = ZINC15143853
REMARK  5 active torsions:
REMARK  status: ('A' for Active; 'I' for Inactive)
REMARK    1  A    between atoms: C_1  and  C_2
REMARK    2  A    between atoms: N_11  and  C_12
REMARK    3  A    between atoms: C_15  and  S_21
REMARK    4  A    between atoms: C_17  and  N_18
REMARK    5  A    between atoms: S_21  and  N_24
REMARK                            x       y       z     vdW  Elec       q    Type
REMARK                         _______ _______ _______ _____ _____    ______ ____
ROOT
ATOM      1  C   UNL     1      -2.457   6.589   0.500  0.00  0.00    +0.061 A 
ATOM      2  C   UNL     1      -3.126   6.918  -0.672  0.00  0.00    +0.027 A 
ATOM      3  C   UNL     1      -4.107   7.890  -0.656  0.00  0.00    +0.030 A 
ATOM      4  C   UNL     1      -4.424   8.535   0.525  0.00  0.00    +0.107 A 
ATOM      5  C   UNL     1      -3.760   8.211   1.694  0.00  0.00    +0.063 A 
ATOM      6  C   UNL     1      -2.781   7.236   1.685  0.00  0.00    +0.149 A 
ENDROOT
BRANCH   1  16
ATOM      7  C   UNL     1      -3.098   3.859   1.013  0.00  0.00    +0.033 C 
ATOM      8  C   UNL     1      -2.006   4.316   0.044  0.00  0.00    +0.101 C 
ATOM      9  C   UNL     1      -0.875   3.292   0.027  0.00  0.00    -0.017 A 
ATOM     10  C   UNL     1      -1.075   1.914   0.017  0.00  0.00    +0.013 A 
ATOM     11  C   UNL     1      -0.013   1.076   0.008  0.00  0.00    +0.046 A 
ATOM     12  S   UNL     1       1.360   2.220   0.001  0.00  0.00    -0.101 S 
ATOM     13  C   UNL     1       0.419   3.720   0.016  0.00  0.00    -0.004 A 
ATOM     14  C   UNL     1       0.890   5.137   0.016  0.00  0.00    +0.061 C 
ATOM     15  C   UNL     1      -0.314   6.031  -0.325  0.00  0.00    +0.111 C 
ATOM     16  N   UNL     1      -1.464   5.607   0.487  0.00  0.00    -0.321 N 
ENDBRANCH   1  16
BRANCH   6  17
ATOM     17  N   UNL     1      -2.075   6.885   2.938  0.00  0.00    +0.058 N 
ATOM     18  O   UNL     1      -2.359   7.452   3.977  0.00  0.00    -0.126 OA
ATOM     19  O   UNL     1      -1.208   6.028   2.929  0.00  0.00    -0.126 OA
ENDBRANCH   6  17
BRANCH   4  20
ATOM     20  S   UNL     1      -5.677   9.774   0.542  0.00  0.00    +0.056 S 
ATOM     21  O   UNL     1      -5.406  10.611   1.658  0.00  0.00    -0.153 OA
ATOM     22  O   UNL     1      -5.768  10.277  -0.784  0.00  0.00    -0.153 OA
BRANCH  20  23
ATOM     23  N   UNL     1      -7.113   9.013   0.859  0.00  0.00    -0.204 NA
ATOM     24  H   UNL     1      -7.134   8.053   0.993  0.00  0.00    +0.144 HD
ATOM     25  H   UNL     1      -7.934   9.528   0.910  0.00  0.00    +0.144 HD
ENDBRANCH  20  23
ENDBRANCH   4  20
TORSDOF 4
