REMARK  Name = ZINC26892990
REMARK  7 active torsions:
REMARK  status: ('A' for Active; 'I' for Inactive)
REMARK    1  A    between atoms: C_4  and  C_7
REMARK    2  A    between atoms: C_10  and  C_31
REMARK    3  A    between atoms: C_12  and  C_15
REMARK    4  A    between atoms: C_17  and  C_29
REMARK    5  A    between atoms: C_20  and  C_23
REMARK    6  A    between atoms: C_29  and  O_30
REMARK    7  A    between atoms: C_31  and  O_32
REMARK                            x       y       z     vdW  Elec       q    Type
REMARK                         _______ _______ _______ _____ _____    ______ ____
ROOT
ATOM      1  C   UNL     1       2.419   0.942   0.034  0.00  0.00    +0.283 C 
ATOM      2  O   UNL     1       2.651   0.150   1.219  0.00  0.00    -0.339 OA
ATOM      3  C   UNL     1       4.087   0.046   1.312  0.00  0.00    +0.178 C 
ATOM      4  C   UNL     1       4.625   1.263   0.532  0.00  0.00    +0.184 C 
ATOM      5  O   UNL     1       3.448   1.954   0.063  0.00  0.00    -0.339 OA
ENDROOT
BRANCH   1   9
ATOM      6  C   UNL     1      -1.450   2.747   0.182  0.00  0.00    +0.000 A 
ATOM      7  C   UNL     1      -1.331   1.371   0.111  0.00  0.00    +0.000 A 
ATOM      8  C   UNL     1      -0.079   0.787   0.069  0.00  0.00    +0.008 A 
ATOM      9  C   UNL     1       1.054   1.578   0.086  0.00  0.00    +0.008 A 
ATOM     10  C   UNL     1       0.935   2.954   0.152  0.00  0.00    +0.008 A 
ATOM     11  C   UNL     1      -0.317   3.538   0.200  0.00  0.00    +0.000 A 
ENDBRANCH   1   9
BRANCH   4  12
ATOM     12  C   UNL     1       5.441   2.169   1.457  0.00  0.00    +0.184 C 
ATOM     13  C   UNL     1       5.938   3.412   0.687  0.00  0.00    +0.178 C 
ATOM     14  O   UNL     1       5.788   4.476   1.659  0.00  0.00    -0.339 OA
ATOM     15  C   UNL     1       4.575   4.118   2.355  0.00  0.00    +0.283 C 
ATOM     16  O   UNL     1       4.608   2.689   2.509  0.00  0.00    -0.339 OA
BRANCH  15  17
ATOM     17  C   UNL     1       4.538   4.784   3.707  0.00  0.00    +0.008 A 
ATOM     18  C   UNL     1       4.496   4.015   4.855  0.00  0.00    +0.008 A 
ATOM     19  C   UNL     1       4.467   4.626   6.095  0.00  0.00    +0.000 A 
ATOM     20  C   UNL     1       4.470   6.005   6.186  0.00  0.00    +0.000 A 
ATOM     21  C   UNL     1       4.506   6.774   5.037  0.00  0.00    +0.000 A 
ATOM     22  C   UNL     1       4.540   6.163   3.798  0.00  0.00    +0.008 A 
ENDBRANCH  15  17
BRANCH  13  23
ATOM     23  C   UNL     1       7.404   3.247   0.281  0.00  0.00    +0.190 C 
BRANCH  23  24
ATOM     24  O   UNL     1       7.803   4.356  -0.527  0.00  0.00    -0.392 OA
ATOM     25  H   UNL     1       8.831   4.412  -0.915  0.00  0.00    +0.210 HD
ENDBRANCH  23  24
ENDBRANCH  13  23
ENDBRANCH   4  12
BRANCH   3  26
ATOM     26  C   UNL     1       4.534   0.112   2.774  0.00  0.00    +0.190 C 
BRANCH  26  27
ATOM     27  O   UNL     1       4.149  -1.091   3.443  0.00  0.00    -0.392 OA
ATOM     28  H   UNL     1       4.387  -1.227   4.509  0.00  0.00    +0.210 HD
ENDBRANCH  26  27
ENDBRANCH   3  26
TORSDOF 7
