REMARK  Name = ZINC36063238
REMARK  11 active torsions:
REMARK  status: ('A' for Active; 'I' for Inactive)
REMARK    1  A    between atoms: C_1  and  C_2
REMARK    2  A    between atoms: C_2  and  C_3
REMARK    3  A    between atoms: C_4  and  C_33
REMARK    4  A    between atoms: C_5  and  C_25
REMARK    5  A    between atoms: C_8  and  C_13
REMARK    6  A    between atoms: C_14  and  N_16
REMARK    7  A    between atoms: C_22  and  C_24
REMARK    8  A    between atoms: C_30  and  O_31
REMARK    9  A    between atoms: O_31  and  C_32
REMARK   10  A    between atoms: C_33  and  O_35
REMARK   11  A    between atoms: O_35  and  C_36
REMARK                            x       y       z     vdW  Elec       q    Type
REMARK                         _______ _______ _______ _____ _____    ______ ____
ROOT
ATOM      1  C   UNL     1       0.403  -1.562  -1.379  0.00  0.00    +0.056 C 
ATOM      2  C   UNL     1       1.784  -1.526  -1.374  0.00  0.00    +0.083 C 
ATOM      3  C   UNL     1       2.494  -1.534  -2.710  0.00  0.00    +0.153 C 
ATOM      4  N   UNL     1       1.643  -1.581  -3.928  0.00  0.00    -0.267 N 
ATOM      5  C   UNL     1       2.070  -1.596  -5.241  0.00  0.00    +0.048 C 
ATOM      6  C   UNL     1       1.127  -1.640  -6.207  0.00  0.00    +0.072 C 
ATOM      7  S   UNL     1      -0.378  -1.659  -5.253  0.00  0.00    -0.060 S 
ATOM      8  C   UNL     1       0.293  -1.611  -3.715  0.00  0.00    +0.166 C 
ATOM      9  N   UNL     1      -0.263  -1.607  -2.521  0.00  0.00    -0.229 NA
ENDROOT
BRANCH   3  10
ATOM     10  C   UNL     1       3.412  -2.729  -2.741  0.00  0.00    +0.020 A 
ATOM     11  C   UNL     1       2.981  -3.917  -3.300  0.00  0.00    +0.009 A 
ATOM     12  C   UNL     1       3.822  -5.014  -3.328  0.00  0.00    +0.001 A 
ATOM     13  C   UNL     1       5.096  -4.925  -2.797  0.00  0.00    +0.004 A 
ATOM     14  C   UNL     1       5.531  -3.740  -2.237  0.00  0.00    +0.046 A 
ATOM     15  C   UNL     1       4.691  -2.636  -2.213  0.00  0.00    +0.125 A 
BRANCH  15  16
ATOM     16  O   UNL     1       5.119  -1.467  -1.667  0.00  0.00    -0.495 OA
ATOM     17  C   UNL     1       6.481  -1.410  -1.242  0.00  0.00    +0.277 C 
ENDBRANCH  15  16
ENDBRANCH   3  10
BRANCH   5  18
ATOM     18  C   UNL     1       3.501  -1.565  -5.575  0.00  0.00    +0.091 C 
ATOM     19  C   UNL     1       3.897  -1.703  -6.856  0.00  0.00    +0.241 C 
ATOM     20  O   UNL     1       2.975  -1.761  -7.847  0.00  0.00    -0.271 OA
BRANCH  19  21
ATOM     21  N   UNL     1       5.245  -1.786  -7.158  0.00  0.00    -0.295 N 
ATOM     22  C   UNL     1       6.179  -2.448  -6.237  0.00  0.00    +0.127 C 
ATOM     23  C   UNL     1       6.928  -3.546  -7.002  0.00  0.00    +0.126 C 
ATOM     24  N   UNL     1       7.451  -2.975  -8.251  0.00  0.00    -0.299 N 
ATOM     25  C   UNL     1       6.517  -2.313  -9.173  0.00  0.00    +0.126 C 
ATOM     26  C   UNL     1       5.767  -1.220  -8.410  0.00  0.00    +0.127 C 
ATOM     27  C   UNL     1       8.764  -3.055  -8.546  0.00  0.00    +0.213 C 
ATOM     28  O   UNL     1       9.509  -3.685  -7.826  0.00  0.00    -0.276 OA
ATOM     29  C   UNL     1       9.305  -2.364  -9.771  0.00  0.00    +0.109 C 
ENDBRANCH  19  21
ENDBRANCH   5  18
BRANCH   1  31
ATOM     30  C   UNL     1      -0.658  -0.114   0.332  0.00  0.00    +0.010 C 
ATOM     31  C   UNL     1      -0.350  -1.557  -0.073  0.00  0.00    +0.053 C 
ENDBRANCH   1  31
BRANCH   2  32
ATOM     32  C   UNL     1       2.503  -1.484  -0.174  0.00  0.00    +0.339 C 
ATOM     33  O   UNL     1       2.893  -0.416   0.266  0.00  0.00    -0.245 OA
BRANCH  32  34
ATOM     34  O   UNL     1       2.765  -2.627   0.498  0.00  0.00    -0.465 OA
ATOM     35  C   UNL     1       3.402  -2.500   1.771  0.00  0.00    +0.280 C 
ENDBRANCH  32  34
ENDBRANCH   2  32
TORSDOF 7
