REMARK  Name = ZINC48373866
REMARK  6 active torsions:
REMARK  status: ('A' for Active; 'I' for Inactive)
REMARK    1  A    between atoms: C_4  and  C_7
REMARK    2  A    between atoms: C_7  and  C_8
REMARK    3  A    between atoms: C_8  and  C_9
REMARK    4  A    between atoms: N_11  and  C_12
REMARK    5  A    between atoms: N_15  and  S_18
REMARK    6  A    between atoms: S_18  and  C_21
REMARK                            x       y       z     vdW  Elec       q    Type
REMARK                         _______ _______ _______ _____ _____    ______ ____
ROOT
ATOM      1  C   UNL     1       7.365  -2.749   2.524  0.00  0.00    +0.075 C 
ATOM      2  C   UNL     1       7.107  -4.252   2.392  0.00  0.00    +0.039 C 
ATOM      3  C   UNL     1       8.447  -4.993   2.339  0.00  0.00    +0.111 C 
ATOM      4  N   UNL     1       9.241  -4.619   3.517  0.00  0.00    -0.176 NA
ATOM      5  C   UNL     1       9.473  -3.193   3.789  0.00  0.00    +0.111 C 
ATOM      6  C   UNL     1       8.122  -2.472   3.825  0.00  0.00    +0.039 C 
ENDROOT
BRANCH   1   9
ATOM      7  C   UNL     1       5.487  -1.699   1.381  0.00  0.00    +0.214 C 
ATOM      8  O   UNL     1       6.005  -1.990   0.324  0.00  0.00    -0.276 OA
ATOM      9  N   UNL     1       6.087  -2.034   2.541  0.00  0.00    -0.312 N 
ATOM     10  H   UNL     1       5.672  -1.801   3.386  0.00  0.00    +0.149 HD
BRANCH   7  11
ATOM     11  C   UNL     1       4.171  -0.963   1.399  0.00  0.00    +0.100 C 
BRANCH  11  12
ATOM     12  C   UNL     1       3.711  -0.707  -0.038  0.00  0.00    +0.044 C 
BRANCH  12  16
ATOM     13  C   UNL     1      -0.017   1.378   0.010  0.00  0.00    +0.000 A 
ATOM     14  C   UNL     1       1.171   2.086   0.002  0.00  0.00    +0.000 A 
ATOM     15  C   UNL     1       2.377   1.411  -0.013  0.00  0.00    +0.003 A 
ATOM     16  C   UNL     1       2.396   0.029  -0.020  0.00  0.00    -0.047 A 
ATOM     17  C   UNL     1       1.208  -0.679  -0.012  0.00  0.00    +0.003 A 
ATOM     18  C   UNL     1       0.002  -0.004   0.002  0.00  0.00    +0.000 A 
ENDBRANCH  12  16
ENDBRANCH  11  12
ENDBRANCH   7  11
ENDBRANCH   1   9
BRANCH   4  19
ATOM     19  S   UNL     1       9.862  -5.781   4.520  0.00  0.00    +0.061 S 
ATOM     20  O   UNL     1      10.061  -5.162   5.784  0.00  0.00    -0.153 OA
ATOM     21  O   UNL     1       9.050  -6.935   4.356  0.00  0.00    -0.153 OA
BRANCH  19  22
ATOM     22  C   UNL     1      11.460  -6.198   3.907  0.00  0.00    +0.106 A 
ATOM     23  C   UNL     1      11.603  -7.210   2.975  0.00  0.00    +0.030 A 
ATOM     24  C   UNL     1      12.852  -7.539   2.494  0.00  0.00    +0.026 A 
ATOM     25  C   UNL     1      13.982  -6.854   2.942  0.00  0.00    +0.041 A 
ATOM     26  C   UNL     1      13.829  -5.841   3.876  0.00  0.00    -0.023 A 
ATOM     27  C   UNL     1      12.574  -5.511   4.351  0.00  0.00    +0.034 A 
ATOM     28  C   UNL     1      15.192  -5.266   4.190  0.00  0.00    +0.056 C 
ATOM     29  C   UNL     1      16.165  -6.076   3.318  0.00  0.00    +0.120 C 
ATOM     30  N   UNL     1      15.324  -7.028   2.587  0.00  0.00    -0.255 N 
ATOM     31  C   UNL     1      15.777  -7.937   1.701  0.00  0.00    +0.304 C 
ATOM     32  O   UNL     1      14.996  -8.685   1.145  0.00  0.00    -0.253 OA
ATOM     33  N   UNL     1      17.095  -8.018   1.433  0.00  0.00    -0.313 N 
ATOM     34  H   UNL     1      17.718  -7.422   1.877  0.00  0.00    +0.146 HD
ATOM     35  H   UNL     1      17.421  -8.673   0.796  0.00  0.00    +0.146 HD
ENDBRANCH  19  22
ENDBRANCH   4  19
TORSDOF 6
