REMARK  Name = ZINC64580401
REMARK  10 active torsions:
REMARK  status: ('A' for Active; 'I' for Inactive)
REMARK    1  A    between atoms: C_1  and  C_2
REMARK    2  A    between atoms: C_2  and  C_3
REMARK    3  A    between atoms: C_2  and  C_4
REMARK    4  A    between atoms: C_2  and  C_5
REMARK    5  A    between atoms: C_13  and  C_17
REMARK    6  A    between atoms: C_17  and  C_18
REMARK    7  A    between atoms: C_18  and  C_19
REMARK    8  A    between atoms: N_21  and  C_22
REMARK    9  A    between atoms: N_25  and  C_28
REMARK   10  A    between atoms: C_28  and  C_29
REMARK                            x       y       z     vdW  Elec       q    Type
REMARK                         _______ _______ _______ _____ _____    ______ ____
ROOT
ATOM      1  C   UNL     1       7.739  -4.256  -3.095  0.00  0.00    +0.083 C 
ENDROOT
BRANCH   1   9
ATOM      2  C   UNL     1       0.718  -0.497  -1.257  0.00  0.00    -0.004 C 
ATOM      3  C   UNL     1       0.719  -2.024  -1.267  0.00  0.00    +0.008 C 
ATOM      4  C   UNL     1       1.360  -2.550  -2.559  0.00  0.00    +0.033 C 
ATOM      5  C   UNL     1       2.726  -1.878  -2.673  0.00  0.00    -0.042 C 
ATOM      6  C   UNL     1       3.884  -2.525  -2.819  0.00  0.00    +0.071 C 
ATOM      7  C   UNL     1       5.144  -1.742  -2.723  0.00  0.00    +0.111 C 
ATOM      8  N   UNL     1       6.327  -2.303  -2.809  0.00  0.00    -0.227 NA
ATOM      9  C   UNL     1       6.376  -3.622  -2.993  0.00  0.00    +0.124 C 
ATOM     10  N   UNL     1       5.338  -4.412  -3.094  0.00  0.00    -0.161 NA
ATOM     11  C   UNL     1       4.058  -4.002  -3.020  0.00  0.00    +0.271 C 
ATOM     12  O   UNL     1       3.115  -4.770  -3.109  0.00  0.00    -0.268 OA
ATOM     13  S   UNL     1       4.621  -0.072  -2.499  0.00  0.00    -0.097 S 
ATOM     14  C   UNL     1       2.811  -0.353  -2.589  0.00  0.00    +0.080 C 
ATOM     15  C   UNL     1       2.148   0.051  -1.270  0.00  0.00    +0.023 C 
BRANCH   2  17
ATOM     16  C   UNL     1      -0.019   1.526   0.010  0.00  0.00    +0.011 C 
ATOM     17  C   UNL     1       0.002  -0.004   0.002  0.00  0.00    -0.035 C 
ATOM     18  C   UNL     1       0.742  -0.511   1.242  0.00  0.00    +0.011 C 
ATOM     19  C   UNL     1      -1.433  -0.534   0.013  0.00  0.00    +0.011 C 
ENDBRANCH   2  17
ENDBRANCH   1   9
BRANCH   1  20
ATOM     20  C   UNL     1       7.586  -5.764  -3.303  0.00  0.00    +0.103 C 
BRANCH  20  21
ATOM     21  C   UNL     1       8.949  -6.399  -3.404  0.00  0.00    +0.214 C 
ATOM     22  O   UNL     1       9.945  -5.712  -3.318  0.00  0.00    -0.276 OA
ATOM     23  N   UNL     1       9.061  -7.729  -3.591  0.00  0.00    -0.313 N 
ATOM     24  H   UNL     1       8.265  -8.278  -3.659  0.00  0.00    +0.149 HD
BRANCH  23  25
ATOM     25  C   UNL     1      10.386  -8.345  -3.689  0.00  0.00    +0.069 C 
ATOM     26  C   UNL     1      10.886  -8.259  -5.134  0.00  0.00    +0.003 C 
ATOM     27  C   UNL     1      12.233  -8.974  -5.247  0.00  0.00    -0.077 C 
ATOM     28  N   UNL     1      12.077 -10.383  -4.865  0.00  0.00    +0.382 N 
ATOM     29  C   UNL     1      11.668 -10.475  -3.458  0.00  0.00    -0.077 C 
ATOM     30  C   UNL     1      10.298  -9.818  -3.277  0.00  0.00    +0.003 C 
ATOM     31  H   UNL     1      11.374 -10.812  -5.447  0.00  0.00    -0.081 HD
BRANCH  28  32
ATOM     32  C   UNL     1      13.355 -11.083  -5.048  0.00  0.00    -0.043 C 
BRANCH  32  33
ATOM     33  C   UNL     1      13.167 -12.553  -4.775  0.00  0.00    -0.064 A 
ATOM     34  C   UNL     1      13.339 -13.045  -3.495  0.00  0.00    +0.002 A 
ATOM     35  C   UNL     1      13.166 -14.394  -3.244  0.00  0.00    +0.000 A 
ATOM     36  C   UNL     1      12.820 -15.249  -4.273  0.00  0.00    +0.000 A 
ATOM     37  C   UNL     1      12.647 -14.757  -5.553  0.00  0.00    +0.000 A 
ATOM     38  C   UNL     1      12.816 -13.408  -5.803  0.00  0.00    +0.002 A 
ENDBRANCH  32  33
ENDBRANCH  28  32
ENDBRANCH  23  25
ENDBRANCH  20  21
ENDBRANCH   1  20
TORSDOF 7
