REMARK  Name = ZINC09583939
REMARK  4 active torsions:
REMARK  status: ('A' for Active; 'I' for Inactive)
REMARK    1  A    between atoms: C_1  and  C_2
REMARK    2  A    between atoms: C_2  and  C_3
REMARK    3  A    between atoms: C_8  and  N_9
REMARK    4  A    between atoms: C_11  and  C_16
REMARK                            x       y       z     vdW  Elec       q    Type
REMARK                         _______ _______ _______ _____ _____    ______ ____
ROOT
ATOM      1  N   UNL     1      -0.860   1.649   1.241  0.00  0.00    -0.270 N 
ATOM      2  C   UNL     1      -0.207   1.156   0.022  0.00  0.00    +0.127 C 
ATOM      3  C   UNL     1      -1.035   1.728  -1.151  0.00  0.00    +0.102 C 
ATOM      4  C   UNL     1      -2.418   1.933  -0.490  0.00  0.00    +0.110 C 
ATOM      5  C   UNL     1      -2.107   2.086   0.982  0.00  0.00    +0.221 C 
ATOM      6  O   UNL     1      -2.869   2.537   1.810  0.00  0.00    -0.275 OA
ENDROOT
BRANCH   3   7
ATOM      7  C   UNL     1      -1.120   0.738  -2.284  0.00  0.00    +0.225 C 
ATOM      8  O   UNL     1      -0.574  -0.341  -2.189  0.00  0.00    -0.275 OA
ATOM      9  N   UNL     1      -1.802   1.052  -3.403  0.00  0.00    -0.261 N 
ATOM     10  C   UNL     1      -2.473   2.353  -3.543  0.00  0.00    +0.209 C 
ATOM     11  C   UNL     1      -3.824   2.144  -4.177  0.00  0.00    +0.235 C 
ATOM     12  O   UNL     1      -4.729   2.911  -3.925  0.00  0.00    -0.274 OA
ATOM     13  N   UNL     1      -4.039   1.116  -5.020  0.00  0.00    -0.283 N 
ATOM     14  C   UNL     1      -3.027   0.188  -5.289  0.00  0.00    +0.055 A 
ATOM     15  C   UNL     1      -1.891   0.149  -4.474  0.00  0.00    +0.058 A 
ATOM     16  C   UNL     1      -0.890  -0.769  -4.722  0.00  0.00    +0.025 A 
ATOM     17  C   UNL     1      -1.009  -1.645  -5.788  0.00  0.00    +0.002 A 
ATOM     18  C   UNL     1      -2.127  -1.604  -6.600  0.00  0.00    +0.002 A 
ATOM     19  C   UNL     1      -3.137  -0.691  -6.354  0.00  0.00    +0.025 A 
ATOM     20  H   UNL     1      -4.905   1.018  -5.445  0.00  0.00    +0.155 HD
ENDBRANCH   3   7
BRANCH   1  26
ATOM     21  C   UNL     1       0.558   2.719   2.877  0.00  0.00    -0.026 A 
ATOM     22  C   UNL     1       1.147   2.729   4.126  0.00  0.00    +0.005 A 
ATOM     23  C   UNL     1       0.919   1.688   5.008  0.00  0.00    +0.000 A 
ATOM     24  C   UNL     1       0.102   0.634   4.642  0.00  0.00    +0.002 A 
ATOM     25  C   UNL     1      -0.493   0.621   3.396  0.00  0.00    +0.024 A 
ATOM     26  C   UNL     1      -0.262   1.662   2.506  0.00  0.00    +0.039 A 
BRANCH  21  28
ATOM     27  C   UNL     1      -0.303   4.897   2.061  0.00  0.00    +0.009 C 
ATOM     28  C   UNL     1       0.807   3.853   1.917  0.00  0.00    +0.033 C 
ENDBRANCH  21  28
ENDBRANCH   1  26
TORSDOF 3
