REMARK  Name = ZINC39665750
REMARK  14 active torsions:
REMARK  status: ('A' for Active; 'I' for Inactive)
REMARK    1  A    between atoms: C_1  and  C_2
REMARK    2  A    between atoms: C_2  and  C_3
REMARK    3  A    between atoms: C_3  and  C_4
REMARK    4  A    between atoms: C_4  and  C_5
REMARK    5  A    between atoms: C_5  and  C_6
REMARK    6  A    between atoms: C_6  and  C_7
REMARK    7  A    between atoms: C_11  and  C_20
REMARK    8  A    between atoms: N_22  and  C_23
REMARK    9  A    between atoms: C_23  and  C_24
REMARK   10  A    between atoms: C_24  and  C_26
REMARK   11  A    between atoms: C_24  and  O_27
REMARK   12  A    between atoms: O_27  and  C_28
REMARK   13  A    between atoms: C_31  and  O_34
REMARK   14  A    between atoms: O_34  and  C_35
REMARK                            x       y       z     vdW  Elec       q    Type
REMARK                         _______ _______ _______ _____ _____    ______ ____
ROOT
ATOM      1  C   UNL     1       4.199  -5.229  -5.089  0.00  0.00    +0.216 C 
ATOM      2  O   UNL     1       4.805  -4.728  -6.012  0.00  0.00    -0.276 OA
ATOM      3  N   UNL     1       3.973  -6.558  -5.074  0.00  0.00    -0.300 N 
ATOM      4  C   UNL     1       3.253  -7.346  -4.046  0.00  0.00    +0.121 C 
ATOM      5  C   UNL     1       2.441  -8.387  -4.850  0.00  0.00    +0.100 C 
ATOM      6  C   UNL     1       3.193  -8.525  -6.184  0.00  0.00    -0.004 C 
ATOM      7  C   UNL     1       4.384  -7.561  -6.086  0.00  0.00    +0.115 C 
ATOM      8  C   UNL     1       3.686  -9.958  -6.367  0.00  0.00    -0.010 C 
ATOM      9  C   UNL     1       4.379 -10.085  -7.726  0.00  0.00    -0.082 C 
ATOM     10  N   UNL     1       3.436  -9.731  -8.794  0.00  0.00    +0.379 N 
ATOM     11  C   UNL     1       3.039  -8.323  -8.664  0.00  0.00    -0.082 C 
ATOM     12  C   UNL     1       2.289  -8.122  -7.345  0.00  0.00    -0.010 C 
ATOM     13  H   UNL     1       3.877  -9.874  -9.690  0.00  0.00    -0.086 HD
ATOM     14  H   UNL     1       2.618 -10.317  -8.726  0.00  0.00    -0.086 HD
ENDROOT
BRANCH   5  15
ATOM     15  C   UNL     1       2.413  -9.706  -4.121  0.00  0.00    +0.218 C 
ATOM     16  O   UNL     1       3.350 -10.034  -3.426  0.00  0.00    -0.275 OA
ATOM     17  N   UNL     1       1.345 -10.519  -4.243  0.00  0.00    -0.312 N 
ATOM     18  H   UNL     1       0.595 -10.256  -4.799  0.00  0.00    +0.149 HD
BRANCH  17  19
ATOM     19  C   UNL     1       1.317 -11.802  -3.535  0.00  0.00    +0.148 C 
BRANCH  19  20
ATOM     20  C   UNL     1       0.004 -12.525  -3.841  0.00  0.00    +0.187 C 
ATOM     21  C   UNL     1      -0.081 -13.804  -3.006  0.00  0.00    +0.053 C 
BRANCH  20  22
ATOM     22  O   UNL     1      -0.043 -12.859  -5.229  0.00  0.00    -0.488 OA
BRANCH  22  23
ATOM     23  C   UNL     1      -1.274 -13.010  -5.787  0.00  0.00    +0.121 A 
ATOM     24  C   UNL     1      -1.396 -13.229  -7.151  0.00  0.00    +0.049 A 
ATOM     25  C   UNL     1      -2.646 -13.382  -7.717  0.00  0.00    +0.049 A 
ATOM     26  C   UNL     1      -3.780 -13.317  -6.921  0.00  0.00    +0.120 A 
ATOM     27  C   UNL     1      -3.659 -13.099  -5.557  0.00  0.00    +0.049 A 
ATOM     28  C   UNL     1      -2.408 -12.950  -4.990  0.00  0.00    +0.049 A 
BRANCH  26  29
ATOM     29  O   UNL     1      -5.012 -13.467  -7.479  0.00  0.00    -0.495 OA
ATOM     30  C   UNL     1      -6.136 -13.389  -6.600  0.00  0.00    +0.277 C 
ENDBRANCH  26  29
ENDBRANCH  22  23
ENDBRANCH  20  22
ENDBRANCH  19  20
ENDBRANCH  17  19
ENDBRANCH   5  15
BRANCH   1  31
ATOM     31  C   UNL     1       3.697  -4.367  -3.959  0.00  0.00    +0.096 C 
BRANCH  31  32
ATOM     32  C   UNL     1       4.083  -2.910  -4.219  0.00  0.00    +0.009 C 
BRANCH  32  33
ATOM     33  C   UNL     1       3.575  -2.035  -3.072  0.00  0.00    +0.000 C 
BRANCH  33  34
ATOM     34  C   UNL     1       3.961  -0.578  -3.333  0.00  0.00    -0.000 C 
BRANCH  34  36
ATOM     35  C   UNL     1       3.838   1.755  -2.446  0.00  0.00    +0.004 C 
ATOM     36  C   UNL     1       3.452   0.298  -2.185  0.00  0.00    -0.003 C 
ENDBRANCH  34  36
ENDBRANCH  33  34
ENDBRANCH  32  33
ENDBRANCH  31  32
ENDBRANCH   1  31
TORSDOF 11
