REMARK  Name = ZINC67392548
REMARK  10 active torsions:
REMARK  status: ('A' for Active; 'I' for Inactive)
REMARK    1  A    between atoms: C_1  and  C_2
REMARK    2  A    between atoms: N_7  and  C_9
REMARK    3  A    between atoms: C_9  and  C_10
REMARK    4  A    between atoms: C_9  and  C_11
REMARK    5  A    between atoms: C_9  and  C_12
REMARK    6  A    between atoms: C_12  and  N_13
REMARK    7  A    between atoms: C_14  and  C_16
REMARK    8  A    between atoms: N_18  and  C_19
REMARK    9  A    between atoms: C_24  and  O_25
REMARK   10  A    between atoms: O_25  and  C_26
REMARK                            x       y       z     vdW  Elec       q    Type
REMARK                         _______ _______ _______ _____ _____    ______ ____
ROOT
ATOM      1  N   UNL     1       2.209  -4.460   1.152  0.00  0.00    -0.309 N 
ATOM      2  C   UNL     1       2.337  -5.781   0.922  0.00  0.00    +0.299 C 
ATOM      3  O   UNL     1       1.945  -6.582   1.746  0.00  0.00    -0.265 OA
ATOM      4  H   UNL     1       2.523  -3.820   0.494  0.00  0.00    +0.149 HD
ENDROOT
BRANCH   2   5
ATOM      5  C   UNL     1       2.962  -6.261  -0.347  0.00  0.00    +0.303 C 
ATOM      6  O   UNL     1       3.355  -5.461  -1.170  0.00  0.00    -0.265 OA
ATOM      7  N   UNL     1       3.091  -7.583  -0.577  0.00  0.00    -0.275 N 
ATOM      8  H   UNL     1       2.837  -8.221   0.108  0.00  0.00    +0.155 HD
BRANCH   7   9
ATOM      9  C   UNL     1       3.590  -8.034  -1.803  0.00  0.00    +0.077 A 
ATOM     10  C   UNL     1       4.568  -7.306  -2.467  0.00  0.00    +0.027 A 
ATOM     11  C   UNL     1       5.059  -7.753  -3.678  0.00  0.00    +0.003 A 
ATOM     12  C   UNL     1       4.579  -8.925  -4.233  0.00  0.00    +0.024 A 
ATOM     13  C   UNL     1       3.604  -9.656  -3.579  0.00  0.00    +0.084 A 
ATOM     14  C   UNL     1       3.111  -9.218  -2.359  0.00  0.00    +0.159 A 
ATOM     15 CL   UNL     1       3.004 -11.127  -4.280  0.00  0.00    -0.080 Cl
BRANCH  14  16
ATOM     16  O   UNL     1       2.157  -9.938  -1.711  0.00  0.00    -0.492 OA
ATOM     17  C   UNL     1       0.794  -9.629  -2.011  0.00  0.00    +0.277 C 
ENDBRANCH  14  16
ENDBRANCH   7   9
ENDBRANCH   2   5
BRANCH   1  18
ATOM     18  C   UNL     1       1.596  -3.989   2.397  0.00  0.00    +0.092 C 
BRANCH  18  19
ATOM     19  C   UNL     1       1.573  -2.459   2.407  0.00  0.00    -0.055 C 
ATOM     20  C   UNL     1       3.004  -1.927   2.310  0.00  0.00    -0.008 C 
ATOM     21  C   UNL     1       0.932  -1.968   3.707  0.00  0.00    -0.008 C 
BRANCH  19  27
ATOM     22  C   UNL     1       0.017   1.536   0.043  0.00  0.00    +0.005 C 
ATOM     23  C   UNL     1       0.033   0.006   0.033  0.00  0.00    -0.031 C 
ATOM     24  C   UNL     1      -1.405  -0.520   0.056  0.00  0.00    -0.001 C 
ATOM     25  C   UNL     1      -1.378  -2.050   0.124  0.00  0.00    -0.018 C 
ATOM     26  C   UNL     1      -0.582  -2.485   1.356  0.00  0.00    -0.078 C 
ATOM     27  N   UNL     1       0.791  -1.974   1.262  0.00  0.00    +0.384 N 
ATOM     28  C   UNL     1       0.778  -0.506   1.267  0.00  0.00    -0.075 C 
ATOM     29  H   UNL     1       1.213  -2.301   0.406  0.00  0.00    -0.081 HD
ENDBRANCH  19  27
ENDBRANCH  18  19
ENDBRANCH   1  18
TORSDOF 6
