REMARK  Name = ZINC19892664
REMARK  17 active torsions:
REMARK  status: ('A' for Active; 'I' for Inactive)
REMARK    1  A    between atoms: C_1  and  C_2
REMARK    2  A    between atoms: C_2  and  O_3
REMARK    3  A    between atoms: O_3  and  C_4
REMARK    4  A    between atoms: C_4  and  C_5
REMARK    5  A    between atoms: C_5  and  O_6
REMARK    6  A    between atoms: O_6  and  C_7
REMARK    7  A    between atoms: C_7  and  C_9
REMARK    8  A    between atoms: C_10  and  C_41
REMARK    9  A    between atoms: C_14  and  C_16
REMARK   10  A    between atoms: C_21  and  O_22
REMARK   11  A    between atoms: O_22  and  C_23
REMARK   12  A    between atoms: C_23  and  C_24
REMARK   13  A    between atoms: C_28  and  C_31
REMARK   14  A    between atoms: C_34  and  O_39
REMARK   15  A    between atoms: C_35  and  O_37
REMARK   16  A    between atoms: O_37  and  C_38
REMARK   17  A    between atoms: O_39  and  C_40
REMARK                            x       y       z     vdW  Elec       q    Type
REMARK                         _______ _______ _______ _____ _____    ______ ____
ROOT
ATOM      1  C   UNL     1      -0.833   5.615  -1.041  0.00  0.00    +0.065 C 
ATOM      2  C   UNL     1      -2.116   6.006  -0.948  0.00  0.00    +0.016 C 
ATOM      3  N   UNL     1      -2.802   5.858   0.225  0.00  0.00    -0.321 N 
ATOM      4  C   UNL     1      -2.133   5.695   1.409  0.00  0.00    +0.016 C 
ATOM      5  C   UNL     1      -0.844   5.295   1.418  0.00  0.00    +0.024 C 
ATOM      6  C   UNL     1      -0.119   5.003   0.128  0.00  0.00    +0.096 C 
ATOM      7  C   UNL     1      -0.141   5.140   2.625  0.00  0.00    +0.162 C 
ATOM      8  O   UNL     1       1.016   4.768   2.599  0.00  0.00    -0.292 OA
ATOM      9  C   UNL     1      -0.794   5.425   3.950  0.00  0.00    +0.088 C 
ATOM     10  C   UNL     1      -1.883   6.485   3.750  0.00  0.00    +0.032 C 
ATOM     11  C   UNL     1      -2.869   5.976   2.696  0.00  0.00    +0.059 C 
ATOM     12  C   UNL     1      -2.804   6.610  -2.145  0.00  0.00    +0.061 C 
ATOM     13  H   UNL     1      -3.902   5.869   0.225  0.00  0.00    +0.152 HD
ENDROOT
BRANCH   6  14
ATOM     14  C   UNL     1      -0.038   3.511  -0.068  0.00  0.00    +0.006 A 
ATOM     15  C   UNL     1      -1.191   2.777  -0.275  0.00  0.00    +0.008 A 
ATOM     16  C   UNL     1      -1.117   1.409  -0.459  0.00  0.00    +0.001 A 
ATOM     17  C   UNL     1       0.109   0.770  -0.427  0.00  0.00    +0.004 A 
ATOM     18  C   UNL     1       1.264   1.499  -0.220  0.00  0.00    +0.046 A 
ATOM     19  C   UNL     1       1.193   2.873  -0.040  0.00  0.00    +0.125 A 
BRANCH  19  20
ATOM     20  O   UNL     1       2.328   3.592   0.164  0.00  0.00    -0.492 OA
BRANCH  20  21
ATOM     21  C   UNL     1       3.545   2.857   0.303  0.00  0.00    +0.225 C 
ATOM     22  C   UNL     1       4.686   3.819   0.643  0.00  0.00    +0.048 C 
ENDBRANCH  20  21
ENDBRANCH  19  20
ENDBRANCH   6  14
BRANCH  10  23
ATOM     23  C   UNL     1      -2.608   6.717   5.051  0.00  0.00    -0.040 A 
ATOM     24  C   UNL     1      -3.253   5.667   5.678  0.00  0.00    +0.008 A 
ATOM     25  C   UNL     1      -3.920   5.874   6.871  0.00  0.00    +0.049 A 
ATOM     26  C   UNL     1      -3.942   7.137   7.441  0.00  0.00    +0.161 A 
ATOM     27  C   UNL     1      -3.293   8.194   6.810  0.00  0.00    +0.162 A 
ATOM     28  C   UNL     1      -2.622   7.978   5.617  0.00  0.00    +0.053 A 
BRANCH  27  29
ATOM     29  O   UNL     1      -3.313   9.435   7.366  0.00  0.00    -0.491 OA
ATOM     30  C   UNL     1      -2.625  10.471   6.663  0.00  0.00    +0.277 C 
ENDBRANCH  27  29
BRANCH  26  31
ATOM     31  O   UNL     1      -4.598   7.343   8.615  0.00  0.00    -0.491 OA
ATOM     32  C   UNL     1      -5.242   6.212   9.205  0.00  0.00    +0.277 C 
ENDBRANCH  26  31
ENDBRANCH  10  23
BRANCH   1  33
ATOM     33  C   UNL     1      -0.143   5.785  -2.264  0.00  0.00    +0.338 C 
ATOM     34  O   UNL     1      -0.675   6.377  -3.185  0.00  0.00    -0.245 OA
BRANCH  33  35
ATOM     35  O   UNL     1       1.104   5.292  -2.409  0.00  0.00    -0.459 OA
BRANCH  35  36
ATOM     36  C   UNL     1       1.703   5.413  -3.701  0.00  0.00    +0.260 C 
BRANCH  36  37
ATOM     37  C   UNL     1       3.051   4.689  -3.708  0.00  0.00    +0.201 C 
BRANCH  37  38
ATOM     38  O   UNL     1       2.838   3.285  -3.543  0.00  0.00    -0.377 OA
BRANCH  38  40
ATOM     39  C   UNL     1       3.700   1.033  -3.388  0.00  0.00    +0.034 C 
ATOM     40  C   UNL     1       4.042   2.523  -3.436  0.00  0.00    +0.156 C 
ENDBRANCH  38  40
ENDBRANCH  37  38
ENDBRANCH  36  37
ENDBRANCH  35  36
ENDBRANCH  33  35
ENDBRANCH   1  33
TORSDOF 12
