REMARK  Name = ZINC66466070
REMARK  3 active torsions:
REMARK  status: ('A' for Active; 'I' for Inactive)
REMARK    1  A    between atoms: C_4  and  N_9
REMARK    2  A    between atoms: C_5  and  C_7
REMARK    3  A    between atoms: C_23  and  C_25
REMARK                            x       y       z     vdW  Elec       q    Type
REMARK                         _______ _______ _______ _____ _____    ______ ____
ROOT
ATOM      1  N   UNL     1       3.646  -0.617   0.068  0.00  0.00    -0.326 N 
ATOM      2  C   UNL     1       4.240  -1.060  -1.202  0.00  0.00    +0.124 C 
ATOM      3  C   UNL     1       5.653  -0.475  -1.312  0.00  0.00    +0.125 C 
ATOM      4  N   UNL     1       6.373  -0.746  -0.060  0.00  0.00    -0.312 N 
ATOM      5  C   UNL     1       5.780  -0.303   1.209  0.00  0.00    +0.125 C 
ATOM      6  C   UNL     1       4.369  -0.884   1.319  0.00  0.00    +0.124 C 
ATOM      7  C   UNL     1       7.584  -1.405  -0.076  0.00  0.00    +0.133 A 
ATOM      8  C   UNL     1       8.801  -0.689  -0.186  0.00  0.00    +0.040 A 
ATOM      9  C   UNL     1       8.837   0.707  -0.281  0.00  0.00    +0.013 A 
ATOM     10  C   UNL     1      10.040   1.343  -0.384  0.00  0.00    +0.001 A 
ATOM     11  C   UNL     1      11.230   0.622  -0.395  0.00  0.00    +0.002 A 
ATOM     12  C   UNL     1      11.229  -0.738  -0.304  0.00  0.00    +0.028 A 
ATOM     13  C   UNL     1      10.011  -1.424  -0.197  0.00  0.00    +0.077 A 
ATOM     14  N   UNL     1       9.954  -2.761  -0.103  0.00  0.00    -0.227 NA
ATOM     15  C   UNL     1       8.798  -3.372  -0.004  0.00  0.00    +0.198 A 
ATOM     16  N   UNL     1       7.642  -2.727   0.015  0.00  0.00    -0.211 NA
ENDROOT
BRANCH   1  20
ATOM     17  C   UNL     1      -0.014   1.377   0.115  0.00  0.00    +0.001 A 
ATOM     18  C   UNL     1       1.169   2.090   0.002  0.00  0.00    +0.002 A 
ATOM     19  C   UNL     1       2.383   1.432  -0.014  0.00  0.00    +0.024 A 
ATOM     20  C   UNL     1       2.425   0.047   0.084  0.00  0.00    +0.047 A 
ATOM     21  C   UNL     1       1.229  -0.678   0.199  0.00  0.00    +0.073 A 
ATOM     22  C   UNL     1       0.008   0.002   0.213  0.00  0.00    +0.021 A 
BRANCH  21  23
ATOM     23  C   UNL     1       1.259  -2.106   0.300  0.00  0.00    +0.101 C 
ATOM     24  N   UNL     1       1.283  -3.239   0.381  0.00  0.00    -0.191 NA
ENDBRANCH  21  23
ENDBRANCH   1  20
BRANCH  15  25
ATOM     25  C   UNL     1       8.785  -4.875   0.098  0.00  0.00    +0.408 C 
ATOM     26  F   UNL     1       9.954  -5.309   0.731  0.00  0.00    -0.201 F 
ATOM     27  F   UNL     1       7.673  -5.282   0.843  0.00  0.00    -0.201 F 
ENDBRANCH  15  25
TORSDOF 3
