REMARK  Name = ZINC05413989
REMARK  5 active torsions:
REMARK  status: ('A' for Active; 'I' for Inactive)
REMARK    1  A    between atoms: C_3  and  S_8
REMARK    2  A    between atoms: S_8  and  N_11
REMARK    3  A    between atoms: C_16  and  C_18
REMARK    4  A    between atoms: N_20  and  C_21
REMARK    5  A    between atoms: N_31  and  C_32
REMARK                            x       y       z     vdW  Elec       q    Type
REMARK                         _______ _______ _______ _____ _____    ______ ____
ROOT
ATOM      1  N   UNL     1       2.164   1.283  -1.067  0.00  0.00    -0.162 NA
ATOM      2  C   UNL     1       1.429   1.975   0.001  0.00  0.00    +0.129 C 
ATOM      3  C   UNL     1      -0.017   1.465   0.011  0.00  0.00    +0.126 C 
ATOM      4  N   UNL     1       0.003  -0.004   0.003  0.00  0.00    -0.282 N 
ATOM      5  C   UNL     1       0.738  -0.697  -1.065  0.00  0.00    +0.139 C 
ATOM      6  C   UNL     1       2.185  -0.187  -1.075  0.00  0.00    +0.183 C 
ATOM      7  C   UNL     1      -0.641  -0.704   0.957  0.00  0.00    +0.303 C 
ATOM      8  O   UNL     1      -0.696  -1.917   0.890  0.00  0.00    -0.253 OA
ATOM      9  N   UNL     1      -1.226  -0.060   1.987  0.00  0.00    -0.296 N 
ATOM     10  H   UNL     1      -1.246   0.910   2.003  0.00  0.00    +0.151 HD
ENDROOT
BRANCH   9  11
ATOM     11  C   UNL     1      -1.830  -0.824   3.081  0.00  0.00    +0.074 C 
ATOM     12  C   UNL     1      -3.261  -1.212   2.703  0.00  0.00    +0.022 C 
ATOM     13  C   UNL     1      -3.892  -2.009   3.846  0.00  0.00    +0.002 C 
ATOM     14  C   UNL     1      -3.913  -1.154   5.114  0.00  0.00    +0.000 C 
ATOM     15  C   UNL     1      -2.482  -0.766   5.492  0.00  0.00    +0.002 C 
ATOM     16  C   UNL     1      -1.852   0.032   4.349  0.00  0.00    +0.022 C 
ENDBRANCH   9  11
BRANCH   6  17
ATOM     17  C   UNL     1       2.907  -0.693   0.147  0.00  0.00    +0.234 C 
ATOM     18  O   UNL     1       3.376   0.093   0.943  0.00  0.00    -0.274 OA
ATOM     19  N   UNL     1       3.033  -2.019   0.355  0.00  0.00    -0.303 N 
ATOM     20  H   UNL     1       2.658  -2.647  -0.282  0.00  0.00    +0.149 HD
BRANCH  19  21
ATOM     21  C   UNL     1       3.736  -2.510   1.543  0.00  0.00    +0.159 C 
ATOM     22  C   UNL     1       3.225  -3.910   1.892  0.00  0.00    +0.033 C 
ATOM     23  C   UNL     1       4.152  -4.513   2.954  0.00  0.00    +0.021 C 
ATOM     24  C   UNL     1       5.522  -4.766   2.322  0.00  0.00    +0.104 C 
ATOM     25  N   UNL     1       5.997  -3.568   1.640  0.00  0.00    -0.314 N 
ATOM     26  C   UNL     1       5.211  -2.559   1.265  0.00  0.00    +0.233 C 
ATOM     27  O   UNL     1       5.713  -1.631   0.668  0.00  0.00    -0.274 OA
ATOM     28  H   UNL     1       6.946  -3.502   1.448  0.00  0.00    +0.149 HD
ENDBRANCH  19  21
ENDBRANCH   6  17
BRANCH   1  29
ATOM     29  S   UNL     1       2.957   2.143  -2.240  0.00  0.00    +0.062 S 
ATOM     30  O   UNL     1       3.234   3.422  -1.687  0.00  0.00    -0.153 OA
ATOM     31  O   UNL     1       3.978   1.294  -2.746  0.00  0.00    -0.153 OA
BRANCH  29  34
ATOM     32  C   UNL     1       0.116   3.726  -4.598  0.00  0.00    +0.040 A 
ATOM     33  C   UNL     1       1.011   3.523  -3.565  0.00  0.00    +0.031 A 
ATOM     34  C   UNL     1       1.815   2.399  -3.557  0.00  0.00    +0.106 A 
ATOM     35  C   UNL     1       1.730   1.479  -4.586  0.00  0.00    +0.031 A 
ATOM     36  C   UNL     1       0.831   1.677  -5.617  0.00  0.00    +0.040 A 
ATOM     37  C   UNL     1       0.025   2.802  -5.626  0.00  0.00    +0.124 A 
ATOM     38  F   UNL     1      -0.849   3.000  -6.637  0.00  0.00    -0.205 F 
ENDBRANCH  29  34
ENDBRANCH   1  29
TORSDOF 5
