REMARK  Name = ZINC16735799
REMARK  8 active torsions:
REMARK  status: ('A' for Active; 'I' for Inactive)
REMARK    1  A    between atoms: C_1  and  C_2
REMARK    2  A    between atoms: N_13  and  C_26
REMARK    3  A    between atoms: C_14  and  S_16
REMARK    4  A    between atoms: S_16  and  C_17
REMARK    5  A    between atoms: C_17  and  C_19
REMARK    6  A    between atoms: C_17  and  C_20
REMARK    7  A    between atoms: N_22  and  C_23
REMARK    8  A    between atoms: C_23  and  C_24
REMARK                            x       y       z     vdW  Elec       q    Type
REMARK                         _______ _______ _______ _____ _____    ______ ____
ROOT
ATOM      1  C   UNL     1      -1.204  10.177   0.145  0.00  0.00    +0.008 C 
ATOM      2  C   UNL     1      -0.842   8.716   0.425  0.00  0.00    -0.009 C 
ATOM      3  C   UNL     1       0.366   8.314  -0.426  0.00  0.00    +0.008 C 
ATOM      4  C   UNL     1       0.888   6.950   0.025  0.00  0.00    +0.037 C 
ATOM      5  C   UNL     1      -0.272   5.957   0.034  0.00  0.00    -0.023 A 
ATOM      6  C   UNL     1      -1.549   6.390   0.048  0.00  0.00    -0.004 A 
ATOM      7  S   UNL     1      -2.534   4.916   0.051  0.00  0.00    -0.073 S 
ATOM      8  C   UNL     1      -1.223   3.719   0.033  0.00  0.00    +0.117 A 
ATOM      9  C   UNL     1      -0.061   4.508   0.026  0.00  0.00    +0.076 A 
ATOM     10  C   UNL     1       1.178   3.794   0.011  0.00  0.00    +0.268 A 
ATOM     11  O   UNL     1       2.239   4.395   0.004  0.00  0.00    -0.267 OA
ATOM     12  N   UNL     1       1.157   2.448   0.004  0.00  0.00    -0.253 N 
ATOM     13  C   UNL     1      -0.022   1.758   0.012  0.00  0.00    +0.178 A 
ATOM     14  N   UNL     1      -1.177   2.392   0.021  0.00  0.00    -0.215 NA
ATOM     15  C   UNL     1      -2.026   7.810   0.059  0.00  0.00    +0.046 C 
ENDROOT
BRANCH  12  16
ATOM     16  C   UNL     1       2.368   1.742  -0.010  0.00  0.00    +0.087 A 
ATOM     17  C   UNL     1       2.955   1.392  -1.218  0.00  0.00    +0.029 A 
ATOM     18  C   UNL     1       4.151   0.700  -1.230  0.00  0.00    +0.002 A 
ATOM     19  C   UNL     1       4.759   0.345  -0.039  0.00  0.00    +0.003 A 
ATOM     20  C   UNL     1       4.176   0.687   1.167  0.00  0.00    +0.040 A 
ATOM     21  C   UNL     1       2.981   1.385   1.185  0.00  0.00    +0.147 A 
ATOM     22  F   UNL     1       2.411   1.718   2.364  0.00  0.00    -0.203 F 
ENDBRANCH  12  16
BRANCH  13  23
ATOM     23  S   UNL     1       0.002  -0.004   0.002  0.00  0.00    -0.075 S 
BRANCH  23  24
ATOM     24  C   UNL     1      -1.776  -0.343   0.017  0.00  0.00    +0.137 C 
ATOM     25  C   UNL     1      -2.378   0.154   1.333  0.00  0.00    +0.029 C 
BRANCH  24  26
ATOM     26  C   UNL     1      -2.006  -1.826  -0.112  0.00  0.00    +0.226 C 
ATOM     27  O   UNL     1      -1.147  -2.606   0.240  0.00  0.00    -0.275 OA
ATOM     28  N   UNL     1      -3.167  -2.287  -0.620  0.00  0.00    -0.311 N 
ATOM     29  H   UNL     1      -3.854  -1.663  -0.902  0.00  0.00    +0.149 HD
BRANCH  28  30
ATOM     30  C   UNL     1      -3.390  -3.729  -0.746  0.00  0.00    +0.131 C 
BRANCH  30  31
ATOM     31  C   UNL     1      -4.755  -3.976  -1.336  0.00  0.00    -0.016 C 
ATOM     32  C   UNL     1      -4.878  -4.707  -2.416  0.00  0.00    +0.005 C 
ENDBRANCH  30  31
ENDBRANCH  28  30
ENDBRANCH  24  26
ENDBRANCH  23  24
ENDBRANCH  13  23
TORSDOF 6
