REMARK  Name = ZINC14801349
REMARK  4 active torsions:
REMARK  status: ('A' for Active; 'I' for Inactive)
REMARK    1  A    between atoms: C_1  and  N_2
REMARK    2  A    between atoms: C_4  and  C_11
REMARK    3  A    between atoms: N_13  and  N_14
REMARK    4  A    between atoms: C_15  and  C_17
REMARK                            x       y       z     vdW  Elec       q    Type
REMARK                         _______ _______ _______ _____ _____    ______ ____
ROOT
ATOM      1  C   UNL     1       3.364  10.034   0.024  0.00  0.00    +0.262 C 
ATOM      2  O   UNL     1       2.183  10.327   0.037  0.00  0.00    -0.269 OA
ATOM      3  N   UNL     1       3.738   8.740   0.014  0.00  0.00    -0.230 N 
ATOM      4  H   UNL     1       4.680   8.507   0.004  0.00  0.00    +0.173 HD
ENDROOT
BRANCH   1   8
ATOM      5  C   UNL     1       7.800  12.333  -0.004  0.00  0.00    +0.149 C 
ATOM      6  N   UNL     1       6.349  12.132   0.008  0.00  0.00    -0.349 N 
ATOM      7  C   UNL     1       5.736  10.924   0.007  0.00  0.00    +0.099 A 
ATOM      8  C   UNL     1       4.383  11.093   0.021  0.00  0.00    +0.063 A 
ATOM      9  C   UNL     1       4.144  12.548   0.025  0.00  0.00    +0.012 A 
ATOM     10  C   UNL     1       5.414  13.146   0.022  0.00  0.00    +0.050 A 
ATOM     11  C   UNL     1       5.514  14.534   0.029  0.00  0.00    +0.026 A 
ATOM     12  C   UNL     1       4.373  15.306   0.044  0.00  0.00    +0.002 A 
ATOM     13  C   UNL     1       3.119  14.713   0.052  0.00  0.00    +0.001 A 
ATOM     14  C   UNL     1       2.999  13.340   0.046  0.00  0.00    +0.011 A 
ENDBRANCH   1   8
BRANCH   3  15
ATOM     15  N   UNL     1       2.767   7.730   0.017  0.00  0.00    -0.230 N 
ATOM     16  C   UNL     1       3.140   6.435   0.007  0.00  0.00    +0.268 C 
ATOM     17  O   UNL     1       4.322   6.143  -0.005  0.00  0.00    -0.268 OA
ATOM     18  H   UNL     1       1.825   7.963   0.027  0.00  0.00    +0.173 HD
BRANCH  16  19
ATOM     19  C   UNL     1       2.122   5.377   0.010  0.00  0.00    +0.095 A 
ATOM     20  C   UNL     1       2.301   4.028   0.001  0.00  0.00    +0.068 A 
ATOM     21  C   UNL     1       1.184   3.173   0.007  0.00  0.00    +0.008 A 
ATOM     22  C   UNL     1       1.164   1.754   0.000  0.00  0.00    +0.010 A 
ATOM     23  C   UNL     1      -0.013   1.076   0.008  0.00  0.00    +0.001 A 
ATOM     24  C   UNL     1      -1.235   1.737   0.017  0.00  0.00    +0.001 A 
ATOM     25  C   UNL     1      -1.261   3.117   0.030  0.00  0.00    +0.016 A 
ATOM     26  C   UNL     1      -0.075   3.819   0.023  0.00  0.00    +0.021 A 
ATOM     27  S   UNL     1       0.346   5.544   0.028  0.00  0.00    -0.082 S 
ATOM     28 CL   UNL     1       3.905   3.364  -0.018  0.00  0.00    -0.082 Cl
ENDBRANCH  16  19
ENDBRANCH   3  15
TORSDOF 3
