REMARK  Name = ZINC25712791
REMARK  7 active torsions:
REMARK  status: ('A' for Active; 'I' for Inactive)
REMARK    1  A    between atoms: C_1  and  N_2
REMARK    2  A    between atoms: C_6  and  C_7
REMARK    3  A    between atoms: C_15  and  C_17
REMARK    4  A    between atoms: C_17  and  S_18
REMARK    5  A    between atoms: S_18  and  C_19
REMARK    6  A    between atoms: C_19  and  C_20
REMARK    7  A    between atoms: C_26  and  C_31
REMARK                            x       y       z     vdW  Elec       q    Type
REMARK                         _______ _______ _______ _____ _____    ______ ____
ROOT
ATOM      1  S   UNL     1      -0.954  -5.549   2.720  0.00  0.00    -0.144 S 
ENDROOT
BRANCH   1   2
ATOM      2  C   UNL     1      -1.310  -3.982   3.561  0.00  0.00    +0.165 C 
BRANCH   2  10
ATOM      3  C   UNL     1      -0.049  -0.535   2.588  0.00  0.00    +0.123 C 
ATOM      4  C   UNL     1       1.403  -0.337   3.088  0.00  0.00    +0.029 C 
ATOM      5  C   UNL     1       1.403   0.269   4.428  0.00  0.00    +0.002 C 
ATOM      6  C   UNL     1       0.746  -0.588   5.506  0.00  0.00    +0.002 C 
ATOM      7  C   UNL     1      -0.744  -0.346   5.499  0.00  0.00    +0.019 C 
ATOM      8  C   UNL     1      -1.440  -1.363   4.576  0.00  0.00    +0.108 C 
ATOM      9  N   UNL     1      -0.678  -1.601   3.335  0.00  0.00    -0.292 N 
ATOM     10  C   UNL     1      -0.564  -2.865   2.879  0.00  0.00    +0.226 C 
ATOM     11  O   UNL     1       0.139  -3.102   1.920  0.00  0.00    -0.275 OA
BRANCH   3  17
ATOM     12  C   UNL     1       2.391  -1.561   0.972  0.00  0.00    +0.148 C 
ATOM     13  N   UNL     1       1.050  -1.343   0.424  0.00  0.00    -0.352 N 
ATOM     14  C   UNL     1       0.674  -1.562  -0.868  0.00  0.00    +0.085 A 
ATOM     15  C   UNL     1      -0.631  -1.247  -0.987  0.00  0.00    +0.019 A 
ATOM     16  C   UNL     1      -1.079  -0.818   0.278  0.00  0.00    +0.024 A 
ATOM     17  C   UNL     1      -0.030  -0.892   1.124  0.00  0.00    +0.039 A 
ENDBRANCH   3  17
ENDBRANCH   2  10
ENDBRANCH   1   2
BRANCH   1  18
ATOM     18  C   UNL     1      -1.915  -6.775   3.650  0.00  0.00    +0.143 C 
BRANCH  18  19
ATOM     19  C   UNL     1      -1.706  -8.140   3.047  0.00  0.00    +0.121 A 
ATOM     20  N   UNL     1      -2.340  -9.213   3.587  0.00  0.00    -0.310 N 
ATOM     21  H   UNL     1      -2.919  -9.085   4.354  0.00  0.00    +0.170 HD
ATOM     22  C   UNL     1      -2.180 -10.448   3.078  0.00  0.00    +0.260 A 
ATOM     23  O   UNL     1      -2.757 -11.401   3.574  0.00  0.00    -0.267 OA
ATOM     24  C   UNL     1      -1.324 -10.627   1.946  0.00  0.00    +0.080 A 
ATOM     25  C   UNL     1      -0.993 -11.850   1.222  0.00  0.00    +0.010 A 
ATOM     26  C   UNL     1      -0.146 -11.772   0.165  0.00  0.00    +0.057 A 
ATOM     27  S   UNL     1       0.256 -10.038   0.084  0.00  0.00    -0.076 S 
ATOM     28  C   UNL     1      -0.711  -9.462   1.456  0.00  0.00    +0.116 A 
ATOM     29  N   UNL     1      -0.922  -8.271   2.010  0.00  0.00    -0.226 NA
BRANCH  25  30
ATOM     30  C   UNL     1      -1.569 -13.147   1.633  0.00  0.00    +0.021 A 
ATOM     31  C   UNL     1      -2.196 -14.094   0.868  0.00  0.00    +0.016 A 
ATOM     32  C   UNL     1      -2.656 -15.241   1.479  0.00  0.00    +0.008 A 
ATOM     33  C   UNL     1      -2.476 -15.396   2.815  0.00  0.00    +0.046 A 
ATOM     34  S   UNL     1      -1.622 -13.892   3.255  0.00  0.00    -0.097 S 
ENDBRANCH  25  30
ENDBRANCH  18  19
ENDBRANCH   1  18
TORSDOF 6
