REMARK  Name = ZINC39444743
REMARK  6 active torsions:
REMARK  status: ('A' for Active; 'I' for Inactive)
REMARK    1  A    between atoms: C_1  and  C_2
REMARK    2  A    between atoms: C_3  and  C_14
REMARK    3  A    between atoms: C_4  and  C_8
REMARK    4  A    between atoms: N_16  and  N_17
REMARK    5  A    between atoms: C_18  and  C_19
REMARK    6  A    between atoms: C_24  and  C_25
REMARK                            x       y       z     vdW  Elec       q    Type
REMARK                         _______ _______ _______ _____ _____    ______ ____
ROOT
ATOM      1  C   UNL     1      -2.442  -0.313   0.021  0.00  0.00    +0.264 C 
ATOM      2  O   UNL     1      -2.677   0.881   0.038  0.00  0.00    -0.269 OA
ATOM      3  N   UNL     1      -3.458  -1.200   0.021  0.00  0.00    -0.203 N 
ATOM      4  H   UNL     1      -3.271  -2.151   0.008  0.00  0.00    +0.178 HD
ENDROOT
BRANCH   1   7
ATOM      5  C   UNL     1      -0.018   1.503   0.010  0.00  0.00    +0.089 C 
ATOM      6  C   UNL     1       0.002  -0.004   0.002  0.00  0.00    +0.132 C 
ATOM      7  C   UNL     1      -1.101  -0.772   0.003  0.00  0.00    +0.080 C 
ATOM      8  C   UNL     1      -0.648  -2.220  -0.019  0.00  0.00    +0.161 C 
ATOM      9  N   UNL     1       0.774  -2.108  -0.435  0.00  0.00    -0.144 NA
ATOM     10  O   UNL     1       1.128  -0.743  -0.013  0.00  0.00    -0.410 OA
ATOM     11  H   UNL     1       1.344  -2.794   0.038  0.00  0.00    +0.168 HD
BRANCH   8  12
ATOM     12  C   UNL     1      -0.761  -2.837   1.351  0.00  0.00    -0.023 A 
ATOM     13  C   UNL     1       0.213  -2.594   2.302  0.00  0.00    +0.005 A 
ATOM     14  C   UNL     1       0.108  -3.160   3.558  0.00  0.00    +0.000 A 
ATOM     15  C   UNL     1      -0.970  -3.968   3.865  0.00  0.00    +0.000 A 
ATOM     16  C   UNL     1      -1.945  -4.210   2.915  0.00  0.00    +0.000 A 
ATOM     17  C   UNL     1      -1.843  -3.641   1.660  0.00  0.00    +0.005 A 
ENDBRANCH   8  12
ENDBRANCH   1   7
BRANCH   3  18
ATOM     18  N   UNL     1      -4.783  -0.746   0.039  0.00  0.00    -0.191 NA
ATOM     19  C   UNL     1      -5.748  -1.588   0.038  0.00  0.00    +0.118 C 
BRANCH  19  20
ATOM     20  C   UNL     1      -7.173  -1.100   0.058  0.00  0.00    +0.125 C 
ATOM     21  C   UNL     1      -7.922  -1.685   1.239  0.00  0.00    +0.123 C 
ATOM     22  N   UNL     1      -8.888  -2.385   0.741  0.00  0.00    -0.161 NA
ATOM     23  N   UNL     1      -8.903  -2.359  -0.650  0.00  0.00    -0.153 NA
ATOM     24  C   UNL     1      -7.936  -1.629  -1.141  0.00  0.00    +0.084 C 
BRANCH  24  25
ATOM     25  C   UNL     1      -7.645  -1.373  -2.561  0.00  0.00    -0.001 A 
ATOM     26  C   UNL     1      -6.561  -0.567  -2.923  0.00  0.00    +0.010 A 
ATOM     27  C   UNL     1      -6.295  -0.332  -4.255  0.00  0.00    +0.001 A 
ATOM     28  C   UNL     1      -7.099  -0.890  -5.234  0.00  0.00    +0.000 A 
ATOM     29  C   UNL     1      -8.174  -1.688  -4.884  0.00  0.00    +0.001 A 
ATOM     30  C   UNL     1      -8.449  -1.938  -3.556  0.00  0.00    +0.010 A 
ENDBRANCH  24  25
ENDBRANCH  19  20
ENDBRANCH   3  18
TORSDOF 5
