REMARK  Name = ZINC41074299
REMARK  7 active torsions:
REMARK  status: ('A' for Active; 'I' for Inactive)
REMARK    1  A    between atoms: C_1  and  C_2
REMARK    2  A    between atoms: C_2  and  C_3
REMARK    3  A    between atoms: C_2  and  C_4
REMARK    4  A    between atoms: C_4  and  C_5
REMARK    5  A    between atoms: C_8  and  C_19
REMARK    6  A    between atoms: C_9  and  C_13
REMARK    7  A    between atoms: C_24  and  C_31
REMARK                            x       y       z     vdW  Elec       q    Type
REMARK                         _______ _______ _______ _____ _____    ______ ____
ROOT
ATOM      1  C   UNL     1      -3.843   3.419   4.216  0.00  0.00    +0.046 C 
ATOM      2  C   UNL     1      -3.511   4.006   2.998  0.00  0.00    +0.081 C 
ATOM      3  C   UNL     1      -4.550   4.408   2.016  0.00  0.00    +0.136 C 
ATOM      4  N   UNL     1      -5.736   4.843   2.361  0.00  0.00    -0.284 NA
ATOM      5  N   UNL     1      -4.134   4.277   0.672  0.00  0.00    -0.233 N 
ATOM      6  C   UNL     1      -4.971   4.146  -0.405  0.00  0.00    +0.056 C 
ATOM      7  C   UNL     1      -4.462   4.084  -1.655  0.00  0.00    +0.072 C 
ATOM      8  S   UNL     1      -2.705   4.206  -1.348  0.00  0.00    -0.062 S 
ATOM      9  C   UNL     1      -2.777   4.288   0.422  0.00  0.00    +0.163 C 
ATOM     10  N   UNL     1      -1.808   4.323   1.301  0.00  0.00    -0.154 NA
ATOM     11  C   UNL     1      -2.107   4.268   2.618  0.00  0.00    +0.273 C 
ATOM     12  O   UNL     1      -1.245   4.427   3.468  0.00  0.00    -0.268 OA
ATOM     13  H   UNL     1      -6.346   5.178   1.686  0.00  0.00    +0.188 HD
ENDROOT
BRANCH   1  17
ATOM     14  C   UNL     1       0.030   1.048   3.841  0.00  0.00    +0.103 A 
ATOM     15  N   UNL     1      -1.099   1.683   3.734  0.00  0.00    -0.162 NA
ATOM     16  N   UNL     1      -1.684   2.310   4.830  0.00  0.00    -0.206 N 
ATOM     17  C   UNL     1      -2.837   3.061   5.115  0.00  0.00    +0.095 A 
ATOM     18  C   UNL     1      -2.780   3.380   6.480  0.00  0.00    +0.099 A 
ATOM     19  N   UNL     1      -1.658   2.848   6.968  0.00  0.00    -0.219 NA
ATOM     20  C   UNL     1      -1.016   2.224   6.012  0.00  0.00    +0.196 A 
ATOM     21  S   UNL     1       0.413   1.262   5.572  0.00  0.00    -0.033 S 
BRANCH  18  22
ATOM     22  C   UNL     1      -3.780   4.164   7.238  0.00  0.00    +0.003 A 
ATOM     23  C   UNL     1      -4.456   5.219   6.624  0.00  0.00    +0.010 A 
ATOM     24  C   UNL     1      -5.388   5.945   7.336  0.00  0.00    +0.001 A 
ATOM     25  C   UNL     1      -5.652   5.630   8.657  0.00  0.00    +0.000 A 
ATOM     26  C   UNL     1      -4.986   4.585   9.272  0.00  0.00    +0.001 A 
ATOM     27  C   UNL     1      -4.056   3.847   8.569  0.00  0.00    +0.010 A 
ENDBRANCH  18  22
BRANCH  14  28
ATOM     28  C   UNL     1       0.811   0.316   2.781  0.00  0.00    +0.067 C 
BRANCH  28  30
ATOM     29  C   UNL     1       0.036   1.873   0.987  0.00  0.00    +0.007 C 
ATOM     30  C   UNL     1       0.071   0.414   1.445  0.00  0.00    -0.011 C 
ATOM     31  C   UNL     1       0.797  -0.432   0.397  0.00  0.00    +0.007 C 
ENDBRANCH  28  30
ENDBRANCH  14  28
ENDBRANCH   1  17
BRANCH   6  32
ATOM     32  C   UNL     1      -6.433   4.074  -0.200  0.00  0.00    -0.003 A 
ATOM     33  C   UNL     1      -7.285   4.912  -0.920  0.00  0.00    +0.010 A 
ATOM     34  C   UNL     1      -8.649   4.839  -0.724  0.00  0.00    +0.001 A 
ATOM     35  C   UNL     1      -9.172   3.937   0.185  0.00  0.00    +0.000 A 
ATOM     36  C   UNL     1      -8.333   3.103   0.903  0.00  0.00    +0.001 A 
ATOM     37  C   UNL     1      -6.968   3.162   0.712  0.00  0.00    +0.010 A 
ENDBRANCH   6  32
TORSDOF 5
