REMARK  Name = ZINC14980397
REMARK  10 active torsions:
REMARK  status: ('A' for Active; 'I' for Inactive)
REMARK    1  A    between atoms: C_1  and  C_2
REMARK    2  A    between atoms: C_2  and  N_3
REMARK    3  A    between atoms: N_3  and  C_4
REMARK    4  A    between atoms: C_4  and  C_5
REMARK    5  A    between atoms: C_6  and  C_8
REMARK    6  A    between atoms: C_14  and  N_75
REMARK    7  A    between atoms: N_17  and  C_20
REMARK    8  A    between atoms: C_23  and  C_26
REMARK    9  A    between atoms: N_28  and  C_29
REMARK   10  A    between atoms: C_29  and  C_30
REMARK                            x       y       z     vdW  Elec       q    Type
REMARK                         _______ _______ _______ _____ _____    ______ ____
ROOT
ATOM      1  C   UNL     1      -0.292   4.291   1.404  0.00  0.00    -0.066 C 
ATOM      2  C   UNL     1      -0.287   2.780   1.158  0.00  0.00    +0.004 C 
ATOM      3  C   UNL     1       0.494   2.479  -0.124  0.00  0.00    +0.103 C 
ATOM      4  N   UNL     1      -0.133   3.175  -1.255  0.00  0.00    -0.330 N 
ATOM      5  C   UNL     1      -0.106   4.631  -1.062  0.00  0.00    +0.103 C 
ATOM      6  C   UNL     1      -0.905   4.996   0.191  0.00  0.00    +0.004 C 
ENDROOT
BRANCH   1  12
ATOM      7  C   UNL     1      -1.460   4.145   4.981  0.00  0.00    +0.059 C 
ATOM      8  C   UNL     1      -1.615   5.647   5.237  0.00  0.00    +0.009 C 
ATOM      9  C   UNL     1      -2.155   6.319   3.972  0.00  0.00    -0.018 C 
ATOM     10  C   UNL     1      -1.203   6.041   2.807  0.00  0.00    -0.078 C 
ATOM     11  C   UNL     1      -0.527   3.930   3.787  0.00  0.00    -0.066 C 
ATOM     12  N   UNL     1      -1.116   4.581   2.596  0.00  0.00    +0.382 N 
ATOM     13  H   UNL     1      -2.061   4.209   2.446  0.00  0.00    -0.081 HD
BRANCH   7  15
ATOM     14  N   UNL     1      -1.584   3.429   7.345  0.00  0.00    -0.302 N 
ATOM     15  C   UNL     1      -0.873   3.485   6.202  0.00  0.00    +0.217 C 
ATOM     16  O   UNL     1       0.239   3.003   6.156  0.00  0.00    -0.275 OA
BRANCH  14  18
ATOM     17  C   UNL     1      -0.187   3.989   9.273  0.00  0.00    +0.024 C 
ATOM     18  C   UNL     1      -0.975   2.886   8.562  0.00  0.00    +0.104 C 
ENDBRANCH  14  18
BRANCH  14  19
ATOM     19  C   UNL     1      -2.967   3.911   7.372  0.00  0.00    +0.104 C 
ATOM     20  C   UNL     1      -3.922   2.733   7.169  0.00  0.00    +0.024 C 
ENDBRANCH  14  19
ENDBRANCH   7  15
ENDBRANCH   1  12
BRANCH   4  21
ATOM     21  C   UNL     1       0.472   2.821  -2.455  0.00  0.00    +0.030 A 
ATOM     22  C   UNL     1       1.531   1.916  -2.459  0.00  0.00    +0.024 A 
ATOM     23  C   UNL     1       2.128   1.559  -3.646  0.00  0.00    +0.015 A 
ATOM     24  C   UNL     1       1.678   2.113  -4.848  0.00  0.00    +0.037 A 
ATOM     25  C   UNL     1       0.618   3.025  -4.840  0.00  0.00    +0.015 A 
ATOM     26  C   UNL     1       0.022   3.374  -3.650  0.00  0.00    +0.024 A 
BRANCH  24  27
ATOM     27  C   UNL     1       2.319   1.736  -6.122  0.00  0.00    +0.244 C 
ATOM     28  O   UNL     1       1.927   2.219  -7.166  0.00  0.00    -0.270 OA
ATOM     29  N   UNL     1       3.341   0.857  -6.128  0.00  0.00    -0.307 N 
ATOM     30  H   UNL     1       3.654   0.471  -5.294  0.00  0.00    +0.149 HD
BRANCH  29  31
ATOM     31  C   UNL     1       3.978   0.483  -7.393  0.00  0.00    +0.142 C 
BRANCH  31  32
ATOM     32  C   UNL     1       5.083  -0.507  -7.125  0.00  0.00    +0.005 A 
ATOM     33  C   UNL     1       6.398  -0.081  -7.088  0.00  0.00    +0.008 A 
ATOM     34  C   UNL     1       7.411  -0.987  -6.837  0.00  0.00    +0.000 A 
ATOM     35  C   UNL     1       7.112  -2.322  -6.634  0.00  0.00    +0.003 A 
ATOM     36  C   UNL     1       5.799  -2.750  -6.676  0.00  0.00    +0.038 A 
ATOM     37  C   UNL     1       4.782  -1.843  -6.921  0.00  0.00    +0.128 A 
ATOM     38  F   UNL     1       3.498  -2.260  -6.963  0.00  0.00    -0.205 F 
ENDBRANCH  31  32
ENDBRANCH  29  31
ENDBRANCH  24  27
ENDBRANCH   4  21
TORSDOF 8
