REMARK  Name = ZINC42014660
REMARK  4 active torsions:
REMARK  status: ('A' for Active; 'I' for Inactive)
REMARK    1  A    between atoms: C_1  and  C_2
REMARK    2  A    between atoms: C_6  and  N_20
REMARK    3  A    between atoms: C_7  and  C_8
REMARK    4  A    between atoms: N_12  and  C_13
REMARK                            x       y       z     vdW  Elec       q    Type
REMARK                         _______ _______ _______ _____ _____    ______ ____
ROOT
ATOM      1  C   UNL     1       0.002  -0.063   2.295  0.00  0.00    +0.189 A 
ATOM      2  N   UNL     1      -0.356   1.205   2.339  0.00  0.00    -0.108 NA
ATOM      3  N   UNL     1      -0.693   1.536   3.533  0.00  0.00    -0.022 NA
ATOM      4  N   UNL     1      -0.581   0.531   4.331  0.00  0.00    -0.039 NA
ATOM      5  N   UNL     1      -0.130  -0.555   3.561  0.00  0.00    -0.193 N 
ENDROOT
BRANCH   1  12
ATOM      6  C   UNL     1      -1.682  -0.155  -0.055  0.00  0.00    +0.044 C 
ATOM      7  C   UNL     1      -0.351  -0.862  -0.037  0.00  0.00    -0.038 A 
ATOM      8  C   UNL     1       0.078  -1.556  -1.150  0.00  0.00    +0.004 A 
ATOM      9  C   UNL     1       1.299  -2.207  -1.140  0.00  0.00    +0.002 A 
ATOM     10  C   UNL     1       2.102  -2.169  -0.016  0.00  0.00    +0.023 A 
ATOM     11  C   UNL     1       1.686  -1.476   1.112  0.00  0.00    +0.036 A 
ATOM     12  C   UNL     1       0.452  -0.810   1.102  0.00  0.00    +0.045 A 
BRANCH  11  13
ATOM     13  N   UNL     1       2.493  -1.437   2.246  0.00  0.00    -0.357 N 
ATOM     14  H   UNL     1       3.297  -1.979   2.289  0.00  0.00    +0.142 HD
ATOM     15  H   UNL     1       2.252  -0.867   2.994  0.00  0.00    +0.142 HD
ENDBRANCH  11  13
ENDBRANCH   1  12
BRANCH   5  16
ATOM     16  C   UNL     1       0.132  -1.860   3.999  0.00  0.00    +0.070 A 
ATOM     17  C   UNL     1      -0.256  -2.946   3.224  0.00  0.00    +0.028 A 
ATOM     18  C   UNL     1       0.004  -4.231   3.658  0.00  0.00    +0.003 A 
ATOM     19  C   UNL     1       0.648  -4.438   4.864  0.00  0.00    +0.015 A 
ATOM     20  C   UNL     1       1.035  -3.360   5.639  0.00  0.00    +0.020 A 
ATOM     21  C   UNL     1       0.784  -2.071   5.207  0.00  0.00    +0.043 A 
ATOM     22 BR   UNL     1       1.916  -3.648   7.287  0.00  0.00    -0.050 Br
ENDBRANCH   5  16
TORSDOF 3
