REMARK  Name = ZINC15189386
REMARK  5 active torsions:
REMARK  status: ('A' for Active; 'I' for Inactive)
REMARK    1  A    between atoms: C_1  and  C_2
REMARK    2  A    between atoms: N_4  and  C_5
REMARK    3  A    between atoms: C_15  and  C_18
REMARK    4  A    between atoms: C_19  and  C_20
REMARK    5  A    between atoms: C_20  and  C_22
REMARK                            x       y       z     vdW  Elec       q    Type
REMARK                         _______ _______ _______ _____ _____    ______ ____
ROOT
ATOM      1  C   UNL     1      -6.580   3.941   0.081  0.00  0.00    +0.110 C 
ATOM      2  C   UNL     1      -5.174   4.483   0.071  0.00  0.00    +0.223 C 
ATOM      3  O   UNL     1      -4.231   3.721   0.058  0.00  0.00    -0.275 OA
ATOM      4  N   UNL     1      -4.965   5.815   0.076  0.00  0.00    -0.216 N 
ATOM      5  C   UNL     1      -3.669   6.314   0.066  0.00  0.00    +0.172 A 
ATOM      6  N   UNL     1      -2.528   5.657   0.047  0.00  0.00    -0.225 NA
ATOM      7  C   UNL     1      -1.373   6.327   0.045  0.00  0.00    +0.073 A 
ATOM      8  C   UNL     1      -1.411   7.712   0.052  0.00  0.00    +0.076 A 
ATOM      9  S   UNL     1      -3.121   8.013   0.069  0.00  0.00    -0.059 S 
ENDROOT
BRANCH   4  10
ATOM     10  C   UNL     1      -6.057   6.696   0.090  0.00  0.00    +0.078 A 
ATOM     11  C   UNL     1      -6.605   7.143  -1.103  0.00  0.00    +0.029 A 
ATOM     12  C   UNL     1      -7.683   8.007  -1.087  0.00  0.00    +0.040 A 
ATOM     13  C   UNL     1      -8.211   8.435   0.119  0.00  0.00    +0.126 A 
ATOM     14  C   UNL     1      -7.663   7.996   1.312  0.00  0.00    +0.078 A 
ATOM     15  C   UNL     1      -6.587   7.127   1.301  0.00  0.00    +0.148 A 
ATOM     16  F   UNL     1      -6.052   6.698   2.465  0.00  0.00    -0.203 F 
ATOM     17  F   UNL     1      -9.262   9.284   0.132  0.00  0.00    -0.205 F 
ENDBRANCH   4  10
BRANCH   7  18
ATOM     18  C   UNL     1      -0.094   5.614   0.030  0.00  0.00    +0.032 C 
ATOM     19  C   UNL     1      -0.074   4.258   0.024  0.00  0.00    +0.053 C 
BRANCH  19  20
ATOM     20  C   UNL     1       1.161   3.569   0.009  0.00  0.00    +0.186 C 
ATOM     21  O   UNL     1       2.207   4.194   0.003  0.00  0.00    -0.287 OA
BRANCH  20  22
ATOM     22  C   UNL     1       1.182   2.092   0.002  0.00  0.00    +0.024 A 
ATOM     23  C   UNL     1      -0.017   1.374   0.010  0.00  0.00    +0.015 A 
ATOM     24  C   UNL     1       0.002  -0.004   0.002  0.00  0.00    +0.048 A 
ATOM     25  C   UNL     1       1.212  -0.683  -0.013  0.00  0.00    +0.142 A 
ATOM     26  C   UNL     1       2.414   0.029  -0.020  0.00  0.00    +0.076 A 
ATOM     27  C   UNL     1       2.402   1.410  -0.013  0.00  0.00    +0.038 A 
ATOM     28  N   UNL     1       3.627  -0.675  -0.034  0.00  0.00    -0.280 N 
ATOM     29  C   UNL     1       3.618  -1.987  -0.358  0.00  0.00    +0.255 C 
ATOM     30  O   UNL     1       4.651  -2.624  -0.348  0.00  0.00    -0.272 OA
ATOM     31  C   UNL     1       2.320  -2.656  -0.732  0.00  0.00    +0.325 C 
ATOM     32  O   UNL     1       1.241  -2.041  -0.023  0.00  0.00    -0.481 OA
ATOM     33  H   UNL     1       4.459  -0.228   0.185  0.00  0.00    +0.155 HD
ENDBRANCH  20  22
ENDBRANCH  19  20
ENDBRANCH   7  18
TORSDOF 4
