REMARK  Name = ZINC01248259
REMARK  8 active torsions:
REMARK  status: ('A' for Active; 'I' for Inactive)
REMARK    1  A    between atoms: C_1  and  C_2
REMARK    2  A    between atoms: C_2  and  C_3
REMARK    3  A    between atoms: C_2  and  C_4
REMARK    4  A    between atoms: C_12  and  N_28
REMARK    5  A    between atoms: C_14  and  S_16
REMARK    6  A    between atoms: S_16  and  C_17
REMARK    7  A    between atoms: C_17  and  C_18
REMARK    8  A    between atoms: N_20  and  C_21
REMARK                            x       y       z     vdW  Elec       q    Type
REMARK                         _______ _______ _______ _____ _____    ______ ____
ROOT
ATOM      1  C   UNL     1       9.747   6.325   0.474  0.00  0.00    +0.126 C 
ATOM      2  C   UNL     1       8.330   5.978   0.007  0.00  0.00    +0.068 C 
ATOM      3  C   UNL     1       8.197   4.457  -0.013  0.00  0.00    -0.020 A 
ATOM      4  C   UNL     1       9.309   3.691  -0.004  0.00  0.00    +0.021 A 
ATOM      5  S   UNL     1       8.719   2.022  -0.029  0.00  0.00    -0.071 S 
ATOM      6  C   UNL     1       6.976   2.355  -0.051  0.00  0.00    +0.115 A 
ATOM      7  C   UNL     1       6.910   3.764  -0.039  0.00  0.00    +0.051 A 
ATOM      8  C   UNL     1       5.599   4.316  -0.053  0.00  0.00    +0.129 A 
ATOM      9  N   UNL     1       4.556   3.505  -0.076  0.00  0.00    -0.207 NA
ATOM     10  C   UNL     1       4.689   2.184  -0.086  0.00  0.00    +0.191 A 
ATOM     11  N   UNL     1       5.886   1.613  -0.069  0.00  0.00    -0.214 NA
ATOM     12  C   UNL     1      10.723   4.183   0.021  0.00  0.00    +0.203 C 
ATOM     13  O   UNL     1      10.709   5.586  -0.284  0.00  0.00    -0.371 OA
ENDROOT
BRANCH   1  15
ATOM     14  C   UNL     1      11.408   8.171   0.746  0.00  0.00    +0.010 C 
ATOM     15  C   UNL     1       9.993   7.822   0.280  0.00  0.00    +0.012 C 
ATOM     16  C   UNL     1       9.842   8.176  -1.201  0.00  0.00    +0.010 C 
ENDBRANCH   1  15
BRANCH   8  17
ATOM     17  N   UNL     1       5.418   5.687  -0.043  0.00  0.00    -0.343 N 
ATOM     18  H   UNL     1       4.525   6.058   0.030  0.00  0.00    +0.144 HD
ATOM     19  H   UNL     1       6.185   6.278  -0.110  0.00  0.00    +0.144 HD
ENDBRANCH   8  17
BRANCH  10  20
ATOM     20  S   UNL     1       3.248   1.170  -0.115  0.00  0.00    -0.077 S 
BRANCH  20  21
ATOM     21  C   UNL     1       1.965   2.446  -0.122  0.00  0.00    +0.173 C 
BRANCH  21  22
ATOM     22  C   UNL     1       0.607   1.794  -0.147  0.00  0.00    +0.227 C 
ATOM     23  O   UNL     1       0.516   0.584  -0.159  0.00  0.00    -0.275 OA
ATOM     24  N   UNL     1      -0.506   2.554  -0.162  0.00  0.00    -0.285 N 
ATOM     25  H   UNL     1      -0.435   3.518  -0.089  0.00  0.00    +0.155 HD
BRANCH  24  26
ATOM     26  C   UNL     1      -1.763   1.951  -0.281  0.00  0.00    +0.033 A 
ATOM     27  C   UNL     1      -2.775   2.587  -0.989  0.00  0.00    +0.024 A 
ATOM     28  C   UNL     1      -4.013   1.988  -1.110  0.00  0.00    +0.017 A 
ATOM     29  C   UNL     1      -4.250   0.760  -0.517  0.00  0.00    +0.018 A 
ATOM     30  C   UNL     1      -3.245   0.127   0.192  0.00  0.00    +0.017 A 
ATOM     31  C   UNL     1      -2.003   0.719   0.312  0.00  0.00    +0.024 A 
ATOM     32 BR   UNL     1      -5.949  -0.054  -0.679  0.00  0.00    -0.050 Br
ENDBRANCH  24  26
ENDBRANCH  21  22
ENDBRANCH  20  21
ENDBRANCH  10  20
TORSDOF 6
