REMARK  Name = ZINC02595357
REMARK  3 active torsions:
REMARK  status: ('A' for Active; 'I' for Inactive)
REMARK    1  A    between atoms: C_10  and  C_12
REMARK    2  A    between atoms: N_14  and  C_15
REMARK    3  A    between atoms: C_15  and  N_17
REMARK                            x       y       z     vdW  Elec       q    Type
REMARK                         _______ _______ _______ _____ _____    ______ ____
ROOT
ATOM      1  C   UNL     1       2.313   1.740  -0.011  0.00  0.00    +0.250 C 
ATOM      2  O   UNL     1       2.329   0.524  -0.032  0.00  0.00    -0.270 OA
ATOM      3  N   UNL     1       1.137   2.397   0.020  0.00  0.00    -0.262 N 
ATOM      4  H   UNL     1       1.122   3.497   0.039  0.00  0.00    +0.157 HD
ENDROOT
BRANCH   1  14
ATOM      5  C   UNL     1       4.772   4.587  -0.119  0.00  0.00    +0.001 A 
ATOM      6  C   UNL     1       5.979   3.961  -0.038  0.00  0.00    +0.010 A 
ATOM      7  C   UNL     1       6.055   2.562   0.057  0.00  0.00    +0.001 A 
ATOM      8  C   UNL     1       4.862   1.799   0.069  0.00  0.00    -0.004 A 
ATOM      9  C   UNL     1       4.933   0.404   0.162  0.00  0.00    +0.009 A 
ATOM     10  C   UNL     1       6.151  -0.205   0.242  0.00  0.00    +0.002 A 
ATOM     11  C   UNL     1       7.326   0.541   0.231  0.00  0.00    +0.020 A 
ATOM     12  C   UNL     1       7.294   1.901   0.141  0.00  0.00    +0.049 A 
ATOM     13 CL   UNL     1       8.772   2.811   0.130  0.00  0.00    -0.083 Cl
ATOM     14  C   UNL     1       3.579   2.494  -0.019  0.00  0.00    +0.045 A 
ATOM     15  C   UNL     1       3.578   3.880  -0.115  0.00  0.00    +0.014 A 
ENDBRANCH   1  14
BRANCH   3  16
ATOM     16  C   UNL     1      -0.021   1.708   0.027  0.00  0.00    +0.163 C 
ATOM     17  S   UNL     1       0.002  -0.004  -0.002  0.00  0.00    -0.016 S 
BRANCH  16  18
ATOM     18  N   UNL     1      -1.197   2.365   0.052  0.00  0.00    -0.169 NA
ATOM     19  C   UNL     1      -2.387   1.657   0.054  0.00  0.00    +0.163 A 
ATOM     20  N   UNL     1      -3.617   2.114   0.076  0.00  0.00    -0.335 N 
ATOM     21  C   UNL     1      -4.694   1.298   0.074  0.00  0.00    +0.055 A 
ATOM     22  C   UNL     1      -6.062   1.659   0.095  0.00  0.00    +0.029 A 
ATOM     23  C   UNL     1      -7.040   0.700   0.089  0.00  0.00    +0.040 A 
ATOM     24  C   UNL     1      -6.728  -0.654   0.062  0.00  0.00    +0.125 A 
ATOM     25  C   UNL     1      -5.399  -1.042   0.040  0.00  0.00    +0.055 A 
ATOM     26  C   UNL     1      -4.414  -0.086   0.046  0.00  0.00    +0.041 A 
ATOM     27  S   UNL     1      -2.638  -0.112   0.019  0.00  0.00    -0.052 S 
ATOM     28  F   UNL     1      -7.711  -1.581   0.056  0.00  0.00    -0.205 F 
ATOM     29  H   UNL     1      -3.800   3.198   0.097  0.00  0.00    +0.168 HD
ENDBRANCH  16  18
ENDBRANCH   3  16
TORSDOF 3
