REMARK  Name = ZINC65022251
REMARK  8 active torsions:
REMARK  status: ('A' for Active; 'I' for Inactive)
REMARK    1  A    between atoms: C_1  and  C_2
REMARK    2  A    between atoms: C_5  and  N_9
REMARK    3  A    between atoms: C_10  and  C_12
REMARK    4  A    between atoms: N_15  and  S_18
REMARK    5  A    between atoms: S_18  and  C_21
REMARK    6  A    between atoms: N_30  and  C_31
REMARK    7  A    between atoms: C_31  and  C_32
REMARK    8  A    between atoms: C_31  and  C_33
REMARK                            x       y       z     vdW  Elec       q    Type
REMARK                         _______ _______ _______ _____ _____    ______ ____
ROOT
ATOM      1  C   UNL     1       0.306  -6.353   1.116  0.00  0.00    +0.078 C 
ATOM      2  C   UNL     1      -0.926  -6.965   0.448  0.00  0.00    +0.030 C 
ATOM      3  C   UNL     1      -0.772  -8.489   0.400  0.00  0.00    +0.110 C 
ATOM      4  N   UNL     1      -0.516  -8.981   1.760  0.00  0.00    -0.177 NA
ATOM      5  C   UNL     1       0.592  -8.394   2.527  0.00  0.00    +0.110 C 
ATOM      6  C   UNL     1       0.422  -6.872   2.551  0.00  0.00    +0.030 C 
ENDROOT
BRANCH   1   8
ATOM      7  N   UNL     1       0.057  -4.171  -0.023  0.00  0.00    -0.285 N 
ATOM      8  C   UNL     1       0.174  -4.852   1.134  0.00  0.00    +0.220 C 
ATOM      9  O   UNL     1       0.172  -4.256   2.191  0.00  0.00    -0.275 OA
ATOM     10  H   UNL     1      -0.018  -4.652  -0.863  0.00  0.00    +0.155 HD
BRANCH   7  15
ATOM     11  C   UNL     1       0.012   1.503   0.016  0.00  0.00    +0.047 C 
ATOM     12  C   UNL     1       0.023  -0.004   0.005  0.00  0.00    -0.015 A 
ATOM     13  C   UNL     1       0.778  -0.695   0.935  0.00  0.00    +0.008 A 
ATOM     14  C   UNL     1       0.791  -2.076   0.928  0.00  0.00    +0.024 A 
ATOM     15  C   UNL     1       0.045  -2.772  -0.014  0.00  0.00    +0.036 A 
ATOM     16  C   UNL     1      -0.713  -2.078  -0.947  0.00  0.00    +0.062 A 
ATOM     17  C   UNL     1      -0.726  -0.694  -0.932  0.00  0.00    +0.128 A 
ATOM     18  F   UNL     1      -1.468  -0.016  -1.836  0.00  0.00    -0.205 F 
ENDBRANCH   7  15
ENDBRANCH   1   8
BRANCH   4  19
ATOM     19  S   UNL     1      -1.457 -10.175   2.417  0.00  0.00    +0.061 S 
ATOM     20  O   UNL     1      -1.359 -10.040   3.828  0.00  0.00    -0.153 OA
ATOM     21  O   UNL     1      -2.702 -10.133   1.733  0.00  0.00    -0.153 OA
BRANCH  19  22
ATOM     22  C   UNL     1      -0.708 -11.715   2.005  0.00  0.00    +0.107 A 
ATOM     23  C   UNL     1      -1.049 -12.370   0.834  0.00  0.00    +0.030 A 
ATOM     24  C   UNL     1      -0.476 -13.573   0.496  0.00  0.00    +0.029 A 
ATOM     25  C   UNL     1       0.478 -14.177   1.332  0.00  0.00    +0.060 A 
ATOM     26  C   UNL     1       0.803 -13.489   2.510  0.00  0.00    +0.043 A 
ATOM     27  C   UNL     1       0.234 -12.284   2.845  0.00  0.00    +0.045 A 
ATOM     28  S   UNL     1       2.010 -14.543   3.275  0.00  0.00    -0.027 S 
ATOM     29  C   UNL     1       2.037 -15.826   2.033  0.00  0.00    +0.292 A 
ATOM     30  O   UNL     1       2.697 -16.848   2.007  0.00  0.00    -0.259 OA
ATOM     31  N   UNL     1       1.141 -15.376   1.132  0.00  0.00    -0.299 N 
BRANCH  31  32
ATOM     32  C   UNL     1       0.866 -16.165  -0.072  0.00  0.00    +0.085 C 
ATOM     33  C   UNL     1       2.156 -16.333  -0.877  0.00  0.00    +0.030 C 
ATOM     34  C   UNL     1       0.333 -17.541   0.331  0.00  0.00    +0.030 C 
ENDBRANCH  31  32
ENDBRANCH  19  22
ENDBRANCH   4  19
TORSDOF 5
