REMARK  Name = ZINC21251109
REMARK  9 active torsions:
REMARK  status: ('A' for Active; 'I' for Inactive)
REMARK    1  A    between atoms: C_1  and  O_2
REMARK    2  A    between atoms: O_2  and  C_3
REMARK    3  A    between atoms: C_5  and  C_13
REMARK    4  A    between atoms: C_7  and  O_11
REMARK    5  A    between atoms: C_8  and  O_9
REMARK    6  A    between atoms: O_9  and  C_10
REMARK    7  A    between atoms: O_11  and  C_12
REMARK    8  A    between atoms: C_18  and  C_28
REMARK    9  A    between atoms: C_33  and  C_34
REMARK                            x       y       z     vdW  Elec       q    Type
REMARK                         _______ _______ _______ _____ _____    ______ ____
ROOT
ATOM      1  C   UNL     1       4.495   3.761  -3.923  0.00  0.00    +0.032 C 
ATOM      2  C   UNL     1       3.487   4.891  -3.723  0.00  0.00    +0.059 C 
ATOM      3  C   UNL     1       3.066   4.956  -2.264  0.00  0.00    +0.017 C 
ATOM      4  C   UNL     1       2.987   3.837  -1.528  0.00  0.00    +0.036 C 
ATOM      5  C   UNL     1       2.552   3.749  -0.085  0.00  0.00    +0.136 C 
ATOM      6  N   UNL     1       2.453   5.027   0.587  0.00  0.00    -0.331 N 
ATOM      7  C   UNL     1       1.520   5.981   0.186  0.00  0.00    +0.049 A 
ATOM      8  C   UNL     1       0.479   6.370   1.014  0.00  0.00    +0.025 A 
ATOM      9  C   UNL     1      -0.450   7.287   0.555  0.00  0.00    +0.002 A 
ATOM     10  C   UNL     1      -0.344   7.812  -0.720  0.00  0.00    +0.002 A 
ATOM     11  C   UNL     1       0.704   7.439  -1.544  0.00  0.00    +0.025 A 
ATOM     12  C   UNL     1       1.645   6.537  -1.078  0.00  0.00    +0.052 A 
ATOM     13  N   UNL     1       2.778   6.203  -1.812  0.00  0.00    -0.316 N 
ATOM     14  C   UNL     1       3.338   2.586  -2.095  0.00  0.00    +0.163 C 
ATOM     15  O   UNL     1       3.246   1.586  -1.409  0.00  0.00    -0.292 OA
ATOM     16  C   UNL     1       3.816   2.450  -3.509  0.00  0.00    +0.088 C 
ATOM     17  H   UNL     1       3.121   5.259   1.430  0.00  0.00    +0.147 HD
ATOM     18  H   UNL     1       3.465   7.036  -2.021  0.00  0.00    +0.152 HD
ENDROOT
BRANCH   1  21
ATOM     19  C   UNL     1       6.604   3.794  -7.059  0.00  0.00    +0.165 A 
ATOM     20  C   UNL     1       6.227   3.858  -5.726  0.00  0.00    +0.053 A 
ATOM     21  C   UNL     1       4.901   3.690  -5.373  0.00  0.00    -0.036 A 
ATOM     22  C   UNL     1       3.948   3.451  -6.345  0.00  0.00    +0.053 A 
ATOM     23  C   UNL     1       4.316   3.391  -7.680  0.00  0.00    +0.165 A 
ATOM     24  C   UNL     1       5.648   3.559  -8.040  0.00  0.00    +0.204 A 
BRANCH  19  26
ATOM     25  C   UNL     1       8.837   4.198  -6.346  0.00  0.00    +0.277 C 
ATOM     26  O   UNL     1       7.909   3.960  -7.406  0.00  0.00    -0.491 OA
ENDBRANCH  19  26
BRANCH  24  27
ATOM     27  O   UNL     1       6.014   3.496  -9.349  0.00  0.00    -0.488 OA
ATOM     28  C   UNL     1       6.379   2.212  -9.859  0.00  0.00    +0.277 C 
ENDBRANCH  24  27
BRANCH  23  29
ATOM     29  O   UNL     1       3.376   3.162  -8.636  0.00  0.00    -0.491 OA
ATOM     30  C   UNL     1       2.027   2.998  -8.194  0.00  0.00    +0.277 C 
ENDBRANCH  23  29
ENDBRANCH   1  21
BRANCH   5  31
ATOM     31  C   UNL     1       1.205   3.075  -0.033  0.00  0.00    -0.011 A 
ATOM     32  C   UNL     1       0.387   3.078  -1.147  0.00  0.00    +0.006 A 
ATOM     33  C   UNL     1      -0.849   2.460  -1.099  0.00  0.00    +0.000 A 
ATOM     34  C   UNL     1      -1.264   1.835   0.062  0.00  0.00    +0.001 A 
ATOM     35  C   UNL     1      -0.449   1.837   1.178  0.00  0.00    +0.013 A 
ATOM     36  C   UNL     1       0.787   2.455   1.130  0.00  0.00    +0.060 A 
BRANCH  36  37
ATOM     37  C   UNL     1       1.678   2.453   2.345  0.00  0.00    +0.418 C 
ATOM     38  F   UNL     1       1.045   1.766   3.386  0.00  0.00    -0.166 F 
ATOM     39  F   UNL     1       2.887   1.819   2.035  0.00  0.00    -0.166 F 
ATOM     40  F   UNL     1       1.931   3.770   2.741  0.00  0.00    -0.166 F 
ENDBRANCH  36  37
ENDBRANCH   5  31
TORSDOF 6
