REMARK  Name = ZINC40314607
REMARK  12 active torsions:
REMARK  status: ('A' for Active; 'I' for Inactive)
REMARK    1  A    between atoms: C_1  and  C_2
REMARK    2  A    between atoms: C_9  and  N_22
REMARK    3  A    between atoms: C_10  and  C_11
REMARK    4  A    between atoms: N_13  and  C_14
REMARK    5  A    between atoms: N_22  and  C_23
REMARK    6  A    between atoms: C_23  and  C_24
REMARK    7  A    between atoms: C_24  and  C_26
REMARK    8  A    between atoms: C_24  and  O_36
REMARK    9  A    between atoms: C_26  and  O_27
REMARK   10  A    between atoms: O_27  and  C_28
REMARK   11  A    between atoms: C_33  and  O_34
REMARK   12  A    between atoms: O_34  and  C_35
REMARK                            x       y       z     vdW  Elec       q    Type
REMARK                         _______ _______ _______ _____ _____    ______ ____
ROOT
ATOM      1  C   UNL     1      -0.019   1.526   0.010  0.00  0.00    +0.008 C 
ATOM      2  C   UNL     1       0.002  -0.004   0.002  0.00  0.00    -0.009 C 
ATOM      3  C   UNL     1      -1.434  -0.537   0.019  0.00  0.00    +0.008 C 
ATOM      4  C   UNL     1      -1.432  -2.046  -0.236  0.00  0.00    +0.037 C 
ATOM      5  C   UNL     1      -0.463  -2.704   0.735  0.00  0.00    -0.023 A 
ATOM      6  C   UNL     1       0.484  -1.986   1.375  0.00  0.00    -0.004 A 
ATOM      7  S   UNL     1       1.344  -3.166   2.373  0.00  0.00    -0.078 S 
ATOM      8  C   UNL     1       0.495  -4.558   1.970  0.00  0.00    +0.078 A 
ATOM      9  C   UNL     1      -0.459  -4.120   1.062  0.00  0.00    +0.068 A 
ATOM     10  C   UNL     1       0.739  -0.515   1.248  0.00  0.00    +0.046 C 
ENDROOT
BRANCH   9  11
ATOM     11  C   UNL     1      -1.420  -5.046   0.458  0.00  0.00    +0.247 C 
ATOM     12  O   UNL     1      -1.148  -5.611  -0.585  0.00  0.00    -0.270 OA
ATOM     13  N   UNL     1      -2.606  -5.272   1.058  0.00  0.00    -0.307 N 
ATOM     14  H   UNL     1      -2.822  -4.821   1.889  0.00  0.00    +0.149 HD
BRANCH  13  15
ATOM     15  C   UNL     1      -3.567  -6.198   0.454  0.00  0.00    +0.096 C 
ATOM     16  C   UNL     1      -4.434  -5.450  -0.573  0.00  0.00    +0.046 C 
ATOM     17  C   UNL     1      -5.646  -6.323  -0.976  0.00  0.00    +0.168 C 
ATOM     18  S   UNL     1      -5.916  -7.356   0.522  0.00  0.00    -0.029 S 
ATOM     19  O   UNL     1      -5.708  -8.721   0.187  0.00  0.00    -0.174 OA
ATOM     20  O   UNL     1      -7.135  -6.965   1.140  0.00  0.00    -0.174 OA
ATOM     21  C   UNL     1      -4.506  -6.771   1.554  0.00  0.00    +0.188 C 
ENDBRANCH  13  15
ENDBRANCH   9  11
BRANCH   8  22
ATOM     22  N   UNL     1       0.699  -5.843   2.434  0.00  0.00    -0.335 N 
ATOM     23  H   UNL     1       0.135  -6.567   2.121  0.00  0.00    +0.147 HD
BRANCH  22  24
ATOM     24  C   UNL     1       1.767  -6.111   3.401  0.00  0.00    +0.136 C 
BRANCH  24  25
ATOM     25  C   UNL     1       1.777  -7.601   3.748  0.00  0.00    +0.169 C 
BRANCH  25  26
ATOM     26  O   UNL     1       0.518  -7.967   4.316  0.00  0.00    -0.387 OA
ATOM     27  H   UNL     1       0.297  -7.487   5.126  0.00  0.00    +0.210 HD
ENDBRANCH  25  26
BRANCH  25  28
ATOM     28  C   UNL     1       2.893  -7.882   4.757  0.00  0.00    +0.262 C 
BRANCH  28  29
ATOM     29  O   UNL     1       2.978  -9.289   4.994  0.00  0.00    -0.486 OA
BRANCH  29  30
ATOM     30  C   UNL     1       3.927  -9.710   5.872  0.00  0.00    +0.162 A 
ATOM     31  C   UNL     1       4.752  -8.790   6.498  0.00  0.00    +0.049 A 
ATOM     32  C   UNL     1       5.715  -9.220   7.391  0.00  0.00    +0.004 A 
ATOM     33  C   UNL     1       5.858 -10.568   7.663  0.00  0.00    +0.004 A 
ATOM     34  C   UNL     1       5.038 -11.492   7.042  0.00  0.00    +0.049 A 
ATOM     35  C   UNL     1       4.066 -11.067   6.150  0.00  0.00    +0.161 A 
BRANCH  35  36
ATOM     36  O   UNL     1       3.255 -11.973   5.543  0.00  0.00    -0.491 OA
ATOM     37  C   UNL     1       3.456 -13.349   5.876  0.00  0.00    +0.277 C 
ENDBRANCH  35  36
ENDBRANCH  29  30
ENDBRANCH  28  29
ENDBRANCH  25  28
ENDBRANCH  24  25
ENDBRANCH  22  24
ENDBRANCH   8  22
TORSDOF 10
