REMARK  Name = ZINC12791490
REMARK  9 active torsions:
REMARK  status: ('A' for Active; 'I' for Inactive)
REMARK    1  A    between atoms: C_1  and  C_2
REMARK    2  A    between atoms: C_2  and  C_3
REMARK    3  A    between atoms: C_6  and  C_9
REMARK    4  A    between atoms: C_15  and  C_17
REMARK    5  A    between atoms: C_17  and  S_18
REMARK    6  A    between atoms: S_18  and  C_19
REMARK    7  A    between atoms: C_22  and  C_25
REMARK    8  A    between atoms: N_23  and  N_24
REMARK    9  A    between atoms: C_25  and  C_26
REMARK                            x       y       z     vdW  Elec       q    Type
REMARK                         _______ _______ _______ _____ _____    ______ ____
ROOT
ATOM      1  C   UNL     1      -1.330   1.944   0.019  0.00  0.00    +0.173 C 
ENDROOT
BRANCH   1   8
ATOM      2  C   UNL     1       4.639   0.904  -0.037  0.00  0.00    +0.080 A 
ATOM      3  C   UNL     1       4.453  -0.451  -0.043  0.00  0.00    +0.076 A 
ATOM      4  S   UNL     1       2.667  -0.540  -0.018  0.00  0.00    -0.060 S 
ATOM      5  C   UNL     1       2.356   1.220  -0.014  0.00  0.00    +0.165 A 
ATOM      6  N   UNL     1       3.584   1.704  -0.023  0.00  0.00    -0.225 NA
ATOM      7  N   UNL     1       1.143   1.898   0.001  0.00  0.00    -0.264 N 
ATOM      8  C   UNL     1      -0.014   1.209   0.009  0.00  0.00    +0.229 C 
ATOM      9  O   UNL     1       0.002  -0.004   0.002  0.00  0.00    -0.275 OA
ATOM     10  H   UNL     1       1.130   2.868   0.007  0.00  0.00    +0.157 HD
BRANCH   2  14
ATOM     11  C   UNL     1       8.567   2.531  -0.065  0.00  0.00    -0.048 A 
ATOM     12  C   UNL     1       7.472   3.375  -0.050  0.00  0.00    +0.004 A 
ATOM     13  C   UNL     1       6.194   2.853  -0.041  0.00  0.00    +0.010 A 
ATOM     14  C   UNL     1       6.009   1.471  -0.047  0.00  0.00    +0.001 A 
ATOM     15  C   UNL     1       7.117   0.625  -0.056  0.00  0.00    +0.010 A 
ATOM     16  C   UNL     1       8.389   1.159  -0.070  0.00  0.00    +0.004 A 
BRANCH  11  18
ATOM     17  C   UNL     1      10.444   3.295   1.365  0.00  0.00    +0.009 C 
ATOM     18  C   UNL     1       9.959   3.107  -0.074  0.00  0.00    +0.032 C 
ENDBRANCH  11  18
ENDBRANCH   2  14
ENDBRANCH   1   8
BRANCH   1  19
ATOM     19  S   UNL     1      -2.689   0.750   0.019  0.00  0.00    -0.075 S 
BRANCH  19  20
ATOM     20  C   UNL     1      -4.064   1.851   0.031  0.00  0.00    +0.209 A 
ATOM     21  N   UNL     1      -4.014   3.163   0.038  0.00  0.00    -0.121 NA
ATOM     22  N   UNL     1      -5.205   3.646   0.046  0.00  0.00    -0.132 NA
ATOM     23  C   UNL     1      -6.079   2.680   0.046  0.00  0.00    +0.155 A 
ATOM     24  N   UNL     1      -5.384   1.502   0.030  0.00  0.00    -0.228 N 
BRANCH  24  25
ATOM     25  N   UNL     1      -5.903   0.238   0.019  0.00  0.00    -0.295 N 
ATOM     26  H   UNL     1      -6.039  -0.105   0.958  0.00  0.00    +0.163 HD
ATOM     27  H   UNL     1      -6.764   0.205  -0.506  0.00  0.00    +0.163 HD
ENDBRANCH  24  25
BRANCH  23  28
ATOM     28  C   UNL     1      -7.579   2.832   0.054  0.00  0.00    +0.116 C 
BRANCH  28  29
ATOM     29  C   UNL     1      -8.085   2.889  -1.364  0.00  0.00    -0.005 A 
ATOM     30  C   UNL     1      -8.632   1.763  -1.949  0.00  0.00    +0.007 A 
ATOM     31  C   UNL     1      -9.097   1.815  -3.249  0.00  0.00    +0.000 A 
ATOM     32  C   UNL     1      -9.017   2.995  -3.966  0.00  0.00    +0.003 A 
ATOM     33  C   UNL     1      -8.472   4.122  -3.383  0.00  0.00    +0.038 A 
ATOM     34  C   UNL     1      -8.009   4.072  -2.079  0.00  0.00    +0.127 A 
ATOM     35  F   UNL     1      -7.481   5.176  -1.506  0.00  0.00    -0.205 F 
ENDBRANCH  28  29
ENDBRANCH  23  28
ENDBRANCH  19  20
ENDBRANCH   1  19
TORSDOF 8
