REMARK  Name = ZINC10315674
REMARK  8 active torsions:
REMARK  status: ('A' for Active; 'I' for Inactive)
REMARK    1  A    between atoms: CG_7  and  CB_11
REMARK    2  A    between atoms: CB_11  and  CA_12
REMARK    3  A    between atoms: CA_12  and  C_14
REMARK    4  A    between atoms: CA_12  and  N_55
REMARK    5  A    between atoms: C_16  and  C_17
REMARK    6  A    between atoms: C_16  and  N_55
REMARK    7  A    between atoms: N_19  and  C_26
REMARK    8  A    between atoms: C_26  and  C_27
REMARK                            x       y       z     vdW  Elec       q    Type
REMARK                         _______ _______ _______ _____ _____    ______ ____
ROOT
ATOM      1  C   UNK A   0      -0.741   6.409   0.043  0.00  0.00    -0.044 C 
ENDROOT
BRANCH   1   2
ATOM      2  C   UNK A   0       0.245   5.269   0.029  0.00  0.00    -0.039 A 
ATOM      3  C   UNK A   0       1.583   5.371   0.017  0.00  0.00    +0.089 A 
ATOM      4  N   UNK A   0       2.147   4.124   0.004  0.00  0.00    -0.342 N 
ATOM      5  C   UNK A   0       1.159   3.165   0.008  0.00  0.00    +0.050 A 
ATOM      6  C   UNK A   0      -0.075   3.840   0.023  0.00  0.00    +0.001 A 
ATOM      7  C   UNK A   0      -1.267   3.112   0.031  0.00  0.00    +0.010 A 
ATOM      8  C   UNK A   0      -1.228   1.746   0.017  0.00  0.00    +0.001 A 
ATOM      9  C   UNK A   0      -0.013   1.076   0.008  0.00  0.00    +0.002 A 
ATOM     10  C   UNK A   0       1.175   1.774   0.000  0.00  0.00    +0.026 A 
BRANCH   4  11
ATOM     11  C   UNK A   0       3.586   3.851  -0.011  0.00  0.00    +0.158 C 
BRANCH  11  12
ATOM     12  C   UNK A   0       4.043   3.644  -1.432  0.00  0.00    -0.009 A 
ATOM     13  C   UNK A   0       4.135   2.365  -1.949  0.00  0.00    +0.008 A 
ATOM     14  C   UNK A   0       4.548   2.174  -3.253  0.00  0.00    +0.020 A 
ATOM     15  C   UNK A   0       4.882   3.263  -4.040  0.00  0.00    +0.042 A 
ATOM     16  C   UNK A   0       4.795   4.542  -3.522  0.00  0.00    +0.040 A 
ATOM     17  C   UNK A   0       4.376   4.733  -2.217  0.00  0.00    +0.047 A 
ATOM     18 CL   UNK A   0       4.267   6.338  -1.566  0.00  0.00    -0.083 Cl
ATOM     19 CL   UNK A   0       5.409   3.023  -5.676  0.00  0.00    -0.083 Cl
ENDBRANCH  11  12
ENDBRANCH   4  11
ENDBRANCH   1   2
BRANCH   1  20
ATOM     20  N   TRP A   1      -1.228   6.609   1.421  0.00  0.00    +0.391 N 
ATOM     21  H1  TRP A   1      -1.684   5.748   1.748  0.00  0.00    -0.084 HD
ATOM     22  H2  TRP A   1      -0.433   6.827   2.033  0.00  0.00    -0.084 HD
BRANCH  20  23
ATOM     23  CA  TRP A   1      -2.197   7.720   1.466  0.00  0.00    +0.048 C 
BRANCH  23  24
ATOM     24  C   TRP A   1      -3.570   7.205   1.121  0.00  0.00    +0.343 C 
ATOM     25  O   TRP A   1      -3.728   6.036   0.858  0.00  0.00    -0.248 OA
ATOM     26  OXT TRP A   1      -4.618   8.044   1.107  0.00  0.00    -0.248 OA
ENDBRANCH  23  24
BRANCH  23  27
ATOM     27  CB  TRP A   1      -2.214   8.315   2.876  0.00  0.00    +0.032 C 
BRANCH  27  34
ATOM     28  CZ3 TRP A   1      -0.371  12.530   1.976  0.00  0.00    +0.001 A 
ATOM     29  CH2 TRP A   1       0.927  12.664   2.450  0.00  0.00    +0.002 A 
ATOM     30  CZ2 TRP A   1       1.547  11.625   3.108  0.00  0.00    +0.026 A 
ATOM     31  CE2 TRP A   1       0.867  10.426   3.300  0.00  0.00    +0.047 A 
ATOM     32  CD2 TRP A   1      -0.448  10.294   2.818  0.00  0.00    +0.003 A 
ATOM     33  CE3 TRP A   1      -1.056  11.361   2.154  0.00  0.00    +0.010 A 
ATOM     34  CG  TRP A   1      -0.876   8.939   3.174  0.00  0.00    -0.023 A 
ATOM     35  CD1 TRP A   1       0.149   8.362   3.822  0.00  0.00    +0.087 A 
ATOM     36  NE1 TRP A   1       1.201   9.233   3.902  0.00  0.00    -0.360 N 
ATOM     37  HE1 TRP A   1       2.053   9.041   4.323  0.00  0.00    +0.165 HD
ENDBRANCH  27  34
ENDBRANCH  23  27
ENDBRANCH  20  23
ENDBRANCH   1  20
TORSDOF 8
