REMARK  Name = ZINC01694290
REMARK  12 active torsions:
REMARK  status: ('A' for Active; 'I' for Inactive)
REMARK    1  A    between atoms: C_1  and  N_2
REMARK    2  A    between atoms: N_2  and  C_3
REMARK    3  A    between atoms: N_2  and  N_22
REMARK    4  A    between atoms: C_3  and  C_4
REMARK    5  A    between atoms: C_3  and  N_11
REMARK    6  A    between atoms: C_9  and  O_10
REMARK    7  A    between atoms: N_11  and  C_12
REMARK    8  A    between atoms: N_11  and  N_13
REMARK    9  A    between atoms: C_14  and  C_15
REMARK   10  A    between atoms: C_20  and  O_21
REMARK   11  A    between atoms: C_23  and  C_24
REMARK   12  A    between atoms: C_29  and  O_30
REMARK                            x       y       z     vdW  Elec       q    Type
REMARK                         _______ _______ _______ _____ _____    ______ ____
ROOT
ATOM      1  C   UNL     1       3.425   7.500  -0.400  0.00  0.00    +0.228 C 
ENDROOT
BRANCH   1   2
ATOM      2  C   UNL     1       2.264   7.857  -1.293  0.00  0.00    +0.035 A 
ATOM      3  C   UNL     1       1.816   6.955  -2.239  0.00  0.00    +0.011 A 
ATOM      4  C   UNL     1       0.748   7.281  -3.054  0.00  0.00    +0.001 A 
ATOM      5  C   UNL     1       0.133   8.513  -2.933  0.00  0.00    +0.004 A 
ATOM      6  C   UNL     1       0.580   9.420  -1.992  0.00  0.00    +0.046 A 
ATOM      7  C   UNL     1       1.648   9.094  -1.169  0.00  0.00    +0.123 A 
BRANCH   7   8
ATOM      8  O   UNL     1       2.091   9.985  -0.242  0.00  0.00    -0.506 OA
ATOM      9  H   UNL     1       2.723  10.630  -0.588  0.00  0.00    +0.292 HD
ENDBRANCH   7   8
ENDBRANCH   1   2
BRANCH   1  11
ATOM     10  C   UNL     1       5.639   8.712  -0.142  0.00  0.00    +0.154 C 
ATOM     11  N   UNL     1       4.666   8.013  -0.985  0.00  0.00    -0.232 N 
BRANCH  11  12
ATOM     12  N   UNL     1       4.923   7.835  -2.351  0.00  0.00    -0.190 NA
ATOM     13  C   UNL     1       6.066   8.195  -2.848  0.00  0.00    +0.141 C 
BRANCH  13  14
ATOM     14  C   UNL     1       6.295   8.116  -4.303  0.00  0.00    +0.036 A 
ATOM     15  C   UNL     1       7.483   8.601  -4.854  0.00  0.00    +0.013 A 
ATOM     16  C   UNL     1       7.693   8.520  -6.215  0.00  0.00    +0.001 A 
ATOM     17  C   UNL     1       6.726   7.968  -7.038  0.00  0.00    +0.004 A 
ATOM     18  C   UNL     1       5.544   7.489  -6.505  0.00  0.00    +0.046 A 
ATOM     19  C   UNL     1       5.320   7.558  -5.140  0.00  0.00    +0.125 A 
BRANCH  19  20
ATOM     20  O   UNL     1       4.159   7.088  -4.615  0.00  0.00    -0.506 OA
ATOM     21  H   UNL     1       3.454   7.748  -4.564  0.00  0.00    +0.292 HD
ENDBRANCH  19  20
ENDBRANCH  13  14
ENDBRANCH  11  12
ENDBRANCH   1  11
BRANCH   1  22
ATOM     22  N   UNL     1       3.511   6.043  -0.272  0.00  0.00    -0.232 N 
ATOM     23  C   UNL     1       4.806   5.371  -0.405  0.00  0.00    +0.154 C 
BRANCH  22  24
ATOM     24  N   UNL     1       2.355   5.292  -0.020  0.00  0.00    -0.190 NA
ATOM     25  C   UNL     1       2.413   3.996  -0.011  0.00  0.00    +0.141 C 
BRANCH  25  26
ATOM     26  C   UNL     1       1.181   3.204   0.157  0.00  0.00    +0.036 A 
ATOM     27  C   UNL     1       1.222   1.812   0.060  0.00  0.00    +0.013 A 
ATOM     28  C   UNL     1       0.066   1.077   0.219  0.00  0.00    +0.001 A 
ATOM     29  C   UNL     1      -1.137   1.714   0.468  0.00  0.00    +0.004 A 
ATOM     30  C   UNL     1      -1.190   3.092   0.572  0.00  0.00    +0.046 A 
ATOM     31  C   UNL     1      -0.038   3.845   0.415  0.00  0.00    +0.125 A 
BRANCH  31  32
ATOM     32  O   UNL     1      -0.090   5.199   0.512  0.00  0.00    -0.506 OA
ATOM     33  H   UNL     1      -0.336   5.643  -0.311  0.00  0.00    +0.292 HD
ENDBRANCH  31  32
ENDBRANCH  25  26
ENDBRANCH  22  24
ENDBRANCH   1  22
TORSDOF 10
