REMARK  Name = ZINC02834870
REMARK  11 active torsions:
REMARK  status: ('A' for Active; 'I' for Inactive)
REMARK    1  A    between atoms: C_1  and  C_2
REMARK    2  A    between atoms: C_2  and  O_3
REMARK    3  A    between atoms: O_3  and  C_4
REMARK    4  A    between atoms: C_6  and  C_11
REMARK    5  A    between atoms: C_9  and  O_10
REMARK    6  A    between atoms: C_11  and  C_13
REMARK    7  A    between atoms: C_11  and  N_25
REMARK    8  A    between atoms: C_19  and  C_24
REMARK    9  A    between atoms: C_22  and  O_23
REMARK   10  A    between atoms: N_25  and  C_26
REMARK   11  A    between atoms: C_30  and  C_31
REMARK                            x       y       z     vdW  Elec       q    Type
REMARK                         _______ _______ _______ _____ _____    ______ ____
ROOT
ATOM      1  C   UNL     1      -0.422   2.823   5.881  0.00  0.00    +0.136 C 
ENDROOT
BRANCH   1   2
ATOM      2  C   UNL     1      -1.399   3.918   5.538  0.00  0.00    +0.021 A 
ATOM      3  C   UNL     1      -1.758   4.124   4.209  0.00  0.00    +0.010 A 
ATOM      4  C   UNL     1      -2.642   5.102   3.866  0.00  0.00    +0.010 A 
ATOM      5  C   UNL     1      -3.193   5.923   4.864  0.00  0.00    +0.004 A 
ATOM      6  C   UNL     1      -4.105   6.948   4.548  0.00  0.00    +0.012 A 
ATOM      7  C   UNL     1      -4.600   7.707   5.569  0.00  0.00    +0.023 A 
ATOM      8  C   UNL     1      -4.199   7.456   6.880  0.00  0.00    +0.039 A 
ATOM      9  N   UNL     1      -3.349   6.502   7.170  0.00  0.00    -0.248 NA
ATOM     10  C   UNL     1      -2.828   5.723   6.217  0.00  0.00    +0.113 A 
ATOM     11  C   UNL     1      -1.913   4.696   6.535  0.00  0.00    +0.148 A 
ATOM     12  C   UNL     1      -4.756   8.305   7.993  0.00  0.00    +0.065 C 
BRANCH  11  13
ATOM     13  O   UNL     1      -1.548   4.483   7.826  0.00  0.00    -0.504 OA
ATOM     14  H   UNL     1      -0.771   4.988   8.103  0.00  0.00    +0.292 HD
ENDBRANCH  11  13
ENDBRANCH   1   2
BRANCH   1  17
ATOM     15  C   UNL     1      -2.005   0.012   7.848  0.00  0.00    +0.162 A 
ATOM     16  C   UNL     1      -1.306   1.168   7.536  0.00  0.00    +0.055 A 
ATOM     17  C   UNL     1      -1.178   1.563   6.218  0.00  0.00    -0.019 A 
ATOM     18  C   UNL     1      -1.736   0.802   5.207  0.00  0.00    +0.009 A 
ATOM     19  C   UNL     1      -2.429  -0.354   5.511  0.00  0.00    +0.049 A 
ATOM     20  C   UNL     1      -2.566  -0.754   6.831  0.00  0.00    +0.158 A 
BRANCH  20  21
ATOM     21  O   UNL     1      -3.247  -1.892   7.131  0.00  0.00    -0.503 OA
ATOM     22  H   UNL     1      -2.696  -2.686   7.155  0.00  0.00    +0.292 HD
ENDBRANCH  20  21
BRANCH  15  23
ATOM     23  O   UNL     1      -2.137  -0.376   9.145  0.00  0.00    -0.489 OA
BRANCH  23  25
ATOM     24  C   UNL     1      -1.787  -0.133  11.524  0.00  0.00    +0.048 C 
ATOM     25  C   UNL     1      -1.535   0.460  10.136  0.00  0.00    +0.226 C 
ENDBRANCH  23  25
ENDBRANCH  15  23
ENDBRANCH   1  17
BRANCH   1  26
ATOM     26  N   UNL     1       0.455   2.574   4.734  0.00  0.00    -0.320 N 
ATOM     27  H   UNL     1       0.234   1.878   4.096  0.00  0.00    +0.148 HD
BRANCH  26  28
ATOM     28  C   UNL     1       1.605   3.335   4.561  0.00  0.00    +0.097 A 
ATOM     29  C   UNL     1       1.858   4.406   5.413  0.00  0.00    +0.041 A 
ATOM     30  C   UNL     1       3.006   5.155   5.229  0.00  0.00    +0.005 A 
ATOM     31  C   UNL     1       3.869   4.804   4.200  0.00  0.00    +0.021 A 
ATOM     32  C   UNL     1       3.553   3.732   3.389  0.00  0.00    +0.014 A 
ATOM     33  C   UNL     1       4.483   3.350   2.266  0.00  0.00    +0.063 C 
ATOM     34  N   UNL     1       2.434   2.974   3.540  0.00  0.00    -0.347 N 
ATOM     35  H   UNL     1       2.227   2.180   2.924  0.00  0.00    +0.167 HD
ENDBRANCH  26  28
ENDBRANCH   1  26
TORSDOF 8
