REMARK  Name = ZINC09137860
REMARK  8 active torsions:
REMARK  status: ('A' for Active; 'I' for Inactive)
REMARK    1  A    between atoms: C_1  and  C_2
REMARK    2  A    between atoms: C_7  and  N_8
REMARK    3  A    between atoms: C_11  and  C_16
REMARK    4  A    between atoms: C_16  and  S_17
REMARK    5  A    between atoms: S_17  and  C_18
REMARK    6  A    between atoms: C_21  and  C_30
REMARK    7  A    between atoms: N_22  and  C_23
REMARK    8  A    between atoms: C_23  and  C_24
REMARK                            x       y       z     vdW  Elec       q    Type
REMARK                         _______ _______ _______ _____ _____    ______ ____
ROOT
ATOM      1  C   UNL     1      -1.648  -2.697   3.165  0.00  0.00    +0.153 C 
ENDROOT
BRANCH   1   5
ATOM      2  N   UNL     1      -1.316  -7.316   1.909  0.00  0.00    -0.283 N 
ATOM      3  C   UNL     1      -0.711  -6.172   2.390  0.00  0.00    +0.224 A 
ATOM      4  N   UNL     1      -1.421  -5.056   2.544  0.00  0.00    -0.198 NA
ATOM      5  C   UNL     1      -0.842  -3.959   2.998  0.00  0.00    +0.146 A 
ATOM      6  N   UNL     1       0.442  -3.967   3.312  0.00  0.00    -0.199 NA
ATOM      7  C   UNL     1       1.158  -5.080   3.166  0.00  0.00    +0.217 A 
ATOM      8  N   UNL     1       0.580  -6.183   2.704  0.00  0.00    -0.181 NA
ATOM      9  N   UNL     1       2.499  -5.087   3.493  0.00  0.00    -0.327 N 
ATOM     10  H   UNL     1      -2.274  -7.333   1.761  0.00  0.00    +0.155 HD
ATOM     11  H   UNL     1       2.920  -4.280   3.829  0.00  0.00    +0.145 HD
ATOM     12  H   UNL     1       3.020  -5.898   3.386  0.00  0.00    +0.145 HD
BRANCH   2  19
ATOM     13  C   UNL     1      -2.602  -9.854   1.965  0.00  0.00    +0.045 C 
ATOM     14  C   UNL     1      -1.134  -9.710   1.653  0.00  0.00    -0.029 A 
ATOM     15  C   UNL     1      -0.372 -10.830   1.383  0.00  0.00    +0.005 A 
ATOM     16  C   UNL     1       0.974 -10.699   1.095  0.00  0.00    +0.000 A 
ATOM     17  C   UNL     1       1.562  -9.447   1.077  0.00  0.00    +0.002 A 
ATOM     18  C   UNL     1       0.805  -8.323   1.343  0.00  0.00    +0.023 A 
ATOM     19  C   UNL     1      -0.547  -8.452   1.637  0.00  0.00    +0.036 A 
ENDBRANCH   2  19
ENDBRANCH   1   5
BRANCH   1  20
ATOM     20  S   UNL     1      -1.579  -1.730   1.637  0.00  0.00    -0.078 S 
BRANCH  20  21
ATOM     21  C   UNL     1      -2.576  -0.353   2.101  0.00  0.00    +0.193 A 
ATOM     22  N   UNL     1      -3.161  -0.172   3.263  0.00  0.00    -0.122 NA
ATOM     23  N   UNL     1      -3.814   0.935   3.262  0.00  0.00    -0.125 NA
ATOM     24  C   UNL     1      -3.683   1.532   2.097  0.00  0.00    +0.201 A 
ATOM     25  N   UNL     1      -2.882   0.725   1.319  0.00  0.00    -0.295 N 
BRANCH  24  26
ATOM     26  C   UNL     1      -4.278   2.818   1.701  0.00  0.00    +0.172 A 
ATOM     27  C   UNL     1      -5.288   3.465   2.347  0.00  0.00    +0.053 A 
ATOM     28  C   UNL     1      -5.535   4.651   1.628  0.00  0.00    +0.042 A 
ATOM     29  C   UNL     1      -4.680   4.667   0.586  0.00  0.00    +0.196 A 
ATOM     30  O   UNL     1      -3.922   3.559   0.633  0.00  0.00    -0.460 OA
ENDBRANCH  24  26
BRANCH  25  31
ATOM     31  C   UNL     1      -2.453   0.970  -0.060  0.00  0.00    +0.161 C 
BRANCH  31  32
ATOM     32  C   UNL     1      -1.155   1.734  -0.055  0.00  0.00    -0.028 A 
ATOM     33  C   UNL     1       0.048   1.054  -0.046  0.00  0.00    +0.005 A 
ATOM     34  C   UNL     1       1.239   1.755  -0.047  0.00  0.00    +0.000 A 
ATOM     35  C   UNL     1       1.227   3.138  -0.051  0.00  0.00    +0.000 A 
ATOM     36  C   UNL     1       0.024   3.818  -0.054  0.00  0.00    +0.000 A 
ATOM     37  C   UNL     1      -1.167   3.117  -0.054  0.00  0.00    +0.005 A 
ENDBRANCH  31  32
ENDBRANCH  25  31
ENDBRANCH  20  21
ENDBRANCH   1  20
TORSDOF 7
