REMARK  Name = ZINC40986331
REMARK  10 active torsions:
REMARK  status: ('A' for Active; 'I' for Inactive)
REMARK    1  A    between atoms: C_1  and  C_2
REMARK    2  A    between atoms: C_2  and  C_3
REMARK    3  A    between atoms: C_6  and  C_9
REMARK    4  A    between atoms: C_9  and  C_11
REMARK    5  A    between atoms: C_9  and  N_32
REMARK    6  A    between atoms: C_11  and  N_12
REMARK    7  A    between atoms: C_13  and  C_15
REMARK    8  A    between atoms: C_18  and  S_22
REMARK    9  A    between atoms: S_22  and  C_25
REMARK   10  A    between atoms: C_25  and  C_26
REMARK                            x       y       z     vdW  Elec       q    Type
REMARK                         _______ _______ _______ _____ _____    ______ ____
ROOT
ATOM      1  N   UNL     1       3.908   0.234   4.951  0.00  0.00    -0.312 N 
ATOM      2  C   UNL     1       4.246   1.369   5.594  0.00  0.00    +0.248 C 
ATOM      3  O   UNL     1       3.722   1.646   6.655  0.00  0.00    -0.270 OA
ATOM      4  H   UNL     1       4.326   0.013   4.104  0.00  0.00    +0.149 HD
ENDROOT
BRANCH   2   5
ATOM      5  C   UNL     1       5.254   2.277   5.009  0.00  0.00    +0.092 A 
ATOM      6  C   UNL     1       5.866   1.981   3.786  0.00  0.00    +0.130 A 
ATOM      7  N   UNL     1       6.762   2.821   3.299  0.00  0.00    -0.219 NA
ATOM      8  C   UNL     1       7.082   3.924   3.947  0.00  0.00    +0.272 A 
ATOM      9  N   UNL     1       6.532   4.244   5.102  0.00  0.00    -0.199 NA
ATOM     10  C   UNL     1       5.621   3.463   5.660  0.00  0.00    +0.146 A 
ATOM     11 CL   UNL     1       4.898   3.896   7.177  0.00  0.00    -0.061 Cl
BRANCH   8  12
ATOM     12  S   UNL     1       8.285   5.006   3.248  0.00  0.00    +0.036 S 
ATOM     13  O   UNL     1       8.845   5.692   4.359  0.00  0.00    -0.166 OA
ATOM     14  O   UNL     1       9.092   4.170   2.430  0.00  0.00    -0.166 OA
BRANCH  12  15
ATOM     15  C   UNL     1       7.334   6.157   2.218  0.00  0.00    +0.210 C 
BRANCH  15  16
ATOM     16  C   UNL     1       8.272   7.139   1.564  0.00  0.00    -0.026 A 
ATOM     17  C   UNL     1       8.586   8.324   2.202  0.00  0.00    +0.005 A 
ATOM     18  C   UNL     1       9.447   9.224   1.602  0.00  0.00    +0.000 A 
ATOM     19  C   UNL     1       9.993   8.939   0.364  0.00  0.00    +0.000 A 
ATOM     20  C   UNL     1       9.679   7.753  -0.273  0.00  0.00    +0.000 A 
ATOM     21  C   UNL     1       8.822   6.851   0.329  0.00  0.00    +0.005 A 
ENDBRANCH  15  16
ENDBRANCH  12  15
ENDBRANCH   8  12
ENDBRANCH   2   5
BRANCH   1  22
ATOM     22  C   UNL     1       2.908  -0.666   5.531  0.00  0.00    +0.094 C 
BRANCH  22  23
ATOM     23  C   UNL     1       2.614  -1.802   4.549  0.00  0.00    -0.020 C 
BRANCH  23  27
ATOM     24  C   UNL     1       0.765  -0.213   1.042  0.00  0.00    -0.048 A 
ATOM     25  C   UNL     1       2.115  -0.510   1.037  0.00  0.00    +0.004 A 
ATOM     26  C   UNL     1       2.713  -1.024   2.172  0.00  0.00    +0.002 A 
ATOM     27  C   UNL     1       1.962  -1.241   3.312  0.00  0.00    -0.059 A 
ATOM     28  C   UNL     1       0.612  -0.943   3.317  0.00  0.00    +0.002 A 
ATOM     29  C   UNL     1       0.015  -0.425   2.183  0.00  0.00    +0.004 A 
BRANCH  24  31
ATOM     30  C   UNL     1       0.194   1.875  -0.168  0.00  0.00    +0.009 C 
ATOM     31  C   UNL     1       0.112   0.347  -0.196  0.00  0.00    +0.032 C 
ENDBRANCH  24  31
ENDBRANCH  23  27
BRANCH  23  32
ATOM     32  N   UNL     1       1.712  -2.774   5.181  0.00  0.00    +0.385 N 
ATOM     33  C   UNL     1       1.427  -3.892   4.245  0.00  0.00    -0.078 C 
ATOM     34  C   UNL     1       0.980  -5.038   5.188  0.00  0.00    -0.020 C 
ATOM     35  C   UNL     1       1.904  -4.856   6.414  0.00  0.00    -0.020 C 
ATOM     36  C   UNL     1       2.366  -3.388   6.356  0.00  0.00    -0.078 C 
ATOM     37  H   UNL     1       0.852  -2.322   5.457  0.00  0.00    -0.081 HD
ENDBRANCH  23  32
ENDBRANCH  22  23
ENDBRANCH   1  22
TORSDOF 9
