REMARK  Name = ZINC52909847
REMARK  12 active torsions:
REMARK  status: ('A' for Active; 'I' for Inactive)
REMARK    1  A    between atoms: C_1  and  C_2
REMARK    2  A    between atoms: C_7  and  C_8
REMARK    3  A    between atoms: C_8  and  N_9
REMARK    4  A    between atoms: C_10  and  C_12
REMARK    5  A    between atoms: C_12  and  C_14
REMARK    6  A    between atoms: C_12  and  N_15
REMARK    7  A    between atoms: C_18  and  N_21
REMARK    8  A    between atoms: C_22  and  O_24
REMARK    9  A    between atoms: O_24  and  C_25
REMARK   10  A    between atoms: C_25  and  C_26
REMARK   11  A    between atoms: C_25  and  C_27
REMARK   12  A    between atoms: C_25  and  C_28
REMARK                            x       y       z     vdW  Elec       q    Type
REMARK                         _______ _______ _______ _____ _____    ______ ____
ROOT
ATOM      1  N   UNL     1      -3.000   2.233   5.613  0.00  0.00    +0.387 N 
ATOM      2  C   UNL     1      -2.191   3.458   5.591  0.00  0.00    -0.076 C 
ATOM      3  C   UNL     1      -2.140   4.066   6.994  0.00  0.00    +0.004 C 
ATOM      4  C   UNL     1      -3.563   4.400   7.451  0.00  0.00    +0.073 C 
ATOM      5  C   UNL     1      -4.417   3.130   7.399  0.00  0.00    +0.004 C 
ATOM      6  C   UNL     1      -4.383   2.557   5.981  0.00  0.00    -0.076 C 
ATOM      7  H   UNL     1      -2.615   1.590   6.289  0.00  0.00    -0.081 HD
ENDROOT
BRANCH   4   8
ATOM      8  N   UNL     1      -3.529   4.912   8.823  0.00  0.00    -0.278 N 
ATOM      9  C   UNL     1      -4.513   5.721   9.265  0.00  0.00    +0.401 C 
ATOM     10  O   UNL     1      -5.428   6.025   8.525  0.00  0.00    -0.226 OA
ATOM     11  H   UNL     1      -2.799   4.670   9.414  0.00  0.00    +0.152 HD
BRANCH   9  12
ATOM     12  O   UNL     1      -4.481   6.192  10.526  0.00  0.00    -0.445 OA
BRANCH  12  13
ATOM     13  C   UNL     1      -5.556   7.044  10.927  0.00  0.00    +0.107 C 
ATOM     14  C   UNL     1      -6.880   6.287  10.804  0.00  0.00    +0.055 C 
ATOM     15  C   UNL     1      -5.349   7.476  12.380  0.00  0.00    +0.055 C 
ATOM     16  C   UNL     1      -5.590   8.281  10.027  0.00  0.00    +0.055 C 
ENDBRANCH  12  13
ENDBRANCH   9  12
ENDBRANCH   4   8
BRANCH   1  17
ATOM     17  C   UNL     1      -2.982   1.611   4.282  0.00  0.00    +0.016 C 
ATOM     18  C   UNL     1      -3.864   0.361   4.291  0.00  0.00    -0.004 C 
BRANCH  17  20
ATOM     19  N   UNL     1      -1.192   1.161   2.635  0.00  0.00    -0.313 N 
ATOM     20  C   UNL     1      -1.568   1.226   3.927  0.00  0.00    +0.199 C 
ATOM     21  O   UNL     1      -0.769   0.975   4.805  0.00  0.00    -0.278 OA
ATOM     22  H   UNL     1      -1.831   1.361   1.933  0.00  0.00    +0.149 HD
BRANCH  19  23
ATOM     23  C   UNL     1       0.181   0.786   2.290  0.00  0.00    +0.139 C 
BRANCH  23  30
ATOM     24  C   UNL     1       0.583   3.277   0.882  0.00  0.00    +0.044 C 
ATOM     25  C   UNL     1       0.533   1.980   0.118  0.00  0.00    -0.046 A 
ATOM     26  C   UNL     1       0.685   1.980  -1.256  0.00  0.00    +0.003 A 
ATOM     27  C   UNL     1       0.640   0.790  -1.957  0.00  0.00    +0.000 A 
ATOM     28  C   UNL     1       0.442  -0.402  -1.284  0.00  0.00    +0.000 A 
ATOM     29  C   UNL     1       0.291  -0.402   0.089  0.00  0.00    +0.005 A 
ATOM     30  C   UNL     1       0.341   0.788   0.791  0.00  0.00    -0.027 A 
ENDBRANCH  23  30
ENDBRANCH  19  23
ENDBRANCH  17  20
ENDBRANCH   1  17
TORSDOF 7
