REMARK  Name = ZINC39564783
REMARK  11 active torsions:
REMARK  status: ('A' for Active; 'I' for Inactive)
REMARK    1  A    between atoms: C_1  and  C_2
REMARK    2  A    between atoms: C_2  and  C_3
REMARK    3  A    between atoms: C_2  and  C_4
REMARK    4  A    between atoms: C_4  and  C_6
REMARK    5  A    between atoms: C_4  and  N_24
REMARK    6  A    between atoms: C_6  and  O_8
REMARK    7  A    between atoms: O_8  and  C_9
REMARK    8  A    between atoms: C_9  and  C_11
REMARK    9  A    between atoms: C_9  and  C_17
REMARK   10  A    between atoms: N_22  and  C_23
REMARK   11  A    between atoms: C_25  and  C_27
REMARK                            x       y       z     vdW  Elec       q    Type
REMARK                         _______ _______ _______ _____ _____    ______ ____
ROOT
ATOM      1  C   UNL     1      -2.125  -0.137  -1.266  0.00  0.00    +0.329 C 
ATOM      2  O   UNL     1      -3.118   0.549  -1.228  0.00  0.00    -0.249 OA
ENDROOT
BRANCH   1   3
ATOM      3  C   UNL     1      -1.433  -0.534   0.013  0.00  0.00    +0.185 C 
BRANCH   3   4
ATOM      4  N   UNL     1      -2.155   0.035   1.154  0.00  0.00    -0.298 N 
ATOM      5  C   UNL     1      -2.067  -0.550   2.366  0.00  0.00    +0.245 C 
ATOM      6  O   UNL     1      -1.389  -1.549   2.511  0.00  0.00    -0.270 OA
ATOM      7  H   UNL     1      -2.696   0.831   1.038  0.00  0.00    +0.150 HD
BRANCH   5   8
ATOM      8  C   UNL     1      -2.795   0.023   3.517  0.00  0.00    +0.037 A 
ATOM      9  C   UNL     1      -3.579   1.167   3.352  0.00  0.00    +0.014 A 
ATOM     10  C   UNL     1      -4.256   1.696   4.430  0.00  0.00    +0.021 A 
ATOM     11  C   UNL     1      -4.159   1.097   5.675  0.00  0.00    +0.041 A 
ATOM     12  C   UNL     1      -3.383  -0.038   5.845  0.00  0.00    +0.021 A 
ATOM     13  C   UNL     1      -2.706  -0.580   4.773  0.00  0.00    +0.014 A 
ATOM     14 CL   UNL     1      -5.014   1.770   7.027  0.00  0.00    -0.084 Cl
ENDBRANCH   5   8
ENDBRANCH   3   4
BRANCH   3  16
ATOM     15  C   UNL     1      -0.019   1.526   0.010  0.00  0.00    +0.009 C 
ATOM     16  C   UNL     1       0.002  -0.004   0.002  0.00  0.00    +0.014 C 
ATOM     17  C   UNL     1       0.742  -0.511   1.242  0.00  0.00    +0.009 C 
ENDBRANCH   3  16
ENDBRANCH   1   3
BRANCH   1  18
ATOM     18  O   UNL     1      -1.637  -0.547  -2.448  0.00  0.00    -0.446 OA
BRANCH  18  19
ATOM     19  C   UNL     1      -2.343  -0.134  -3.619  0.00  0.00    +0.292 C 
BRANCH  19  20
ATOM     20  C   UNL     1      -2.182  -1.176  -4.696  0.00  0.00    +0.266 C 
ATOM     21  O   UNL     1      -1.527  -2.173  -4.481  0.00  0.00    -0.271 OA
ATOM     22  N   UNL     1      -2.765  -0.999  -5.898  0.00  0.00    -0.237 N 
ATOM     23  C   UNL     1      -2.621  -1.930  -6.861  0.00  0.00    +0.306 C 
ATOM     24  O   UNL     1      -1.965  -2.930  -6.646  0.00  0.00    -0.252 OA
ATOM     25  N   UNL     1      -3.205  -1.753  -8.063  0.00  0.00    -0.302 N 
ATOM     26  C   UNL     1      -3.048  -2.766  -9.110  0.00  0.00    +0.129 C 
ATOM     27  H   UNL     1      -3.289  -0.200  -6.070  0.00  0.00    +0.159 HD
ATOM     28  H   UNL     1      -3.728  -0.955  -8.235  0.00  0.00    +0.150 HD
ENDBRANCH  19  20
BRANCH  19  29
ATOM     29  C   UNL     1      -1.786   1.180  -4.104  0.00  0.00    +0.002 A 
ATOM     30  C   UNL     1      -0.422   1.405  -4.077  0.00  0.00    +0.008 A 
ATOM     31  C   UNL     1       0.088   2.610  -4.522  0.00  0.00    +0.000 A 
ATOM     32  C   UNL     1      -0.765   3.590  -4.994  0.00  0.00    +0.000 A 
ATOM     33  C   UNL     1      -2.128   3.365  -5.022  0.00  0.00    +0.000 A 
ATOM     34  C   UNL     1      -2.639   2.158  -4.581  0.00  0.00    +0.008 A 
ENDBRANCH  19  29
ENDBRANCH  18  19
ENDBRANCH   1  18
TORSDOF 8
