REMARK  Name = ZINC09882545
REMARK  8 active torsions:
REMARK  status: ('A' for Active; 'I' for Inactive)
REMARK    1  A    between atoms: C_1  and  C_2
REMARK    2  A    between atoms: C_2  and  C_3
REMARK    3  A    between atoms: C_3  and  C_33
REMARK    4  A    between atoms: N_6  and  C_10
REMARK    5  A    between atoms: C_10  and  C_11
REMARK    6  A    between atoms: C_18  and  C_19
REMARK    7  A    between atoms: C_18  and  C_26
REMARK    8  A    between atoms: C_18  and  N_62
REMARK                            x       y       z     vdW  Elec       q    Type
REMARK                         _______ _______ _______ _____ _____    ______ ____
ROOT
ATOM      1  C   UNL     1       5.741   6.247  -1.134  0.00  0.00    +0.233 C 
ATOM      2  O   UNL     1       5.669   7.440  -1.338  0.00  0.00    -0.274 OA
ATOM      3  N   UNL     1       4.661   5.464  -1.324  0.00  0.00    -0.304 N 
ATOM      4  C   UNL     1       3.384   6.037  -1.779  0.00  0.00    +0.089 C 
ATOM      5  C   UNL     1       2.275   5.563  -0.834  0.00  0.00    -0.058 C 
ATOM      6  C   UNL     1       3.564   3.621  -0.165  0.00  0.00    -0.058 C 
ATOM      7  C   UNL     1       4.726   4.015  -1.082  0.00  0.00    +0.089 C 
ATOM      8  N   UNL     1       2.299   4.085  -0.776  0.00  0.00    +0.389 N 
ATOM      9  H   UNL     1       2.234   3.714  -1.731  0.00  0.00    -0.080 HD
ENDROOT
BRANCH   1  10
ATOM     10  C   UNL     1       7.039   5.640  -0.667  0.00  0.00    +0.213 C 
BRANCH  10  14
ATOM     11  C   UNL     1       9.742   8.171  -0.947  0.00  0.00    +0.110 C 
ATOM     12  C   UNL     1       8.883   7.067  -1.530  0.00  0.00    +0.247 C 
ATOM     13  O   UNL     1       8.932   6.617  -2.655  0.00  0.00    -0.273 OA
ATOM     14  N   UNL     1       8.052   6.691  -0.538  0.00  0.00    -0.215 N 
ATOM     15  C   UNL     1       8.269   7.391   0.581  0.00  0.00    +0.310 C 
ATOM     16  O   UNL     1       7.646   7.229   1.611  0.00  0.00    -0.252 OA
ATOM     17  N   UNL     1       9.255   8.296   0.437  0.00  0.00    -0.285 N 
ATOM     18  C   UNL     1      11.217   7.765  -0.964  0.00  0.00    +0.041 C 
ATOM     19  H   UNL     1       9.581   8.910   1.113  0.00  0.00    +0.151 HD
BRANCH  11  21
ATOM     20  C   UNL     1      10.338  10.596  -1.033  0.00  0.00    +0.006 C 
ATOM     21  C   UNL     1       9.538   9.482  -1.710  0.00  0.00    +0.031 C 
ENDBRANCH  11  21
ENDBRANCH  10  14
ENDBRANCH   1  10
BRANCH   8  22
ATOM     22  C   UNL     1       1.149   3.593   0.010  0.00  0.00    -0.007 C 
BRANCH  22  23
ATOM     23  C   UNL     1      -0.126   4.067  -0.640  0.00  0.00    -0.057 A 
ATOM     24  C   UNL     1      -1.145   4.585   0.137  0.00  0.00    +0.005 A 
ATOM     25  C   UNL     1      -2.314   5.021  -0.458  0.00  0.00    +0.038 A 
ATOM     26  C   UNL     1      -2.464   4.938  -1.832  0.00  0.00    +0.123 A 
ATOM     27  C   UNL     1      -1.442   4.418  -2.609  0.00  0.00    +0.038 A 
ATOM     28  C   UNL     1      -0.274   3.983  -2.012  0.00  0.00    +0.005 A 
ATOM     29  F   UNL     1      -3.606   5.363  -2.414  0.00  0.00    -0.205 F 
ENDBRANCH  22  23
BRANCH  22  30
ATOM     30  C   UNL     1       1.176   2.086   0.022  0.00  0.00    -0.057 A 
ATOM     31  C   UNL     1       1.452   1.391  -1.141  0.00  0.00    +0.005 A 
ATOM     32  C   UNL     1       1.483   0.009  -1.129  0.00  0.00    +0.038 A 
ATOM     33  C   UNL     1       1.226  -0.679   0.044  0.00  0.00    +0.123 A 
ATOM     34  C   UNL     1       0.944   0.018   1.207  0.00  0.00    +0.038 A 
ATOM     35  C   UNL     1       0.919   1.400   1.194  0.00  0.00    +0.005 A 
ATOM     36  F   UNL     1       1.251  -2.030   0.055  0.00  0.00    -0.205 F 
ENDBRANCH  22  30
ENDBRANCH   8  22
TORSDOF 6
