REMARK  Name = ZINC00797200
REMARK  3 active torsions:
REMARK  status: ('A' for Active; 'I' for Inactive)
REMARK    1  A    between atoms: C_4  and  C_7
REMARK    2  A    between atoms: C_10  and  C_24
REMARK    3  A    between atoms: C_28  and  N_30
REMARK                            x       y       z     vdW  Elec       q    Type
REMARK                         _______ _______ _______ _____ _____    ______ ____
ROOT
ATOM      1  C   UNL     1       5.601   0.770  -1.255  0.00  0.00    +0.172 C 
ATOM      2  C   UNL     1       4.676   0.746  -0.028  0.00  0.00    +0.136 C 
ATOM      3  C   UNL     1       5.624   0.755   1.184  0.00  0.00    +0.091 C 
ATOM      4  C   UNL     1       7.024   0.788   0.545  0.00  0.00    +0.202 C 
ATOM      5  O   UNL     1       6.842   1.337  -0.770  0.00  0.00    -0.348 OA
ATOM      6  C   UNL     1       7.618  -0.590   0.483  0.00  0.00    +0.204 C 
ATOM      7  O   UNL     1       7.154  -1.552  -0.091  0.00  0.00    -0.288 OA
ATOM      8  C   UNL     1       8.876  -0.551   1.254  0.00  0.00    +0.031 A 
ATOM      9  C   UNL     1       9.815  -1.551   1.518  0.00  0.00    +0.012 A 
ATOM     10  C   UNL     1      10.932  -1.269   2.280  0.00  0.00    +0.001 A 
ATOM     11  C   UNL     1      11.131   0.003   2.787  0.00  0.00    +0.001 A 
ATOM     12  C   UNL     1      10.216   1.008   2.537  0.00  0.00    +0.012 A 
ATOM     13  C   UNL     1       9.080   0.744   1.769  0.00  0.00    +0.031 A 
ATOM     14  C   UNL     1       7.967   1.625   1.362  0.00  0.00    +0.204 C 
ATOM     15  O   UNL     1       7.839   2.799   1.635  0.00  0.00    -0.288 OA
ATOM     16  C   UNL     1       3.758   1.933  -0.010  0.00  0.00    +0.181 C 
ATOM     17  O   UNL     1       4.086   3.100  -0.011  0.00  0.00    -0.291 OA
ATOM     18  C   UNL     1       2.378   1.408   0.009  0.00  0.00    +0.029 A 
ATOM     19  C   UNL     1       1.150   2.072   0.032  0.00  0.00    +0.012 A 
ATOM     20  C   UNL     1      -0.028   1.351   0.048  0.00  0.00    +0.001 A 
ATOM     21  C   UNL     1      -0.002  -0.033   0.043  0.00  0.00    +0.001 A 
ATOM     22  C   UNL     1       1.202  -0.710   0.019  0.00  0.00    +0.012 A 
ATOM     23  C   UNL     1       2.404  -0.001   0.002  0.00  0.00    +0.029 A 
ATOM     24  C   UNL     1       3.802  -0.475  -0.025  0.00  0.00    +0.181 C 
ATOM     25  O   UNL     1       4.173  -1.629  -0.041  0.00  0.00    -0.291 OA
ENDROOT
BRANCH   1  29
ATOM     26  C   UNL     1       3.938   3.236  -4.321  0.00  0.00    +0.000 A 
ATOM     27  C   UNL     1       3.718   1.871  -4.336  0.00  0.00    +0.000 A 
ATOM     28  C   UNL     1       4.256   1.073  -3.344  0.00  0.00    +0.006 A 
ATOM     29  C   UNL     1       5.014   1.640  -2.337  0.00  0.00    -0.017 A 
ATOM     30  C   UNL     1       5.231   3.005  -2.319  0.00  0.00    +0.006 A 
ATOM     31  C   UNL     1       4.697   3.803  -3.314  0.00  0.00    +0.000 A 
ENDBRANCH   1  29
BRANCH   3  32
ATOM     32  C   UNL     1       5.393   1.981   2.029  0.00  0.00    -0.037 A 
ATOM     33  C   UNL     1       5.679   3.234   1.521  0.00  0.00    +0.004 A 
ATOM     34  C   UNL     1       5.463   4.359   2.294  0.00  0.00    +0.002 A 
ATOM     35  C   UNL     1       4.970   4.230   3.579  0.00  0.00    +0.033 A 
ATOM     36  C   UNL     1       4.689   2.977   4.089  0.00  0.00    +0.126 A 
ATOM     37  C   UNL     1       4.900   1.852   3.314  0.00  0.00    +0.036 A 
BRANCH  36  38
ATOM     38  N   UNL     1       4.162   2.839   5.465  0.00  0.00    +0.056 N 
ATOM     39  O   UNL     1       3.914   1.734   5.915  0.00  0.00    -0.126 OA
ATOM     40  O   UNL     1       3.975   3.830   6.149  0.00  0.00    -0.126 OA
ENDBRANCH  36  38
ENDBRANCH   3  32
TORSDOF 3
