REMARK  Name = ZINC09042810
REMARK  4 active torsions:
REMARK  status: ('A' for Active; 'I' for Inactive)
REMARK    1  A    between atoms: C_1  and  C_2
REMARK    2  A    between atoms: C_2  and  C_3
REMARK    3  A    between atoms: C_23  and  C_30
REMARK    4  A    between atoms: C_30  and  C_32
REMARK                            x       y       z     vdW  Elec       q    Type
REMARK                         _______ _______ _______ _____ _____    ______ ____
ROOT
ATOM      1  C   UNL     1      -1.286   1.757   0.052  0.00  0.00    -0.026 A 
ATOM      2  C   UNL     1      -0.089   1.071   0.052  0.00  0.00    +0.005 A 
ATOM      3  C   UNL     1       1.105   1.766   0.046  0.00  0.00    +0.001 A 
ATOM      4  C   UNL     1       1.098   3.150   0.047  0.00  0.00    +0.004 A 
ATOM      5  C   UNL     1      -0.089   3.847   0.058  0.00  0.00    -0.026 A 
ATOM      6  C   UNL     1      -1.298   3.149   0.051  0.00  0.00    +0.039 A 
ATOM      7  N   UNL     1      -2.370   4.043   0.029  0.00  0.00    -0.286 N 
ATOM      8  C   UNL     1      -1.958   5.317  -0.075  0.00  0.00    +0.212 C 
ATOM      9  O   UNL     1      -2.654   6.288  -0.280  0.00  0.00    -0.277 OA
ATOM     10  C   UNL     1      -0.451   5.303   0.077  0.00  0.00    +0.060 C 
ATOM     11  C   UNL     1      -0.045   6.010   1.369  0.00  0.00    +0.085 C 
ATOM     12  C   UNL     1       0.728   5.135   2.313  0.00  0.00    -0.011 A 
ATOM     13  C   UNL     1       1.969   4.539   2.267  0.00  0.00    +0.006 A 
ATOM     14  C   UNL     1       2.399   3.739   3.311  0.00  0.00    +0.000 A 
ATOM     15  C   UNL     1       1.594   3.563   4.421  0.00  0.00    +0.002 A 
ATOM     16  C   UNL     1       0.372   4.197   4.497  0.00  0.00    +0.023 A 
ATOM     17  C   UNL     1      -0.065   5.006   3.451  0.00  0.00    +0.038 A 
ATOM     18  N   UNL     1      -1.229   5.764   3.314  0.00  0.00    -0.285 N 
ATOM     19  C   UNL     1      -1.255   6.445   2.151  0.00  0.00    +0.228 C 
ATOM     20  O   UNL     1      -2.106   7.244   1.821  0.00  0.00    -0.275 OA
ATOM     21  C   UNL     1       0.806   7.213   0.920  0.00  0.00    +0.066 C 
ATOM     22  C   UNL     1       0.302   7.454  -0.526  0.00  0.00    -0.055 C 
ATOM     23  C   UNL     1       1.535   5.623  -1.315  0.00  0.00    -0.076 C 
ATOM     24  C   UNL     1       2.182   6.858  -1.984  0.00  0.00    -0.020 C 
ATOM     25  C   UNL     1       1.439   8.060  -1.366  0.00  0.00    -0.016 C 
ATOM     26  H   UNL     1      -3.303   3.780   0.074  0.00  0.00    +0.155 HD
ATOM     27  H   UNL     1      -1.936   5.798   3.977  0.00  0.00    +0.155 HD
ATOM     28  N   UNL     1       0.175   6.100  -1.009  0.00  0.00    +0.395 N 
ATOM     29  H   UNL     1      -0.409   6.063  -1.853  0.00  0.00    -0.079 HD
ENDROOT
BRANCH   1  31
ATOM     30  C   UNL     1      -3.087   0.840  -1.384  0.00  0.00    +0.009 C 
ATOM     31  C   UNL     1      -2.584   0.991   0.053  0.00  0.00    +0.033 C 
ENDBRANCH   1  31
BRANCH  21  32
ATOM     32  C   UNL     1       0.576   8.417   1.791  0.00  0.00    +0.166 C 
ATOM     33  O   UNL     1      -0.308   9.202   1.519  0.00  0.00    -0.292 OA
BRANCH  32  34
ATOM     34  C   UNL     1       1.424   8.644   2.972  0.00  0.00    +0.018 A 
ATOM     35  C   UNL     1       2.514   7.806   3.226  0.00  0.00    +0.011 A 
ATOM     36  C   UNL     1       3.308   8.029   4.332  0.00  0.00    +0.001 A 
ATOM     37  C   UNL     1       3.019   9.071   5.196  0.00  0.00    +0.000 A 
ATOM     38  C   UNL     1       1.938   9.901   4.955  0.00  0.00    +0.001 A 
ATOM     39  C   UNL     1       1.139   9.695   3.850  0.00  0.00    +0.011 A 
ENDBRANCH  32  34
ENDBRANCH  21  32
TORSDOF 3
