REMARK  Name = ZINC15631796
REMARK  6 active torsions:
REMARK  status: ('A' for Active; 'I' for Inactive)
REMARK    1  A    between atoms: C_4  and  N_24
REMARK    2  A    between atoms: C_5  and  N_7
REMARK    3  A    between atoms: N_7  and  N_8
REMARK    4  A    between atoms: C_9  and  C_11
REMARK    5  A    between atoms: C_11  and  C_12
REMARK    6  A    between atoms: C_15  and  C_17
REMARK                            x       y       z     vdW  Elec       q    Type
REMARK                         _______ _______ _______ _____ _____    ______ ____
ROOT
ATOM      1  N   UNL     1      -3.584  -0.754   0.454  0.00  0.00    -0.236 N 
ATOM      2  C   UNL     1      -4.756  -0.099   0.572  0.00  0.00    +0.235 C 
ATOM      3  O   UNL     1      -4.785   1.111   0.489  0.00  0.00    -0.274 OA
ATOM      4  H   UNL     1      -3.560  -1.721   0.521  0.00  0.00    +0.173 HD
ENDROOT
BRANCH   1   5
ATOM      5  N   UNL     1      -2.400  -0.037   0.236  0.00  0.00    -0.262 N 
ATOM      6  H   UNL     1      -2.423   0.930   0.170  0.00  0.00    +0.170 HD
BRANCH   5  11
ATOM      7  C   UNL     1       0.040  -2.773  -0.025  0.00  0.00    +0.002 A 
ATOM      8  C   UNL     1       1.221  -2.061  -0.126  0.00  0.00    +0.002 A 
ATOM      9  C   UNL     1       1.202  -0.679  -0.112  0.00  0.00    +0.034 A 
ATOM     10  C   UNL     1       0.003  -0.004   0.013  0.00  0.00    +0.148 A 
ATOM     11  C   UNL     1      -1.185  -0.716   0.114  0.00  0.00    +0.075 A 
ATOM     12  C   UNL     1      -1.163  -2.105   0.095  0.00  0.00    +0.027 A 
BRANCH  10  13
ATOM     13  N   UNL     1      -0.016   1.476   0.033  0.00  0.00    +0.058 N 
ATOM     14  O   UNL     1       1.031   2.098   0.047  0.00  0.00    -0.126 OA
ATOM     15  O   UNL     1      -1.078   2.071   0.030  0.00  0.00    -0.126 OA
ENDBRANCH  10  13
ENDBRANCH   5  11
ENDBRANCH   1   5
BRANCH   2  16
ATOM     16  C   UNL     1      -6.029  -0.869   0.806  0.00  0.00    +0.153 C 
BRANCH  16  17
ATOM     17  C   UNL     1      -7.187   0.091   0.900  0.00  0.00    +0.058 A 
ATOM     18  C   UNL     1      -8.264  -0.059   0.083  0.00  0.00    +0.071 A 
ATOM     19  S   UNL     1      -9.281   1.310   0.623  0.00  0.00    -0.075 S 
ATOM     20  C   UNL     1      -8.161   1.935   1.869  0.00  0.00    +0.109 A 
ATOM     21  N   UNL     1      -7.156   1.076   1.766  0.00  0.00    -0.243 NA
BRANCH  20  22
ATOM     22  C   UNL     1      -8.313   3.097   2.770  0.00  0.00    +0.010 A 
ATOM     23  C   UNL     1      -7.307   3.412   3.684  0.00  0.00    +0.011 A 
ATOM     24  C   UNL     1      -7.452   4.500   4.519  0.00  0.00    +0.003 A 
ATOM     25  C   UNL     1      -8.597   5.274   4.460  0.00  0.00    +0.038 A 
ATOM     26  C   UNL     1      -9.603   4.965   3.559  0.00  0.00    +0.124 A 
ATOM     27  C   UNL     1      -9.467   3.880   2.713  0.00  0.00    +0.049 A 
ATOM     28  F   UNL     1     -10.719   5.725   3.506  0.00  0.00    -0.205 F 
ENDBRANCH  20  22
ENDBRANCH  16  17
ENDBRANCH   2  16
TORSDOF 6
