REMARK  Name = ZINC06757184
REMARK  4 active torsions:
REMARK  status: ('A' for Active; 'I' for Inactive)
REMARK    1  A    between atoms: C_1  and  C_2
REMARK    2  A    between atoms: C_2  and  C_3
REMARK    3  A    between atoms: C_3  and  C_4
REMARK    4  A    between atoms: C_4  and  N_5
REMARK                            x       y       z     vdW  Elec       q    Type
REMARK                         _______ _______ _______ _____ _____    ______ ____
ROOT
ATOM      1  N   UNL     1      -0.020   1.094   2.454  0.00  0.00    -0.307 N 
ATOM      2  C   UNL     1      -0.382  -0.120   3.002  0.00  0.00    +0.056 A 
ATOM      3  C   UNL     1      -1.402  -0.872   2.424  0.00  0.00    +0.026 A 
ATOM      4  C   UNL     1      -1.757  -2.086   2.970  0.00  0.00    +0.002 A 
ATOM      5  C   UNL     1      -1.105  -2.573   4.094  0.00  0.00    +0.001 A 
ATOM      6  C   UNL     1      -0.099  -1.856   4.676  0.00  0.00    +0.013 A 
ATOM      7  C   UNL     1       0.278  -0.621   4.138  0.00  0.00    +0.042 A 
ATOM      8  C   UNL     1       1.355   0.165   4.747  0.00  0.00    +0.157 A 
ATOM      9  C   UNL     1       1.688   1.389   4.167  0.00  0.00    +0.130 A 
ATOM     10  C   UNL     1       0.962   1.846   2.983  0.00  0.00    +0.266 A 
ATOM     11  O   UNL     1       1.248   2.914   2.472  0.00  0.00    -0.267 OA
ATOM     12  C   UNL     1       2.761   2.188   4.761  0.00  0.00    +0.215 A 
ATOM     13  C   UNL     1       3.398   1.684   5.880  0.00  0.00    +0.145 A 
ATOM     14  C   UNL     1       3.000   0.445   6.397  0.00  0.00    +0.354 A 
ATOM     15  O   UNL     1       3.564   0.004   7.384  0.00  0.00    -0.244 OA
ATOM     16  O   UNL     1       2.011  -0.271   5.833  0.00  0.00    -0.420 OA
ATOM     17  I   UNL     1       4.944   2.762   6.792  0.00  0.00    -0.032 I 
ATOM     18  O   UNL     1       3.118   3.381   4.232  0.00  0.00    -0.286 OA
ENDROOT
BRANCH   1  19
ATOM     19  C   UNL     1      -0.729   1.579   1.267  0.00  0.00    +0.125 C 
BRANCH  19  20
ATOM     20  C   UNL     1      -0.013   1.086   0.008  0.00  0.00    +0.021 C 
BRANCH  20  22
ATOM     21  C   UNL     1      -0.037   1.099  -2.490  0.00  0.00    +0.004 C 
ATOM     22  C   UNL     1      -0.753   1.593  -1.232  0.00  0.00    -0.002 C 
ENDBRANCH  20  22
ENDBRANCH  19  20
ENDBRANCH   1  19
TORSDOF 3
