REMARK  Name = ZINC09307223
REMARK  9 active torsions:
REMARK  status: ('A' for Active; 'I' for Inactive)
REMARK    1  A    between atoms: C_1  and  C_2
REMARK    2  A    between atoms: C_2  and  C_10
REMARK    3  A    between atoms: C_3  and  C_4
REMARK    4  A    between atoms: N_11  and  N_12
REMARK    5  A    between atoms: C_13  and  C_15
REMARK    6  A    between atoms: C_16  and  C_26
REMARK    7  A    between atoms: C_26  and  N_63
REMARK    8  A    between atoms: C_27  and  N_63
REMARK    9  A    between atoms: C_28  and  N_63
REMARK                            x       y       z     vdW  Elec       q    Type
REMARK                         _______ _______ _______ _____ _____    ______ ____
ROOT
ATOM      1  C   UNL     1       2.862  -3.586   0.130  0.00  0.00    +0.170 A 
ATOM      2  C   UNL     1       2.851  -2.220   0.150  0.00  0.00    +0.063 A 
ATOM      3  N   UNL     1       1.555  -1.841   0.205  0.00  0.00    -0.194 N 
ATOM      4  N   UNL     1       0.789  -3.016   0.208  0.00  0.00    -0.058 NA
ATOM      5  N   UNL     1       1.590  -4.023   0.164  0.00  0.00    -0.124 NA
ATOM      6  C   UNL     1       1.070  -0.529   0.244  0.00  0.00    +0.240 A 
ATOM      7  C   UNL     1      -0.342  -0.137   0.297  0.00  0.00    +0.206 A 
ATOM      8  N   UNL     1      -0.405   1.166   0.323  0.00  0.00    -0.032 NA
ATOM      9  O   UNL     1       0.920   1.665   0.288  0.00  0.00    -0.239 OA
ATOM     10  N   UNL     1       1.796   0.553   0.240  0.00  0.00    -0.027 NA
ATOM     11  N   UNL     1      -1.427  -1.006   0.319  0.00  0.00    -0.337 N 
ATOM     12  H   UNL     1      -2.330  -0.652   0.354  0.00  0.00    +0.144 HD
ATOM     13  H   UNL     1      -1.282  -1.964   0.297  0.00  0.00    +0.144 HD
ENDROOT
BRANCH   1  15
ATOM     14  N   UNL     1       3.939  -5.780   0.054  0.00  0.00    -0.202 N 
ATOM     15  C   UNL     1       4.064  -4.438   0.075  0.00  0.00    +0.285 C 
ATOM     16  O   UNL     1       5.169  -3.930   0.049  0.00  0.00    -0.267 OA
ATOM     17  H   UNL     1       3.058  -6.185   0.076  0.00  0.00    +0.178 HD
BRANCH  14  19
ATOM     18  C   UNL     1       4.961  -7.886  -0.018  0.00  0.00    +0.133 C 
ATOM     19  N   UNL     1       5.082  -6.589   0.003  0.00  0.00    -0.188 NA
BRANCH  18  21
ATOM     20  C   UNL     1       7.486  -8.075  -0.103  0.00  0.00    +0.045 C 
ATOM     21  C   UNL     1       6.117  -8.705  -0.070  0.00  0.00    -0.030 C 
ATOM     22  C   UNL     1       5.992 -10.047  -0.091  0.00  0.00    +0.012 C 
BRANCH  22  23
ATOM     23  C   UNL     1       7.187 -10.900   0.024  0.00  0.00    -0.025 A 
ATOM     24  C   UNL     1       7.237 -12.132  -0.636  0.00  0.00    +0.008 A 
ATOM     25  C   UNL     1       8.362 -12.922  -0.529  0.00  0.00    +0.001 A 
ATOM     26  C   UNL     1       9.435 -12.504   0.239  0.00  0.00    +0.000 A 
ATOM     27  C   UNL     1       9.391 -11.288   0.899  0.00  0.00    +0.001 A 
ATOM     28  C   UNL     1       8.275 -10.484   0.797  0.00  0.00    +0.008 A 
ENDBRANCH  22  23
ENDBRANCH  18  21
ENDBRANCH  14  19
ENDBRANCH   1  15
BRANCH   2  29
ATOM     29  C   UNL     1       4.053  -1.312   0.121  0.00  0.00    -0.020 C 
BRANCH  29  31
ATOM     30  C   UNL     1       4.996  -2.261   2.138  0.00  0.00    -0.095 C 
ATOM     31  N   UNL     1       4.472  -1.030   1.510  0.00  0.00    +0.383 N 
ATOM     32  H   UNL     1       3.658  -0.704   2.044  0.00  0.00    -0.081 HD
BRANCH  31  33
ATOM     33  C   UNL     1       5.508   0.024   1.521  0.00  0.00    -0.068 C 
ATOM     34  C   UNL     1       6.769  -0.456   0.798  0.00  0.00    -0.015 C 
ATOM     35  C   UNL     1       7.824   0.651   0.825  0.00  0.00    -0.002 C 
ATOM     36  C   UNL     1       8.168   0.993   2.276  0.00  0.00    -0.000 C 
ATOM     37  C   UNL     1       6.908   1.472   3.000  0.00  0.00    -0.002 C 
ATOM     38  C   UNL     1       5.852   0.365   2.973  0.00  0.00    -0.015 C 
ENDBRANCH  31  33
ENDBRANCH  29  31
ENDBRANCH   2  29
TORSDOF 7
