REMARK  Name = ZINC24720111
REMARK  12 active torsions:
REMARK  status: ('A' for Active; 'I' for Inactive)
REMARK    1  A    between atoms: C_1  and  C_2
REMARK    2  A    between atoms: C_2  and  C_4
REMARK    3  A    between atoms: C_2  and  N_14
REMARK    4  A    between atoms: C_7  and  C_10
REMARK    5  A    between atoms: C_10  and  C_11
REMARK    6  A    between atoms: C_11  and  C_12
REMARK    7  A    between atoms: C_11  and  C_13
REMARK    8  A    between atoms: C_15  and  C_17
REMARK    9  A    between atoms: N_20  and  S_23
REMARK   10  A    between atoms: S_23  and  C_26
REMARK   11  A    between atoms: C_28  and  C_32
REMARK   12  A    between atoms: N_29  and  C_31
REMARK                            x       y       z     vdW  Elec       q    Type
REMARK                         _______ _______ _______ _____ _____    ______ ____
ROOT
ATOM      1  C   UNL     1       2.355  -1.418  -2.554  0.00  0.00    +0.077 C 
ATOM      2  C   UNL     1       1.891  -2.787  -3.057  0.00  0.00    +0.030 C 
ATOM      3  C   UNL     1       2.694  -3.167  -4.306  0.00  0.00    +0.110 C 
ATOM      4  N   UNL     1       4.127  -3.094  -3.987  0.00  0.00    -0.176 NA
ATOM      5  C   UNL     1       4.661  -1.852  -3.412  0.00  0.00    +0.110 C 
ATOM      6  C   UNL     1       3.836  -1.487  -2.174  0.00  0.00    +0.030 C 
ENDROOT
BRANCH   1   8
ATOM      7  N   UNL     1       0.205  -0.902  -1.444  0.00  0.00    -0.309 N 
ATOM      8  C   UNL     1       1.544  -1.026  -1.346  0.00  0.00    +0.217 C 
ATOM      9  O   UNL     1       2.096  -0.822  -0.285  0.00  0.00    -0.275 OA
ATOM     10  H   UNL     1      -0.236  -1.065  -2.293  0.00  0.00    +0.149 HD
BRANCH   7  12
ATOM     11  C   UNL     1      -0.599   1.004  -0.139  0.00  0.00    +0.033 C 
ATOM     12  C   UNL     1      -0.583  -0.521  -0.270  0.00  0.00    +0.100 C 
BRANCH  12  13
ATOM     13  C   UNL     1      -1.994  -1.026  -0.427  0.00  0.00    -0.027 A 
ATOM     14  C   UNL     1      -2.617  -0.966  -1.660  0.00  0.00    +0.006 A 
ATOM     15  C   UNL     1      -3.911  -1.429  -1.804  0.00  0.00    +0.004 A 
ATOM     16  C   UNL     1      -4.583  -1.952  -0.715  0.00  0.00    -0.047 A 
ATOM     17  C   UNL     1      -3.960  -2.013   0.518  0.00  0.00    +0.004 A 
ATOM     18  C   UNL     1      -2.664  -1.554   0.661  0.00  0.00    +0.006 A 
BRANCH  16  19
ATOM     19  C   UNL     1      -5.994  -2.457  -0.872  0.00  0.00    +0.038 C 
BRANCH  19  20
ATOM     20  C   UNL     1      -5.968  -3.940  -1.245  0.00  0.00    -0.013 C 
ATOM     21  C   UNL     1      -5.376  -4.747  -0.087  0.00  0.00    +0.007 C 
ATOM     22  C   UNL     1      -7.393  -4.421  -1.526  0.00  0.00    +0.007 C 
ENDBRANCH  19  20
ENDBRANCH  16  19
ENDBRANCH  12  13
ENDBRANCH   7  12
ENDBRANCH   1   8
BRANCH   4  23
ATOM     23  S   UNL     1       5.120  -4.389  -4.269  0.00  0.00    +0.062 S 
ATOM     24  O   UNL     1       6.229  -4.249  -3.392  0.00  0.00    -0.153 OA
ATOM     25  O   UNL     1       4.292  -5.543  -4.272  0.00  0.00    -0.153 OA
BRANCH  23  26
ATOM     26  C   UNL     1       5.748  -4.216  -5.906  0.00  0.00    +0.124 A 
ATOM     27  C   UNL     1       5.159  -4.718  -7.071  0.00  0.00    +0.061 A 
ATOM     28  C   UNL     1       5.974  -4.359  -8.124  0.00  0.00    +0.106 A 
ATOM     29  N   UNL     1       7.036  -3.653  -7.604  0.00  0.00    -0.344 N 
ATOM     30  C   UNL     1       6.884  -3.568  -6.260  0.00  0.00    +0.114 A 
ATOM     31  C   UNL     1       8.143  -3.083  -8.377  0.00  0.00    +0.149 C 
BRANCH  28  32
ATOM     32  C   UNL     1       5.751  -4.672  -9.539  0.00  0.00    +0.258 C 
ATOM     33  O   UNL     1       6.489  -4.210 -10.389  0.00  0.00    -0.269 OA
ATOM     34  N   UNL     1       4.728  -5.473  -9.899  0.00  0.00    -0.324 N 
ATOM     35  H   UNL     1       4.096  -5.782  -9.231  0.00  0.00    +0.145 HD
ATOM     36  H   UNL     1       4.623  -5.739 -10.825  0.00  0.00    +0.145 HD
ENDBRANCH  28  32
ENDBRANCH  23  26
ENDBRANCH   4  23
TORSDOF 8
