REMARK  Name = ZINC65149911
REMARK  4 active torsions:
REMARK  status: ('A' for Active; 'I' for Inactive)
REMARK    1  A    between atoms: C_5  and  C_7
REMARK    2  A    between atoms: C_8  and  N_26
REMARK    3  A    between atoms: C_9  and  C_12
REMARK    4  A    between atoms: N_17  and  C_20
REMARK                            x       y       z     vdW  Elec       q    Type
REMARK                         _______ _______ _______ _____ _____    ______ ____
ROOT
ATOM      1  C   UNL     1       3.204  -5.233  -0.917  0.00  0.00    +0.256 C 
ATOM      2  O   UNL     1       4.216  -4.915  -1.514  0.00  0.00    -0.269 OA
ATOM      3  N   UNL     1       2.946  -6.534  -0.674  0.00  0.00    -0.301 N 
ATOM      4  C   UNL     1       1.671  -6.952  -0.072  0.00  0.00    +0.089 C 
ATOM      5  C   UNL     1       1.076  -8.076  -0.926  0.00  0.00    -0.059 C 
ATOM      6  N   UNL     1       2.061  -9.155  -1.070  0.00  0.00    +0.384 N 
ATOM      7  C   UNL     1       3.230  -8.669  -1.814  0.00  0.00    -0.059 C 
ATOM      8  C   UNL     1       3.930  -7.575  -1.009  0.00  0.00    +0.089 C 
ATOM      9  H   UNL     1       2.352  -9.467  -0.156  0.00  0.00    -0.081 HD
ENDROOT
BRANCH   6  10
ATOM     10  C   UNL     1       1.452 -10.278  -1.796  0.00  0.00    -0.068 C 
ATOM     11  C   UNL     1       0.241 -10.793  -1.016  0.00  0.00    -0.015 C 
ATOM     12  C   UNL     1      -0.393 -11.962  -1.772  0.00  0.00    -0.002 C 
ATOM     13  C   UNL     1       0.633 -13.088  -1.922  0.00  0.00    -0.000 C 
ATOM     14  C   UNL     1       1.844 -12.573  -2.702  0.00  0.00    -0.002 C 
ATOM     15  C   UNL     1       2.478 -11.403  -1.946  0.00  0.00    -0.015 C 
ENDBRANCH   6  10
BRANCH   1  18
ATOM     16  C   UNL     1       1.017  -2.243  -0.321  0.00  0.00    +0.119 A 
ATOM     17  C   UNL     1       1.968  -2.966  -1.034  0.00  0.00    +0.073 A 
ATOM     18  C   UNL     1       2.267  -4.204  -0.463  0.00  0.00    +0.115 A 
ATOM     19  S   UNL     1       1.204  -4.196   0.966  0.00  0.00    +0.019 S 
ATOM     20  N   UNL     1       0.505  -2.749   0.778  0.00  0.00    -0.206 NA
BRANCH  16  25
ATOM     21  C   UNL     1      -1.051   0.838  -0.884  0.00  0.00    +0.004 A 
ATOM     22  C   UNL     1      -0.171   1.555  -1.682  0.00  0.00    +0.020 A 
ATOM     23  C   UNL     1       1.056   1.006  -2.003  0.00  0.00    +0.111 A 
ATOM     24  N   UNL     1       1.400  -0.187  -1.561  0.00  0.00    -0.253 NA
ATOM     25  C   UNL     1       0.588  -0.906  -0.795  0.00  0.00    +0.092 A 
ATOM     26  C   UNL     1      -0.665  -0.412  -0.433  0.00  0.00    +0.030 A 
ENDBRANCH  16  25
BRANCH  17  27
ATOM     27  N   UNL     1       2.562  -2.501  -2.203  0.00  0.00    -0.355 N 
ATOM     28  H   UNL     1       2.318  -1.632  -2.558  0.00  0.00    +0.142 HD
ATOM     29  H   UNL     1       3.220  -3.045  -2.662  0.00  0.00    +0.142 HD
ENDBRANCH  17  27
ENDBRANCH   1  18
TORSDOF 4
