REMARK  Name = ZINC29033387
REMARK  9 active torsions:
REMARK  status: ('A' for Active; 'I' for Inactive)
REMARK    1  A    between atoms: C_1  and  C_2
REMARK    2  A    between atoms: C_4  and  C_29
REMARK    3  A    between atoms: C_8  and  N_28
REMARK    4  A    between atoms: C_9  and  C_11
REMARK    5  A    between atoms: C_11  and  O_13
REMARK    6  A    between atoms: O_13  and  C_14
REMARK    7  A    between atoms: C_14  and  C_15
REMARK    8  A    between atoms: N_17  and  C_18
REMARK    9  A    between atoms: C_23  and  N_24
REMARK                            x       y       z     vdW  Elec       q    Type
REMARK                         _______ _______ _______ _____ _____    ______ ____
ROOT
ATOM      1  C   UNL     1       5.485   1.182   4.387  0.00  0.00    +0.348 C 
ATOM      2  O   UNL     1       5.090   2.283   4.722  0.00  0.00    -0.244 OA
ENDROOT
BRANCH   1  11
ATOM      3  C   UNL     1       0.801   1.026   1.446  0.00  0.00    +0.044 C 
ATOM      4  C   UNL     1       1.667  -0.202   1.332  0.00  0.00    -0.037 A 
ATOM      5  C   UNL     1       1.282  -1.256   0.538  0.00  0.00    +0.025 A 
ATOM      6  C   UNL     1       2.081  -2.386   0.435  0.00  0.00    +0.014 A 
ATOM      7  N   UNL     1       3.219  -2.462   1.097  0.00  0.00    -0.353 N 
ATOM      8  C   UNL     1       3.631  -1.479   1.869  0.00  0.00    +0.088 A 
ATOM      9  C   UNL     1       2.893  -0.285   2.037  0.00  0.00    +0.030 A 
ATOM     10  C   UNL     1       3.501   0.697   2.922  0.00  0.00    +0.055 A 
ATOM     11  C   UNL     1       4.713   0.392   3.503  0.00  0.00    +0.119 A 
ATOM     12  S   UNL     1       5.069  -1.240   2.883  0.00  0.00    -0.062 S 
ATOM     13  C   UNL     1       1.645  -3.534  -0.438  0.00  0.00    +0.063 C 
ATOM     14  H   UNL     1       3.764  -3.260   1.014  0.00  0.00    +0.166 HD
BRANCH  10  15
ATOM     15  N   UNL     1       2.876   1.909   3.175  0.00  0.00    -0.356 N 
ATOM     16  H   UNL     1       2.211   2.250   2.556  0.00  0.00    +0.142 HD
ATOM     17  H   UNL     1       3.104   2.416   3.970  0.00  0.00    +0.142 HD
ENDBRANCH  10  15
ENDBRANCH   1  11
BRANCH   1  18
ATOM     18  O   UNL     1       6.660   0.714   4.859  0.00  0.00    -0.451 OA
BRANCH  18  19
ATOM     19  C   UNL     1       7.387   1.565   5.748  0.00  0.00    +0.328 C 
BRANCH  19  20
ATOM     20  C   UNL     1       8.662   0.880   6.168  0.00  0.00    +0.255 C 
ATOM     21  O   UNL     1       8.923  -0.228   5.748  0.00  0.00    -0.272 OA
ATOM     22  N   UNL     1       9.513   1.498   7.011  0.00  0.00    -0.281 N 
ATOM     23  H   UNL     1       9.300   2.380   7.355  0.00  0.00    +0.155 HD
BRANCH  22  24
ATOM     24  C   UNL     1      10.704   0.867   7.391  0.00  0.00    +0.064 A 
ATOM     25  C   UNL     1      11.530   0.303   6.428  0.00  0.00    +0.027 A 
ATOM     26  C   UNL     1      12.704  -0.318   6.805  0.00  0.00    +0.022 A 
ATOM     27  C   UNL     1      13.058  -0.379   8.142  0.00  0.00    +0.043 A 
ATOM     28  C   UNL     1      12.236   0.182   9.103  0.00  0.00    +0.054 A 
ATOM     29  C   UNL     1      11.063   0.809   8.731  0.00  0.00    +0.149 A 
ATOM     30 CL   UNL     1      14.534  -1.162   8.613  0.00  0.00    -0.083 Cl
BRANCH  29  31
ATOM     31  N   UNL     1      10.188   1.415   9.759  0.00  0.00    +0.058 N 
ATOM     32  O   UNL     1      10.561   1.482  10.907  0.00  0.00    -0.126 OA
ATOM     33  O   UNL     1       9.100   1.842   9.452  0.00  0.00    -0.126 OA
ENDBRANCH  29  31
ENDBRANCH  22  24
ENDBRANCH  19  20
ENDBRANCH  18  19
ENDBRANCH   1  18
TORSDOF 7
