REMARK  Name = ZINC36548370
REMARK  16 active torsions:
REMARK  status: ('A' for Active; 'I' for Inactive)
REMARK    1  A    between atoms: C_1  and  C_2
REMARK    2  A    between atoms: C_2  and  C_3
REMARK    3  A    between atoms: C_2  and  C_4
REMARK    4  A    between atoms: C_2  and  C_5
REMARK    5  A    between atoms: C_5  and  C_6
REMARK    6  A    between atoms: C_6  and  C_7
REMARK    7  A    between atoms: C_6  and  C_8
REMARK    8  A    between atoms: C_6  and  N_9
REMARK    9  A    between atoms: C_10  and  C_12
REMARK   10  A    between atoms: C_12  and  C_14
REMARK   11  A    between atoms: C_12  and  N_23
REMARK   12  A    between atoms: C_15  and  O_22
REMARK   13  A    between atoms: C_17  and  O_21
REMARK   14  A    between atoms: C_19  and  O_20
REMARK   15  A    between atoms: N_23  and  C_24
REMARK   16  A    between atoms: C_31  and  C_33
REMARK                            x       y       z     vdW  Elec       q    Type
REMARK                         _______ _______ _______ _____ _____    ______ ____
ROOT
ATOM      1  C   UNL     1       4.754   1.081  -4.962  0.00  0.00    +0.204 C 
ENDROOT
BRANCH   1   2
ATOM      2  C   UNL     1       4.433  -0.299  -5.476  0.00  0.00    +0.065 A 
ATOM      3  C   UNL     1       5.126  -1.398  -4.990  0.00  0.00    +0.129 A 
ATOM      4  C   UNL     1       4.830  -2.667  -5.463  0.00  0.00    +0.091 A 
ATOM      5  C   UNL     1       3.842  -2.838  -6.421  0.00  0.00    +0.124 A 
ATOM      6  C   UNL     1       3.149  -1.739  -6.905  0.00  0.00    +0.091 A 
ATOM      7  C   UNL     1       3.441  -0.470  -6.429  0.00  0.00    +0.129 A 
BRANCH   7   8
ATOM      8  O   UNL     1       2.759   0.607  -6.901  0.00  0.00    -0.506 OA
ATOM      9  H   UNL     1       3.161   1.017  -7.679  0.00  0.00    +0.292 HD
ENDBRANCH   7   8
BRANCH   5  10
ATOM     10  O   UNL     1       3.553  -4.082  -6.885  0.00  0.00    -0.507 OA
ATOM     11  H   UNL     1       2.867  -4.541  -6.380  0.00  0.00    +0.292 HD
ENDBRANCH   5  10
BRANCH   3  12
ATOM     12  O   UNL     1       6.094  -1.230  -4.052  0.00  0.00    -0.506 OA
ATOM     13  H   UNL     1       5.787  -1.356  -3.143  0.00  0.00    +0.292 HD
ENDBRANCH   3  12
ENDBRANCH   1   2
BRANCH   1  15
ATOM     14  N   UNL     1       3.134   0.939  -3.098  0.00  0.00    -0.308 N 
ATOM     15  C   UNL     1       4.400   1.168  -3.500  0.00  0.00    +0.239 C 
ATOM     16  O   UNL     1       5.254   1.444  -2.684  0.00  0.00    -0.273 OA
ATOM     17  H   UNL     1       2.451   0.718  -3.750  0.00  0.00    +0.149 HD
BRANCH  14  18
ATOM     18  C   UNL     1       2.790   1.023  -1.677  0.00  0.00    +0.030 C 
ATOM     19  C   UNL     1       3.149   2.412  -1.146  0.00  0.00    +0.031 C 
ATOM     20  C   UNL     1       3.572  -0.038  -0.899  0.00  0.00    +0.031 C 
BRANCH  18  21
ATOM     21  C   UNL     1       1.290   0.782  -1.500  0.00  0.00    +0.031 C 
BRANCH  21  23
ATOM     22  C   UNL     1       0.464   0.693  -3.857  0.00  0.00    +0.010 C 
ATOM     23  C   UNL     1       0.520   1.540  -2.584  0.00  0.00    -0.036 C 
ATOM     24  C   UNL     1       1.229   2.862  -2.882  0.00  0.00    +0.010 C 
ATOM     25  C   UNL     1      -0.902   1.822  -2.096  0.00  0.00    +0.010 C 
ENDBRANCH  21  23
ENDBRANCH  18  21
ENDBRANCH  14  18
ENDBRANCH   1  15
BRANCH   1  26
ATOM     26  N   UNL     1       6.185   1.346  -5.134  0.00  0.00    -0.252 N 
ATOM     27  C   UNL     1       6.760   1.181  -6.342  0.00  0.00    +0.241 C 
ATOM     28  O   UNL     1       6.093   0.814  -7.286  0.00  0.00    -0.273 OA
BRANCH  26  29
ATOM     29  C   UNL     1       6.955   1.770  -4.045  0.00  0.00    +0.056 A 
ATOM     30  C   UNL     1       7.748   0.861  -3.358  0.00  0.00    +0.025 A 
ATOM     31  C   UNL     1       8.507   1.282  -2.283  0.00  0.00    +0.002 A 
ATOM     32  C   UNL     1       8.477   2.608  -1.890  0.00  0.00    +0.002 A 
ATOM     33  C   UNL     1       7.687   3.516  -2.571  0.00  0.00    +0.022 A 
ATOM     34  C   UNL     1       6.930   3.102  -3.651  0.00  0.00    +0.062 A 
ATOM     35 CL   UNL     1       5.946   4.245  -4.511  0.00  0.00    -0.082 Cl
ENDBRANCH  26  29
BRANCH  27  36
ATOM     36  C   UNL     1       8.231   1.454  -6.520  0.00  0.00    +0.160 C 
ATOM     37  C   UNL     1       8.477   2.969  -6.694  0.00  0.00    +0.041 C 
ATOM     38  C   UNL     1       8.467   3.115  -8.233  0.00  0.00    +0.098 C 
ATOM     39  C   UNL     1       8.853   1.742  -8.739  0.00  0.00    +0.214 C 
ATOM     40  O   UNL     1       9.231   1.498  -9.865  0.00  0.00    -0.276 OA
ATOM     41  N   UNL     1       8.717   0.831  -7.757  0.00  0.00    -0.304 N 
ATOM     42  H   UNL     1       8.915  -0.114  -7.853  0.00  0.00    +0.149 HD
ENDBRANCH  27  36
ENDBRANCH   1  26
TORSDOF 11
