REMARK  Name = ZINC02129797
REMARK  7 active torsions:
REMARK  status: ('A' for Active; 'I' for Inactive)
REMARK    1  A    between atoms: C_1  and  C_2
REMARK    2  A    between atoms: C_17  and  C_19
REMARK    3  A    between atoms: C_19  and  C_20
REMARK    4  A    between atoms: C_20  and  C_21
REMARK    5  A    between atoms: N_25  and  C_28
REMARK    6  A    between atoms: C_28  and  C_30
REMARK    7  A    between atoms: C_28  and  C_31
REMARK                            x       y       z     vdW  Elec       q    Type
REMARK                         _______ _______ _______ _____ _____    ______ ____
ROOT
ATOM      1  C   UNL     1      -1.375   2.084   0.077  0.00  0.00    +0.044 C 
ATOM      2  C   UNL     1      -0.038   1.393   0.006  0.00  0.00    -0.049 A 
ATOM      3  C   UNL     1       1.127   2.138  -0.030  0.00  0.00    +0.008 A 
ATOM      4  C   UNL     1       2.348   1.506  -0.101  0.00  0.00    -0.026 A 
ATOM      5  C   UNL     1       2.426   0.116  -0.135  0.00  0.00    +0.054 A 
ATOM      6  C   UNL     1       1.248  -0.627  -0.098  0.00  0.00    +0.063 A 
ATOM      7  C   UNL     1       0.026   0.012  -0.028  0.00  0.00    +0.025 A 
ATOM      8 CL   UNL     1       1.317  -2.361  -0.139  0.00  0.00    -0.082 Cl
ATOM      9  N   UNL     1       3.761  -0.291  -0.204  0.00  0.00    -0.285 N 
ATOM     10  C   UNL     1       4.611   0.754  -0.221  0.00  0.00    +0.211 C 
ATOM     11  O   UNL     1       5.821   0.703  -0.277  0.00  0.00    -0.277 OA
ATOM     12  C   UNL     1       3.767   1.998  -0.156  0.00  0.00    +0.050 C 
ATOM     13  C   UNL     1       4.118   2.850   1.068  0.00  0.00    +0.088 C 
ATOM     14  C   UNL     1       3.975   4.319   0.579  0.00  0.00    +0.073 C 
ATOM     15  C   UNL     1       3.522   4.202  -0.892  0.00  0.00    -0.057 C 
ATOM     16  C   UNL     1       2.834   4.868   1.407  0.00  0.00    +0.225 C 
ATOM     17  O   UNL     1       2.403   5.999   1.342  0.00  0.00    -0.275 OA
ATOM     18  N   UNL     1       2.382   3.887   2.222  0.00  0.00    -0.235 N 
ATOM     19  C   UNL     1       3.032   2.723   2.112  0.00  0.00    +0.226 C 
ATOM     20  O   UNL     1       2.788   1.721   2.749  0.00  0.00    -0.275 OA
ATOM     21  H   UNL     1       4.043  -1.218  -0.236  0.00  0.00    +0.155 HD
ATOM     22  N   UNL     1       3.979   2.871  -1.298  0.00  0.00    +0.394 N 
ATOM     23  H   UNL     1       3.436   2.540  -2.104  0.00  0.00    -0.083 HD
ATOM     24  H   UNL     1       4.975   2.898  -1.544  0.00  0.00    -0.083 HD
ENDROOT
BRANCH  18  25
ATOM     25  C   UNL     1       1.273   4.090   3.158  0.00  0.00    +0.111 C 
ATOM     26  C   UNL     1       0.045   4.588   2.392  0.00  0.00    +0.033 C 
BRANCH  25  27
ATOM     27  C   UNL     1       1.668   5.111   4.192  0.00  0.00    -0.027 A 
ATOM     28  C   UNL     1       2.982   5.193   4.617  0.00  0.00    +0.005 A 
ATOM     29  C   UNL     1       3.345   6.133   5.563  0.00  0.00    +0.000 A 
ATOM     30  C   UNL     1       2.394   6.985   6.091  0.00  0.00    +0.000 A 
ATOM     31  C   UNL     1       1.080   6.901   5.671  0.00  0.00    +0.000 A 
ATOM     32  C   UNL     1       0.717   5.963   4.721  0.00  0.00    +0.005 A 
ENDBRANCH  25  27
ENDBRANCH  18  25
BRANCH  15  33
ATOM     33  C   UNL     1       4.174   5.298  -1.738  0.00  0.00    -0.004 C 
BRANCH  33  34
ATOM     34  C   UNL     1       3.676   5.193  -3.181  0.00  0.00    +0.123 C 
BRANCH  34  35
ATOM     35  C   UNL     1       4.319   6.272  -4.014  0.00  0.00    +0.356 C 
ATOM     36  O   UNL     1       5.095   7.046  -3.505  0.00  0.00    -0.246 OA
ATOM     37  O   UNL     1       4.028   6.374  -5.320  0.00  0.00    -0.246 OA
ENDBRANCH  34  35
ENDBRANCH  33  34
ENDBRANCH  15  33
TORSDOF 5
