REMARK  Name = ZINC54643394
REMARK  9 active torsions:
REMARK  status: ('A' for Active; 'I' for Inactive)
REMARK    1  A    between atoms: C_1  and  C_2
REMARK    2  A    between atoms: C_7  and  N_8
REMARK    3  A    between atoms: C_9  and  C_11
REMARK    4  A    between atoms: C_12  and  C_36
REMARK    5  A    between atoms: C_16  and  S_27
REMARK    6  A    between atoms: C_19  and  C_21
REMARK    7  A    between atoms: C_22  and  C_26
REMARK    8  A    between atoms: S_27  and  C_28
REMARK    9  A    between atoms: C_28  and  C_29
REMARK                            x       y       z     vdW  Elec       q    Type
REMARK                         _______ _______ _______ _____ _____    ______ ____
ROOT
ATOM      1  C   UNL     1       0.055   0.315   4.476  0.00  0.00    +0.061 C 
ATOM      2  C   UNL     1       0.119  -0.441   5.582  0.00  0.00    +0.018 C 
ATOM      3  N   UNL     1       0.098   0.103   6.843  0.00  0.00    -0.287 N 
ATOM      4  C   UNL     1       0.274   1.476   6.949  0.00  0.00    +0.219 A 
ATOM      5  N   UNL     1       0.514   2.213   7.999  0.00  0.00    -0.187 NA
ATOM      6  C   UNL     1       0.616   3.498   7.630  0.00  0.00    +0.211 A 
ATOM      7  N   UNL     1       0.436   3.586   6.330  0.00  0.00    -0.141 NA
ATOM      8  N   UNL     1       0.210   2.291   5.868  0.00  0.00    -0.219 N 
ATOM      9  C   UNL     1      -0.050   1.816   4.512  0.00  0.00    +0.184 C 
ATOM     10  C   UNL     1       0.216  -1.938   5.436  0.00  0.00    +0.061 C 
ATOM     11  H   UNL     1      -0.034  -0.451   7.628  0.00  0.00    +0.155 HD
ENDROOT
BRANCH   9  12
ATOM     12  C   UNL     1      -1.438   2.232   4.097  0.00  0.00    +0.022 A 
ATOM     13  C   UNL     1      -1.827   2.939   3.008  0.00  0.00    -0.038 A 
ATOM     14  C   UNL     1      -3.171   3.207   2.827  0.00  0.00    +0.011 A 
ATOM     15  C   UNL     1      -4.060   2.754   3.745  0.00  0.00    +0.046 A 
ATOM     16  S   UNL     1      -2.997   1.916   4.908  0.00  0.00    -0.099 S 
ATOM     17  C   UNL     1      -0.809   3.426   2.008  0.00  0.00    +0.044 C 
ENDBRANCH   9  12
BRANCH   1  19
ATOM     18  N   UNL     1      -1.024  -0.876   2.704  0.00  0.00    -0.281 N 
ATOM     19  C   UNL     1       0.095  -0.328   3.217  0.00  0.00    +0.248 C 
ATOM     20  O   UNL     1       1.141  -0.386   2.595  0.00  0.00    -0.270 OA
ATOM     21  H   UNL     1      -1.871  -0.770   3.165  0.00  0.00    +0.155 HD
BRANCH  18  28
ATOM     22  C   UNL     1      -3.444  -1.298   1.268  0.00  0.00    +0.045 C 
ATOM     23  C   UNL     1      -2.122  -1.828   0.776  0.00  0.00    -0.029 A 
ATOM     24  C   UNL     1      -2.059  -2.537  -0.408  0.00  0.00    +0.005 A 
ATOM     25  C   UNL     1      -0.847  -3.023  -0.861  0.00  0.00    +0.000 A 
ATOM     26  C   UNL     1       0.306  -2.802  -0.130  0.00  0.00    +0.002 A 
ATOM     27  C   UNL     1       0.251  -2.094   1.054  0.00  0.00    +0.023 A 
ATOM     28  C   UNL     1      -0.965  -1.599   1.508  0.00  0.00    +0.037 A 
ENDBRANCH  18  28
ENDBRANCH   1  19
BRANCH   6  29
ATOM     29  S   UNL     1       0.937   4.851   8.713  0.00  0.00    -0.080 S 
BRANCH  29  30
ATOM     30  C   UNL     1       1.083   4.079  10.348  0.00  0.00    +0.115 C 
BRANCH  30  31
ATOM     31  C   UNL     1       1.362   5.141  11.381  0.00  0.00    -0.002 A 
ATOM     32  C   UNL     1       2.665   5.490  11.679  0.00  0.00    +0.007 A 
ATOM     33  C   UNL     1       2.921   6.463  12.626  0.00  0.00    +0.000 A 
ATOM     34  C   UNL     1       1.874   7.089  13.277  0.00  0.00    +0.003 A 
ATOM     35  C   UNL     1       0.570   6.741  12.981  0.00  0.00    +0.038 A 
ATOM     36  C   UNL     1       0.312   5.770  12.028  0.00  0.00    +0.127 A 
ATOM     37  F   UNL     1      -0.963   5.433  11.734  0.00  0.00    -0.205 F 
ENDBRANCH  30  31
ENDBRANCH  29  30
ENDBRANCH   6  29
TORSDOF 6
