REMARK  Name = ZINC12916645
REMARK  11 active torsions:
REMARK  status: ('A' for Active; 'I' for Inactive)
REMARK    1  A    between atoms: C_1  and  C_2
REMARK    2  A    between atoms: N_4  and  C_5
REMARK    3  A    between atoms: C_5  and  C_6
REMARK    4  A    between atoms: C_9  and  C_11
REMARK    5  A    between atoms: C_17  and  C_19
REMARK    6  A    between atoms: C_19  and  N_20
REMARK    7  A    between atoms: C_21  and  C_23
REMARK    8  A    between atoms: C_26  and  C_29
REMARK    9  A    between atoms: C_29  and  C_30
REMARK   10  A    between atoms: C_29  and  C_31
REMARK   11  A    between atoms: C_29  and  C_32
REMARK                            x       y       z     vdW  Elec       q    Type
REMARK                         _______ _______ _______ _____ _____    ______ ____
ROOT
ATOM      1  C   UNL     1      -3.510   1.964   0.030  0.00  0.00    +0.087 A 
ATOM      2  C   UNL     1      -3.319   3.319   0.036  0.00  0.00    +0.077 A 
ATOM      3  S   UNL     1      -1.533   3.404   0.027  0.00  0.00    -0.060 S 
ATOM      4  C   UNL     1      -1.224   1.644   0.017  0.00  0.00    +0.165 A 
ATOM      5  N   UNL     1      -2.451   1.159   0.015  0.00  0.00    -0.224 NA
ATOM      6  N   UNL     1      -0.011   0.966   0.007  0.00  0.00    -0.263 N 
ATOM      7  C   UNL     1       1.147   1.655   0.000  0.00  0.00    +0.236 C 
ATOM      8  O   UNL     1       1.130   2.868   0.007  0.00  0.00    -0.274 OA
ATOM      9  H   UNL     1       0.002  -0.004   0.002  0.00  0.00    +0.157 HD
ENDROOT
BRANCH   1  13
ATOM     10  C   UNL     1      -7.513   0.824   0.041  0.00  0.00    +0.007 A 
ATOM     11  C   UNL     1      -6.620  -0.197   0.033  0.00  0.00    +0.013 A 
ATOM     12  C   UNL     1      -5.271   0.090   0.023  0.00  0.00    +0.018 A 
ATOM     13  C   UNL     1      -4.878   1.401   0.033  0.00  0.00    +0.038 A 
ATOM     14  S   UNL     1      -6.446   2.255   0.044  0.00  0.00    -0.090 S 
BRANCH  10  15
ATOM     15  C   UNL     1      -9.019   0.766   0.047  0.00  0.00    +0.146 C 
BRANCH  15  19
ATOM     16  C   UNL     1     -11.321   0.661   3.103  0.00  0.00    +0.109 C 
ATOM     17  C   UNL     1     -10.825   0.687   1.681  0.00  0.00    +0.210 C 
ATOM     18  O   UNL     1     -11.616   0.661   0.762  0.00  0.00    -0.276 OA
ATOM     19  N   UNL     1      -9.502   0.740   1.430  0.00  0.00    -0.311 N 
ATOM     20  H   UNL     1      -8.869   0.761   2.165  0.00  0.00    +0.149 HD
ENDBRANCH  15  19
ENDBRANCH  10  15
ENDBRANCH   1  13
BRANCH   7  21
ATOM     21  C   UNL     1       2.462   0.920  -0.017  0.00  0.00    +0.200 C 
BRANCH  21  22
ATOM     22  N   UNL     1       3.562   1.887  -0.022  0.00  0.00    -0.303 N 
ATOM     23  C   UNL     1       4.839   1.455  -0.036  0.00  0.00    +0.244 C 
ATOM     24  O   UNL     1       5.077   0.263  -0.045  0.00  0.00    -0.270 OA
ATOM     25  H   UNL     1       3.372   2.838  -0.015  0.00  0.00    +0.150 HD
BRANCH  23  26
ATOM     26  C   UNL     1       5.950   2.431  -0.042  0.00  0.00    +0.037 A 
ATOM     27  C   UNL     1       5.679   3.800  -0.038  0.00  0.00    +0.013 A 
ATOM     28  C   UNL     1       6.720   4.706  -0.038  0.00  0.00    +0.005 A 
ATOM     29  C   UNL     1       8.030   4.259  -0.053  0.00  0.00    -0.042 A 
ATOM     30  C   UNL     1       8.304   2.903  -0.062  0.00  0.00    +0.005 A 
ATOM     31  C   UNL     1       7.273   1.987  -0.057  0.00  0.00    +0.013 A 
BRANCH  29  32
ATOM     32  C   UNL     1       9.162   5.254  -0.059  0.00  0.00    -0.013 C 
ATOM     33  C   UNL     1      10.009   5.054  -1.317  0.00  0.00    +0.015 C 
ATOM     34  C   UNL     1       8.593   6.674  -0.047  0.00  0.00    +0.015 C 
ATOM     35  C   UNL     1      10.033   5.043   1.181  0.00  0.00    +0.015 C 
ENDBRANCH  29  32
ENDBRANCH  23  26
ENDBRANCH  21  22
ENDBRANCH   7  21
TORSDOF 7
