REMARK  Name = ZINC20996527
REMARK  10 active torsions:
REMARK  status: ('A' for Active; 'I' for Inactive)
REMARK    1  A    between atoms: C_1  and  S_2
REMARK    2  A    between atoms: S_2  and  C_3
REMARK    3  A    between atoms: C_6  and  C_9
REMARK    4  A    between atoms: C_12  and  C_30
REMARK    5  A    between atoms: C_13  and  N_15
REMARK    6  A    between atoms: C_18  and  N_21
REMARK    7  A    between atoms: C_25  and  C_28
REMARK    8  A    between atoms: C_28  and  O_29
REMARK    9  A    between atoms: N_32  and  C_33
REMARK   10  A    between atoms: C_33  and  C_34
REMARK                            x       y       z     vdW  Elec       q    Type
REMARK                         _______ _______ _______ _____ _____    ______ ____
ROOT
ATOM      1  C   UNL     1      -0.016   1.393  -0.042  0.00  0.00    +0.073 A 
ATOM      2  C   UNL     1       0.001  -0.002  -0.003  0.00  0.00    +0.029 A 
ATOM      3  C   UNL     1       1.210  -0.665   0.035  0.00  0.00    +0.018 A 
ATOM      4  C   UNL     1       2.389   0.095   0.034  0.00  0.00    +0.077 A 
ATOM      5  C   UNL     1       2.296   1.497  -0.007  0.00  0.00    +0.134 A 
ATOM      6  N   UNL     1       1.114   2.090  -0.043  0.00  0.00    -0.231 NA
ENDROOT
BRANCH   1  10
ATOM      7  C   UNL     1      -3.739   3.440  -0.178  0.00  0.00    +0.008 A 
ATOM      8  C   UNL     1      -2.549   4.162  -0.174  0.00  0.00    +0.015 A 
ATOM      9  C   UNL     1      -1.342   3.501  -0.130  0.00  0.00    +0.011 A 
ATOM     10  C   UNL     1      -1.312   2.106  -0.090  0.00  0.00    +0.000 A 
ATOM     11  C   UNL     1      -2.507   1.384  -0.101  0.00  0.00    +0.011 A 
ATOM     12  C   UNL     1      -3.712   2.049  -0.139  0.00  0.00    +0.015 A 
BRANCH   7  14
ATOM     13  C   UNL     1      -6.516   2.958  -0.223  0.00  0.00    +0.090 C 
ATOM     14  S   UNL     1      -5.283   4.289  -0.235  0.00  0.00    -0.129 S 
ENDBRANCH   7  14
ENDBRANCH   1  10
BRANCH   5  15
ATOM     15  N   UNL     1       3.448   2.262  -0.011  0.00  0.00    -0.315 N 
ATOM     16  C   UNL     1       3.865   2.580  -1.382  0.00  0.00    +0.105 C 
ATOM     17  C   UNL     1       5.215   3.299  -1.353  0.00  0.00    +0.004 C 
ATOM     18  C   UNL     1       5.087   4.583  -0.527  0.00  0.00    -0.066 C 
ATOM     19  C   UNL     1       4.605   4.228   0.882  0.00  0.00    +0.004 C 
ATOM     20  C   UNL     1       3.272   3.482   0.788  0.00  0.00    +0.105 C 
BRANCH  18  21
ATOM     21  N   UNL     1       6.394   5.249  -0.446  0.00  0.00    +0.382 N 
ATOM     22  C   UNL     1       6.330   6.428   0.427  0.00  0.00    -0.078 C 
ATOM     23  C   UNL     1       7.735   7.009   0.604  0.00  0.00    -0.018 C 
ATOM     24  C   UNL     1       8.298   7.396  -0.767  0.00  0.00    +0.002 C 
ATOM     25  C   UNL     1       8.308   6.161  -1.673  0.00  0.00    -0.002 C 
ATOM     26  C   UNL     1       6.887   5.604  -1.783  0.00  0.00    -0.073 C 
ATOM     27  H   UNL     1       7.109   4.541  -0.002  0.00  0.00    -0.081 HD
BRANCH  25  28
ATOM     28  C   UNL     1       8.813   6.551  -3.063  0.00  0.00    +0.157 C 
BRANCH  28  29
ATOM     29  O   UNL     1      10.180   6.961  -2.975  0.00  0.00    -0.395 OA
ATOM     30  H   UNL     1      10.717   7.280  -3.881  0.00  0.00    +0.209 HD
ENDBRANCH  28  29
ENDBRANCH  25  28
ENDBRANCH  18  21
ENDBRANCH   5  15
BRANCH   4  31
ATOM     31  C   UNL     1       3.704  -0.566   0.074  0.00  0.00    +0.248 C 
ATOM     32  O   UNL     1       4.720   0.095  -0.024  0.00  0.00    -0.270 OA
ATOM     33  N   UNL     1       3.782  -1.904   0.219  0.00  0.00    -0.306 N 
ATOM     34  H   UNL     1       2.863  -2.502   0.307  0.00  0.00    +0.149 HD
BRANCH  33  35
ATOM     35  C   UNL     1       5.090  -2.561   0.260  0.00  0.00    +0.163 C 
BRANCH  35  36
ATOM     36  C   UNL     1       4.901  -4.047   0.428  0.00  0.00    +0.101 A 
ATOM     37  C   UNL     1       4.865  -5.018  -0.600  0.00  0.00    +0.069 A 
ATOM     38  C   UNL     1       4.675  -6.185   0.060  0.00  0.00    +0.230 A 
ATOM     39  O   UNL     1       4.611  -5.879   1.363  0.00  0.00    -0.363 OA
ATOM     40  N   UNL     1       4.744  -4.691   1.548  0.00  0.00    -0.082 NA
ENDBRANCH  35  36
ENDBRANCH  33  35
ENDBRANCH   4  31
TORSDOF 9
