REMARK  Name = ZINC46280765
REMARK  9 active torsions:
REMARK  status: ('A' for Active; 'I' for Inactive)
REMARK    1  A    between atoms: C_1  and  C_2
REMARK    2  A    between atoms: C_2  and  N_3
REMARK    3  A    between atoms: N_3  and  C_4
REMARK    4  A    between atoms: N_3  and  C_6
REMARK    5  A    between atoms: C_4  and  C_5
REMARK    6  A    between atoms: C_6  and  C_8
REMARK    7  A    between atoms: C_6  and  C_9
REMARK    8  A    between atoms: C_9  and  N_10
REMARK    9  A    between atoms: C_17  and  C_19
REMARK                            x       y       z     vdW  Elec       q    Type
REMARK                         _______ _______ _______ _____ _____    ______ ____
ROOT
ATOM      1  N   UNL     1       1.570  -1.370   3.901  0.00  0.00    -0.301 N 
ATOM      2  C   UNL     1       2.295  -1.294   5.034  0.00  0.00    +0.303 C 
ATOM      3  O   UNL     1       3.460  -1.643   5.035  0.00  0.00    -0.253 OA
ATOM      4  N   UNL     1       1.729  -0.830   6.166  0.00  0.00    -0.279 N 
ATOM      5  C   UNL     1       0.332  -0.381   6.307  0.00  0.00    +0.110 C 
ATOM      6  C   UNL     1       0.011  -0.550   7.813  0.00  0.00    +0.021 C 
ATOM      7  C   UNL     1       1.360  -0.148   8.466  0.00  0.00    +0.029 C 
ATOM      8  C   UNL     1       2.402  -0.694   7.467  0.00  0.00    +0.108 C 
ATOM      9  H   UNL     1       0.640  -1.092   3.900  0.00  0.00    +0.150 HD
ENDROOT
BRANCH   8  10
ATOM     10  C   UNL     1       3.552   0.273   7.350  0.00  0.00    -0.023 A 
ATOM     11  C   UNL     1       3.423   1.408   6.571  0.00  0.00    +0.009 A 
ATOM     12  C   UNL     1       4.476   2.296   6.461  0.00  0.00    +0.050 A 
ATOM     13  C   UNL     1       5.664   2.052   7.132  0.00  0.00    +0.162 A 
ATOM     14  C   UNL     1       5.793   0.912   7.918  0.00  0.00    +0.162 A 
ATOM     15  C   UNL     1       4.731   0.027   8.027  0.00  0.00    +0.055 A 
ATOM     16  O   UNL     1       6.948   0.657   8.591  0.00  0.00    -0.485 OA
ATOM     17  C   UNL     1       8.112   1.374   8.166  0.00  0.00    +0.270 C 
ATOM     18  C   UNL     1       7.732   2.850   7.994  0.00  0.00    +0.270 C 
ATOM     19  O   UNL     1       6.694   2.934   7.011  0.00  0.00    -0.485 OA
ENDBRANCH   8  10
BRANCH   1  20
ATOM     20  C   UNL     1       2.184  -1.874   2.670  0.00  0.00    +0.090 C 
BRANCH  20  21
ATOM     21  C   UNL     1       1.195  -1.735   1.512  0.00  0.00    -0.054 C 
ATOM     22  C   UNL     1       1.882  -2.134   0.204  0.00  0.00    -0.012 C 
BRANCH  21  23
ATOM     23  N   UNL     1       0.741  -0.341   1.421  0.00  0.00    +0.382 N 
ATOM     24  H   UNL     1       0.373  -0.048   2.314  0.00  0.00    -0.081 HD
BRANCH  23  26
ATOM     25  C   UNL     1       1.436   1.985   1.101  0.00  0.00    -0.017 C 
ATOM     26  C   UNL     1       1.872   0.520   1.051  0.00  0.00    -0.082 C 
ENDBRANCH  23  26
BRANCH  23  27
ATOM     27  C   UNL     1      -0.310  -0.234   0.400  0.00  0.00    -0.082 C 
ATOM     28  C   UNL     1      -1.545  -1.014   0.856  0.00  0.00    -0.017 C 
ENDBRANCH  23  27
ENDBRANCH  21  23
ENDBRANCH  20  21
ENDBRANCH   1  20
TORSDOF 6
