REMARK  Name = ZINC63384207
REMARK  13 active torsions:
REMARK  status: ('A' for Active; 'I' for Inactive)
REMARK    1  A    between atoms: C_1  and  C_2
REMARK    2  A    between atoms: C_2  and  C_3
REMARK    3  A    between atoms: C_3  and  C_4
REMARK    4  A    between atoms: C_4  and  C_5
REMARK    5  A    between atoms: C_5  and  C_6
REMARK    6  A    between atoms: C_6  and  N_7
REMARK    7  A    between atoms: C_8  and  C_10
REMARK    8  A    between atoms: C_10  and  C_12
REMARK    9  A    between atoms: C_10  and  N_16
REMARK   10  A    between atoms: C_12  and  C_13
REMARK   11  A    between atoms: C_13  and  S_14
REMARK   12  A    between atoms: S_14  and  C_15
REMARK   13  A    between atoms: C_17  and  C_19
REMARK                            x       y       z     vdW  Elec       q    Type
REMARK                         _______ _______ _______ _____ _____    ______ ____
ROOT
ATOM      1  C   UNL     1       4.005  -9.960  -5.898  0.00  0.00    +0.167 C 
ATOM      2  C   UNL     1       2.636 -10.495  -6.360  0.00  0.00    +0.065 C 
ATOM      3  C   UNL     1       2.564 -11.944  -5.946  0.00  0.00    -0.034 C 
ATOM      4  C   UNL     1       2.292 -13.036  -6.654  0.00  0.00    -0.001 A 
ATOM      5  C   UNL     1       1.872 -13.214  -8.053  0.00  0.00    +0.010 A 
ATOM      6  C   UNL     1       1.695 -14.497  -8.466  0.00  0.00    +0.001 A 
ATOM      7  C   UNL     1       1.892 -15.606  -7.638  0.00  0.00    +0.002 A 
ATOM      8  C   UNL     1       2.269 -15.534  -6.336  0.00  0.00    +0.026 A 
ATOM      9  C   UNL     1       2.478 -14.237  -5.785  0.00  0.00    +0.043 A 
ATOM     10  N   UNL     1       2.815 -13.878  -4.582  0.00  0.00    -0.375 N 
ATOM     11  C   UNL     1       2.834 -12.415  -4.522  0.00  0.00    +0.131 C 
ATOM     12  C   UNL     1       4.221 -11.883  -4.143  0.00  0.00    +0.134 C 
ATOM     13  N   UNL     1       4.265 -10.459  -4.541  0.00  0.00    -0.276 N 
ATOM     14  C   UNL     1       4.568  -9.718  -3.459  0.00  0.00    +0.248 C 
ATOM     15  O   UNL     1       4.762  -8.518  -3.470  0.00  0.00    -0.270 OA
ATOM     16  C   UNL     1       4.630 -10.567  -2.268  0.00  0.00    +0.042 A 
ATOM     17  C   UNL     1       4.423 -11.926  -2.663  0.00  0.00    -0.013 A 
ATOM     18  C   UNL     1       4.428 -12.972  -1.768  0.00  0.00    +0.006 A 
ATOM     19  C   UNL     1       4.657 -12.659  -0.431  0.00  0.00    +0.000 A 
ATOM     20  C   UNL     1       4.871 -11.360  -0.015  0.00  0.00    +0.001 A 
ATOM     21  C   UNL     1       4.857 -10.244  -0.928  0.00  0.00    +0.013 A 
ATOM     22  H   UNL     1       3.020 -14.478  -3.848  0.00  0.00    +0.160 HD
ENDROOT
BRANCH   1  24
ATOM     23  N   UNL     1       3.210  -7.795  -5.005  0.00  0.00    -0.302 N 
ATOM     24  C   UNL     1       3.985  -8.453  -5.890  0.00  0.00    +0.235 C 
ATOM     25  O   UNL     1       4.665  -7.833  -6.679  0.00  0.00    -0.274 OA
ATOM     26  H   UNL     1       2.665  -8.290  -4.374  0.00  0.00    +0.150 HD
BRANCH  23  27
ATOM     27  C   UNL     1       3.190  -6.330  -4.997  0.00  0.00    +0.160 C 
BRANCH  27  29
ATOM     28  N   UNL     1       2.705  -4.518  -3.385  0.00  0.00    -0.314 N 
ATOM     29  C   UNL     1       2.791  -5.840  -3.629  0.00  0.00    +0.233 C 
ATOM     30  O   UNL     1       2.547  -6.637  -2.747  0.00  0.00    -0.274 OA
ATOM     31  H   UNL     1       2.900  -3.881  -4.090  0.00  0.00    +0.149 HD
BRANCH  28  32
ATOM     32  C   UNL     1       2.317  -4.042  -2.054  0.00  0.00    +0.104 C 
BRANCH  32  33
ATOM     33  C   UNL     1       2.297  -2.512  -2.046  0.00  0.00    +0.019 C 
BRANCH  33  34
ATOM     34  C   UNL     1       1.892  -2.015  -0.657  0.00  0.00    +0.002 C 
BRANCH  34  35
ATOM     35  C   UNL     1       1.871  -0.485  -0.648  0.00  0.00    -0.000 C 
BRANCH  35  37
ATOM     36  C   UNL     1       1.446   1.542   0.749  0.00  0.00    +0.004 C 
ATOM     37  C   UNL     1       1.466   0.012   0.741  0.00  0.00    -0.003 C 
ENDBRANCH  35  37
ENDBRANCH  34  35
ENDBRANCH  33  34
ENDBRANCH  32  33
ENDBRANCH  28  32
ENDBRANCH  27  29
BRANCH  27  38
ATOM     38  C   UNL     1       2.181  -5.828  -6.032  0.00  0.00    +0.042 C 
BRANCH  38  39
ATOM     39  C   UNL     1       2.652  -6.218  -7.435  0.00  0.00    +0.071 C 
BRANCH  39  40
ATOM     40  S   UNL     1       1.456  -5.623  -8.662  0.00  0.00    -0.164 S 
ATOM     41  C   UNL     1       2.152  -6.160 -10.249  0.00  0.00    +0.084 C 
ENDBRANCH  39  40
ENDBRANCH  38  39
ENDBRANCH  27  38
ENDBRANCH  23  27
ENDBRANCH   1  24
TORSDOF 11
