REMARK  Name = ZINC09611492
REMARK  12 active torsions:
REMARK  status: ('A' for Active; 'I' for Inactive)
REMARK    1  A    between atoms: C_1  and  C_2
REMARK    2  A    between atoms: C_2  and  N_3
REMARK    3  A    between atoms: N_3  and  C_4
REMARK    4  A    between atoms: N_3  and  C_33
REMARK    5  A    between atoms: C_4  and  C_5
REMARK    6  A    between atoms: C_5  and  N_6
REMARK    7  A    between atoms: C_7  and  C_9
REMARK    8  A    between atoms: C_9  and  C_11
REMARK    9  A    between atoms: C_9  and  N_18
REMARK   10  A    between atoms: C_11  and  C_12
REMARK   11  A    between atoms: N_18  and  S_19
REMARK   12  A    between atoms: S_19  and  C_22
REMARK                            x       y       z     vdW  Elec       q    Type
REMARK                         _______ _______ _______ _____ _____    ______ ____
ROOT
ATOM      1  C   UNL     1       2.932   7.917   2.137  0.00  0.00    +0.166 C 
ENDROOT
BRANCH   1   3
ATOM      2  N   UNL     1       4.642   8.766   3.710  0.00  0.00    -0.312 N 
ATOM      3  C   UNL     1       3.429   8.923   3.143  0.00  0.00    +0.232 C 
ATOM      4  O   UNL     1       2.739   9.874   3.442  0.00  0.00    -0.274 OA
ATOM      5  H   UNL     1       5.195   8.005   3.471  0.00  0.00    +0.149 HD
BRANCH   2   6
ATOM      6  C   UNL     1       5.125   9.743   4.688  0.00  0.00    +0.123 C 
BRANCH   6   7
ATOM      7  C   UNL     1       6.517   9.334   5.173  0.00  0.00    +0.124 C 
BRANCH   7   8
ATOM      8  N   UNL     1       7.001  10.311   6.152  0.00  0.00    -0.329 N 
BRANCH   8   9
ATOM      9  C   UNL     1       6.730  10.132   7.510  0.00  0.00    +0.030 A 
ATOM     10  C   UNL     1       5.998   9.031   7.935  0.00  0.00    +0.023 A 
ATOM     11  C   UNL     1       5.737   8.854   9.280  0.00  0.00    +0.002 A 
ATOM     12  C   UNL     1       6.194   9.778  10.201  0.00  0.00    +0.000 A 
ATOM     13  C   UNL     1       6.918  10.879   9.781  0.00  0.00    +0.002 A 
ATOM     14  C   UNL     1       7.188  11.058   8.439  0.00  0.00    +0.023 A 
ENDBRANCH   8   9
BRANCH   8  16
ATOM     15  C   UNL     1       6.811  12.632   5.404  0.00  0.00    +0.024 C 
ATOM     16  C   UNL     1       7.768  11.477   5.705  0.00  0.00    +0.102 C 
ENDBRANCH   8  16
ENDBRANCH   7   8
ENDBRANCH   6   7
ENDBRANCH   2   6
ENDBRANCH   1   3
BRANCH   1  17
ATOM     17  N   UNL     1       1.599   8.309   1.672  0.00  0.00    -0.178 NA
ATOM     18  H   UNL     1       0.813   8.043   2.174  0.00  0.00    +0.149 HD
BRANCH  17  19
ATOM     19  S   UNL     1       1.435   9.207   0.290  0.00  0.00    +0.059 S 
ATOM     20  O   UNL     1       2.325  10.308   0.412  0.00  0.00    -0.153 OA
ATOM     21  O   UNL     1       0.040   9.375   0.078  0.00  0.00    -0.153 OA
BRANCH  19  22
ATOM     22  C   UNL     1       2.032   8.223  -1.044  0.00  0.00    +0.106 A 
ATOM     23  C   UNL     1       3.349   8.337  -1.450  0.00  0.00    +0.030 A 
ATOM     24  C   UNL     1       3.820   7.567  -2.496  0.00  0.00    +0.025 A 
ATOM     25  C   UNL     1       2.969   6.678  -3.139  0.00  0.00    +0.037 A 
ATOM     26  C   UNL     1       1.647   6.566  -2.729  0.00  0.00    -0.024 A 
ATOM     27  C   UNL     1       1.182   7.339  -1.683  0.00  0.00    +0.034 A 
ATOM     28  C   UNL     1       0.725   5.601  -3.427  0.00  0.00    +0.046 C 
ATOM     29  C   UNL     1       1.095   5.526  -4.912  0.00  0.00    +0.101 C 
ATOM     30  C   UNL     1       2.578   5.320  -5.056  0.00  0.00    +0.218 C 
ATOM     31  O   UNL     1       3.002   4.631  -5.960  0.00  0.00    -0.275 OA
ATOM     32  N   UNL     1       3.440   5.895  -4.198  0.00  0.00    -0.285 N 
ATOM     33  H   UNL     1       4.394   5.766  -4.314  0.00  0.00    +0.155 HD
ENDBRANCH  19  22
ENDBRANCH  17  19
ENDBRANCH   1  17
BRANCH   1  34
ATOM     34  C   UNL     1       2.858   6.536   2.790  0.00  0.00    +0.065 C 
BRANCH  34  35
ATOM     35  C   UNL     1       2.494   5.507   1.751  0.00  0.00    -0.045 A 
ATOM     36  C   UNL     1       1.166   5.241   1.477  0.00  0.00    +0.004 A 
ATOM     37  C   UNL     1       0.832   4.301   0.520  0.00  0.00    +0.000 A 
ATOM     38  C   UNL     1       1.827   3.620  -0.156  0.00  0.00    +0.000 A 
ATOM     39  C   UNL     1       3.155   3.882   0.121  0.00  0.00    +0.000 A 
ATOM     40  C   UNL     1       3.489   4.826   1.075  0.00  0.00    +0.004 A 
ENDBRANCH  34  35
ENDBRANCH   1  34
TORSDOF 11
