REMARK  Name = ZINC00705889
REMARK  14 active torsions:
REMARK  status: ('A' for Active; 'I' for Inactive)
REMARK    1  A    between atoms: C_1  and  C_2
REMARK    2  A    between atoms: C_2  and  O_3
REMARK    3  A    between atoms: O_3  and  C_4
REMARK    4  A    between atoms: C_4  and  C_6
REMARK    5  A    between atoms: C_7  and  C_23
REMARK    6  A    between atoms: C_9  and  N_22
REMARK    7  A    between atoms: C_10  and  C_20
REMARK    8  A    between atoms: C_11  and  C_13
REMARK    9  A    between atoms: C_23  and  S_24
REMARK   10  A    between atoms: S_24  and  C_25
REMARK   11  A    between atoms: C_26  and  C_34
REMARK   12  A    between atoms: C_27  and  C_33
REMARK   13  A    between atoms: C_28  and  C_32
REMARK   14  A    between atoms: C_29  and  C_31
REMARK                            x       y       z     vdW  Elec       q    Type
REMARK                         _______ _______ _______ _____ _____    ______ ____
ROOT
ATOM      1  C   UNL     1      -2.797  -2.411   0.126  0.00  0.00    +0.088 C 
ATOM      2  C   UNL     1      -2.945  -3.725  -0.086  0.00  0.00    +0.128 C 
ATOM      3  O   UNL     1      -4.155  -4.295  -0.193  0.00  0.00    -0.444 OA
ATOM      4  C   UNL     1      -5.233  -3.535  -0.463  0.00  0.00    +0.198 C 
ATOM      5  C   UNL     1      -5.219  -2.194  -0.270  0.00  0.00    +0.098 C 
ATOM      6  C   UNL     1      -3.990  -1.505   0.262  0.00  0.00    +0.106 C 
ENDROOT
BRANCH   6   7
ATOM      7  C   UNL     1      -4.194  -1.160   1.715  0.00  0.00    -0.020 A 
ATOM      8  C   UNL     1      -4.422  -2.163   2.638  0.00  0.00    +0.005 A 
ATOM      9  C   UNL     1      -4.608  -1.847   3.971  0.00  0.00    +0.000 A 
ATOM     10  C   UNL     1      -4.566  -0.527   4.381  0.00  0.00    +0.001 A 
ATOM     11  C   UNL     1      -4.338   0.476   3.459  0.00  0.00    +0.015 A 
ATOM     12  C   UNL     1      -4.146   0.160   2.126  0.00  0.00    +0.022 A 
ATOM     13 BR   UNL     1      -3.827   1.532   0.864  0.00  0.00    -0.050 Br
ENDBRANCH   6   7
BRANCH   4  14
ATOM     14  N   UNL     1      -6.372  -4.132  -0.944  0.00  0.00    -0.328 N 
ATOM     15  H   UNL     1      -6.393  -5.092  -1.086  0.00  0.00    +0.145 HD
ATOM     16  H   UNL     1      -7.154  -3.595  -1.142  0.00  0.00    +0.145 HD
ENDBRANCH   4  14
BRANCH   1  17
ATOM     17  C   UNL     1      -1.494  -1.866   0.231  0.00  0.00    +0.339 C 
ATOM     18  O   UNL     1      -0.999  -1.285  -0.717  0.00  0.00    -0.245 OA
BRANCH  17  19
ATOM     19  O   UNL     1      -0.801  -1.990   1.382  0.00  0.00    -0.462 OA
BRANCH  19  21
ATOM     20  C   UNL     1       1.133  -1.655   2.792  0.00  0.00    +0.048 C 
ATOM     21  C   UNL     1       0.507  -1.416   1.417  0.00  0.00    +0.229 C 
ENDBRANCH  19  21
ENDBRANCH  17  19
ENDBRANCH   1  17
BRANCH   5  22
ATOM     22  C   UNL     1      -6.388  -1.424  -0.572  0.00  0.00    +0.101 C 
ATOM     23  N   UNL     1      -7.315  -0.813  -0.812  0.00  0.00    -0.191 NA
ENDBRANCH   5  22
BRANCH   2  24
ATOM     24  C   UNL     1      -1.716  -4.589  -0.209  0.00  0.00    +0.150 C 
BRANCH  24  25
ATOM     25  S   UNL     1      -1.492  -5.543   1.318  0.00  0.00    -0.097 S 
BRANCH  25  26
ATOM     26  C   UNL     1      -0.036  -6.489   1.020  0.00  0.00    +0.115 A 
ATOM     27  C   UNL     1       0.443  -7.367   2.009  0.00  0.00    +0.087 A 
ATOM     28  C   UNL     1       1.601  -8.107   1.749  0.00  0.00    -0.026 A 
ATOM     29  C   UNL     1       2.226  -7.942   0.525  0.00  0.00    -0.025 A 
ATOM     30  C   UNL     1       1.695  -7.059  -0.398  0.00  0.00    +0.043 A 
ATOM     31  N   UNL     1       0.599  -6.373  -0.136  0.00  0.00    -0.244 NA
ATOM     32  C   UNL     1       2.378  -6.882  -1.729  0.00  0.00    +0.066 C 
ATOM     33  C   UNL     1       3.477  -8.718   0.201  0.00  0.00    +0.046 C 
ATOM     34  C   UNL     1       2.155  -9.061   2.776  0.00  0.00    +0.045 C 
BRANCH  27  35
ATOM     35  C   UNL     1      -0.242  -7.500   3.260  0.00  0.00    +0.102 C 
ATOM     36  N   UNL     1      -0.786  -7.605   4.252  0.00  0.00    -0.191 NA
ENDBRANCH  27  35
ENDBRANCH  25  26
ENDBRANCH  24  25
ENDBRANCH   2  24
TORSDOF 10
