REMARK  Name = ZINC02193387
REMARK  9 active torsions:
REMARK  status: ('A' for Active; 'I' for Inactive)
REMARK    1  A    between atoms: C_1  and  C_2
REMARK    2  A    between atoms: C_2  and  C_3
REMARK    3  A    between atoms: C_2  and  C_4
REMARK    4  A    between atoms: C_4  and  C_5
REMARK    5  A    between atoms: C_5  and  N_6
REMARK    6  A    between atoms: C_7  and  C_9
REMARK    7  A    between atoms: N_20  and  N_23
REMARK    8  A    between atoms: C_21  and  N_22
REMARK    9  A    between atoms: C_24  and  C_25
REMARK                            x       y       z     vdW  Elec       q    Type
REMARK                         _______ _______ _______ _____ _____    ______ ____
ROOT
ATOM      1  C   UNL     1       1.555  -2.056  -0.023  0.00  0.00    +0.105 A 
ATOM      2  C   UNL     1       1.157  -0.638  -0.012  0.00  0.00    +0.124 A 
ATOM      3  C   UNL     1       2.413   0.118  -0.019  0.00  0.00    +0.183 A 
ATOM      4  N   UNL     1       2.376   1.433  -0.012  0.00  0.00    -0.224 NA
ATOM      5  C   UNL     1       1.197   2.067   0.002  0.00  0.00    +0.092 A 
ATOM      6  C   UNL     1       1.149   3.474   0.009  0.00  0.00    +0.030 A 
ATOM      7  C   UNL     1      -0.054   4.110   0.024  0.00  0.00    +0.002 A 
ATOM      8  C   UNL     1      -1.246   3.389   0.031  0.00  0.00    +0.002 A 
ATOM      9  C   UNL     1      -1.240   2.029   0.019  0.00  0.00    +0.030 A 
ATOM     10  C   UNL     1      -0.016   1.334   0.009  0.00  0.00    +0.090 A 
ATOM     11  N   UNL     1       0.002  -0.004   0.002  0.00  0.00    -0.241 NA
ATOM     12  N   UNL     1       3.440  -0.806  -0.033  0.00  0.00    -0.198 N 
ATOM     13  C   UNL     1       2.945  -2.077  -0.035  0.00  0.00    +0.134 A 
ENDROOT
BRANCH   1  15
ATOM     14  N   UNL     1       0.263  -3.753   1.148  0.00  0.00    -0.311 N 
ATOM     15  C   UNL     1       0.663  -3.214  -0.020  0.00  0.00    +0.250 C 
ATOM     16  O   UNL     1       0.282  -3.691  -1.074  0.00  0.00    -0.270 OA
ATOM     17  H   UNL     1       0.567  -3.373   1.987  0.00  0.00    +0.149 HD
BRANCH  14  18
ATOM     18  C   UNL     1      -0.631  -4.914   1.151  0.00  0.00    +0.105 C 
BRANCH  18  19
ATOM     19  C   UNL     1      -0.928  -5.326   2.594  0.00  0.00    +0.022 C 
BRANCH  19  21
ATOM     20  C   UNL     1      -1.143  -7.737   1.974  0.00  0.00    +0.007 C 
ATOM     21  C   UNL     1      -1.862  -6.538   2.596  0.00  0.00    -0.016 C 
ATOM     22  C   UNL     1      -2.259  -6.872   4.035  0.00  0.00    +0.007 C 
ENDBRANCH  19  21
ENDBRANCH  18  19
ENDBRANCH  14  18
ENDBRANCH   1  15
BRANCH  13  23
ATOM     23  N   UNL     1       3.711  -3.215  -0.047  0.00  0.00    -0.342 N 
ATOM     24  H   UNL     1       3.284  -4.086  -0.048  0.00  0.00    +0.144 HD
ATOM     25  H   UNL     1       4.678  -3.148  -0.056  0.00  0.00    +0.144 HD
ENDBRANCH  13  23
BRANCH  12  26
ATOM     26  N   UNL     1       4.803  -0.482  -0.044  0.00  0.00    -0.171 NA
ATOM     27  C   UNL     1       5.424  -0.327  -1.172  0.00  0.00    +0.141 C 
BRANCH  27  28
ATOM     28  C   UNL     1       6.859   0.014  -1.183  0.00  0.00    -0.005 A 
ATOM     29  C   UNL     1       7.551   0.177   0.019  0.00  0.00    +0.009 A 
ATOM     30  C   UNL     1       8.894   0.490   0.001  0.00  0.00    +0.001 A 
ATOM     31  C   UNL     1       9.553   0.655  -1.204  0.00  0.00    +0.000 A 
ATOM     32  C   UNL     1       8.873   0.501  -2.399  0.00  0.00    +0.001 A 
ATOM     33  C   UNL     1       7.531   0.182  -2.397  0.00  0.00    +0.009 A 
ENDBRANCH  27  28
ENDBRANCH  12  26
TORSDOF 7
