REMARK  Name = ZINC36595238
REMARK  12 active torsions:
REMARK  status: ('A' for Active; 'I' for Inactive)
REMARK    1  A    between atoms: C_1  and  C_2
REMARK    2  A    between atoms: C_5  and  C_7
REMARK    3  A    between atoms: C_7  and  N_8
REMARK    4  A    between atoms: N_8  and  C_9
REMARK    5  A    between atoms: C_9  and  C_11
REMARK    6  A    between atoms: C_9  and  C_17
REMARK    7  A    between atoms: N_19  and  C_20
REMARK    8  A    between atoms: C_20  and  C_21
REMARK    9  A    between atoms: C_20  and  C_22
REMARK   10  A    between atoms: C_20  and  C_23
REMARK   11  A    between atoms: C_24  and  C_26
REMARK   12  A    between atoms: C_31  and  O_32
REMARK                            x       y       z     vdW  Elec       q    Type
REMARK                         _______ _______ _______ _____ _____    ______ ____
ROOT
ATOM      1  N   UNL     1       0.516  -7.727  -7.401  0.00  0.00    -0.278 N 
ATOM      2  C   UNL     1       0.768  -7.738  -6.077  0.00  0.00    +0.251 C 
ATOM      3  O   UNL     1      -0.112  -7.448  -5.289  0.00  0.00    -0.270 OA
ENDROOT
BRANCH   2   4
ATOM      4  C   UNL     1       2.110  -8.101  -5.584  0.00  0.00    +0.078 A 
ATOM      5  C   UNL     1       3.226  -7.354  -5.970  0.00  0.00    +0.017 A 
ATOM      6  C   UNL     1       4.477  -7.699  -5.505  0.00  0.00    +0.001 A 
ATOM      7  C   UNL     1       4.633  -8.783  -4.657  0.00  0.00    +0.004 A 
ATOM      8  C   UNL     1       3.539  -9.529  -4.268  0.00  0.00    +0.046 A 
ATOM      9  C   UNL     1       2.272  -9.194  -4.722  0.00  0.00    +0.129 A 
BRANCH   9  10
ATOM     10  O   UNL     1       1.195  -9.923  -4.336  0.00  0.00    -0.506 OA
ATOM     11  H   UNL     1       0.995 -10.667  -4.920  0.00  0.00    +0.292 HD
ENDBRANCH   9  10
ENDBRANCH   2   4
BRANCH   1  12
ATOM     12  C   UNL     1      -0.852  -7.527  -7.886  0.00  0.00    +0.183 C 
BRANCH  12  17
ATOM     13  C   UNL     1      -3.374 -11.894  -7.958  0.00  0.00    +0.086 C 
ATOM     14  C   UNL     1      -2.811 -10.581  -7.478  0.00  0.00    +0.102 A 
ATOM     15  C   UNL     1      -3.011 -10.035  -6.265  0.00  0.00    +0.045 A 
ATOM     16  C   UNL     1      -2.304  -8.811  -6.245  0.00  0.00    +0.046 A 
ATOM     17  C   UNL     1      -1.714  -8.682  -7.447  0.00  0.00    +0.122 A 
ATOM     18  O   UNL     1      -2.020  -9.759  -8.188  0.00  0.00    -0.463 OA
ENDBRANCH  12  17
ENDBRANCH   1  12
BRANCH   1  19
ATOM     19  C   UNL     1       1.611  -7.916  -8.356  0.00  0.00    +0.166 C 
BRANCH  19  20
ATOM     20  C   UNL     1       1.858  -6.610  -9.114  0.00  0.00    +0.019 C 
ATOM     21  C   UNL     1       0.632  -6.274  -9.965  0.00  0.00    +0.006 C 
ATOM     22  C   UNL     1       0.879  -4.968 -10.723  0.00  0.00    +0.000 C 
ATOM     23  C   UNL     1       2.100  -5.127 -11.629  0.00  0.00    +0.000 C 
ATOM     24  C   UNL     1       3.327  -5.463 -10.778  0.00  0.00    +0.000 C 
ATOM     25  C   UNL     1       3.080  -6.769 -10.021  0.00  0.00    +0.006 C 
ENDBRANCH  19  20
BRANCH  19  26
ATOM     26  C   UNL     1       1.243  -9.002  -9.334  0.00  0.00    +0.234 C 
ATOM     27  O   UNL     1       0.109  -9.078  -9.758  0.00  0.00    -0.274 OA
ATOM     28  N   UNL     1       2.174  -9.889  -9.738  0.00  0.00    -0.309 N 
ATOM     29  H   UNL     1       3.081  -9.828  -9.399  0.00  0.00    +0.149 HD
BRANCH  28  30
ATOM     30  C   UNL     1       1.816 -10.944 -10.689  0.00  0.00    +0.026 C 
ATOM     31  C   UNL     1       1.319 -10.312 -11.990  0.00  0.00    +0.031 C 
ATOM     32  C   UNL     1       3.046 -11.808 -10.979  0.00  0.00    +0.031 C 
ATOM     33  C   UNL     1       0.711 -11.816 -10.090  0.00  0.00    +0.031 C 
ENDBRANCH  28  30
ENDBRANCH  19  26
ENDBRANCH   1  19
TORSDOF 8
