REMARK  Name = ZINC36610126
REMARK  9 active torsions:
REMARK  status: ('A' for Active; 'I' for Inactive)
REMARK    1  A    between atoms: C_4  and  N_7
REMARK    2  A    between atoms: N_7  and  C_8
REMARK    3  A    between atoms: C_8  and  C_10
REMARK    4  A    between atoms: C_8  and  C_20
REMARK    5  A    between atoms: C_12  and  N_17
REMARK    6  A    between atoms: N_22  and  C_23
REMARK    7  A    between atoms: C_29  and  C_31
REMARK    8  A    between atoms: C_32  and  O_38
REMARK    9  A    between atoms: C_36  and  O_37
REMARK                            x       y       z     vdW  Elec       q    Type
REMARK                         _______ _______ _______ _____ _____    ______ ____
ROOT
ATOM      1  C   UNL     1       3.227  -2.276   0.164  0.00  0.00    +0.199 C 
ENDROOT
BRANCH   1   2
ATOM      2  C   UNL     1       3.152  -2.706   1.606  0.00  0.00    +0.003 A 
ATOM      3  C   UNL     1       2.515  -1.904   2.534  0.00  0.00    +0.040 A 
ATOM      4  C   UNL     1       2.446  -2.298   3.857  0.00  0.00    +0.127 A 
ATOM      5  C   UNL     1       3.014  -3.495   4.253  0.00  0.00    +0.034 A 
ATOM      6  C   UNL     1       3.650  -4.298   3.326  0.00  0.00    +0.022 A 
ATOM      7  C   UNL     1       3.715  -3.907   2.000  0.00  0.00    +0.047 A 
ATOM      8 CL   UNL     1       4.507  -4.919   0.833  0.00  0.00    -0.083 Cl
BRANCH   4   9
ATOM      9  N   UNL     1       1.765  -1.438   4.851  0.00  0.00    +0.056 N 
ATOM     10  O   UNL     1       1.269  -0.391   4.505  0.00  0.00    -0.126 OA
ATOM     11  O   UNL     1       1.705  -1.782   6.008  0.00  0.00    -0.126 OA
ENDBRANCH   4   9
ENDBRANCH   1   2
BRANCH   1  12
ATOM     12  C   UNL     1       2.090  -2.897  -0.606  0.00  0.00    +0.239 C 
ATOM     13  O   UNL     1       1.380  -2.204  -1.304  0.00  0.00    -0.273 OA
ATOM     14  N   UNL     1       1.861  -4.223  -0.518  0.00  0.00    -0.311 N 
ATOM     15  H   UNL     1       2.429  -4.777   0.040  0.00  0.00    +0.149 HD
BRANCH  14  16
ATOM     16  C   UNL     1       0.756  -4.826  -1.266  0.00  0.00    +0.073 C 
ATOM     17  C   UNL     1      -0.537  -4.699  -0.458  0.00  0.00    +0.022 C 
ATOM     18  C   UNL     1      -1.692  -5.329  -1.239  0.00  0.00    +0.002 C 
ATOM     19  C   UNL     1      -1.390  -6.808  -1.489  0.00  0.00    +0.000 C 
ATOM     20  C   UNL     1      -0.098  -6.936  -2.297  0.00  0.00    +0.002 C 
ATOM     21  C   UNL     1       1.057  -6.305  -1.516  0.00  0.00    +0.022 C 
ENDBRANCH  14  16
ENDBRANCH   1  12
BRANCH   1  22
ATOM     22  N   UNL     1       3.131  -0.816   0.084  0.00  0.00    -0.251 N 
ATOM     23  C   UNL     1       4.182  -0.051   0.439  0.00  0.00    +0.259 C 
ATOM     24  O   UNL     1       5.241  -0.572   0.735  0.00  0.00    -0.269 OA
BRANCH  22  28
ATOM     25  C   UNL     1      -0.391   0.969  -1.242  0.00  0.00    +0.000 A 
ATOM     26  C   UNL     1       0.781   1.141  -1.956  0.00  0.00    +0.002 A 
ATOM     27  C   UNL     1       1.950   0.550  -1.519  0.00  0.00    +0.023 A 
ATOM     28  C   UNL     1       1.948  -0.217  -0.361  0.00  0.00    +0.038 A 
ATOM     29  C   UNL     1       0.770  -0.387   0.353  0.00  0.00    +0.023 A 
ATOM     30  C   UNL     1      -0.396   0.206  -0.089  0.00  0.00    +0.002 A 
ENDBRANCH  22  28
BRANCH  23  31
ATOM     31  C   UNL     1       4.049   1.414   0.469  0.00  0.00    +0.120 A 
ATOM     32  C   UNL     1       3.492   2.050   1.589  0.00  0.00    +0.133 A 
ATOM     33  C   UNL     1       3.372   3.430   1.607  0.00  0.00    +0.046 A 
ATOM     34  C   UNL     1       3.798   4.180   0.527  0.00  0.00    +0.007 A 
ATOM     35  C   UNL     1       4.348   3.564  -0.582  0.00  0.00    +0.046 A 
ATOM     36  C   UNL     1       4.483   2.186  -0.619  0.00  0.00    +0.133 A 
BRANCH  36  37
ATOM     37  O   UNL     1       5.029   1.584  -1.705  0.00  0.00    -0.506 OA
ATOM     38  H   UNL     1       4.401   1.423  -2.422  0.00  0.00    +0.292 HD
ENDBRANCH  36  37
BRANCH  32  39
ATOM     39  O   UNL     1       3.072   1.316   2.650  0.00  0.00    -0.506 OA
ATOM     40  H   UNL     1       3.753   1.168   3.320  0.00  0.00    +0.292 HD
ENDBRANCH  32  39
ENDBRANCH  23  31
ENDBRANCH   1  22
TORSDOF 9
