REMARK  Name = ZINC08797828
REMARK  7 active torsions:
REMARK  status: ('A' for Active; 'I' for Inactive)
REMARK    1  A    between atoms: C_1  and  C_2
REMARK    2  A    between atoms: N_5  and  S_11
REMARK    3  A    between atoms: C_7  and  C_10
REMARK    4  A    between atoms: S_11  and  C_14
REMARK    5  A    between atoms: C_17  and  C_20
REMARK    6  A    between atoms: C_20  and  N_22
REMARK    7  A    between atoms: N_24  and  C_34
REMARK                            x       y       z     vdW  Elec       q    Type
REMARK                         _______ _______ _______ _____ _____    ______ ____
ROOT
ATOM      1  C   UNL     1      -0.103   1.926  -1.580  0.00  0.00    +0.106 A 
ATOM      2  C   UNL     1      -1.301   2.575  -1.337  0.00  0.00    +0.029 A 
ATOM      3  C   UNL     1      -1.311   3.924  -1.048  0.00  0.00    +0.015 A 
ATOM      4  C   UNL     1      -0.112   4.636  -1.012  0.00  0.00    +0.039 A 
ATOM      5  C   UNL     1       1.091   3.977  -1.263  0.00  0.00    +0.015 A 
ATOM      6  C   UNL     1       1.089   2.627  -1.545  0.00  0.00    +0.029 A 
ENDROOT
BRANCH   1   7
ATOM      7  S   UNL     1      -0.097   0.202  -1.941  0.00  0.00    +0.061 S 
ATOM      8  O   UNL     1      -1.386  -0.111  -2.450  0.00  0.00    -0.153 OA
ATOM      9  O   UNL     1       1.094  -0.056  -2.672  0.00  0.00    -0.153 OA
BRANCH   7  13
ATOM     10  C   UNL     1      -2.088  -1.076   2.586  0.00  0.00    +0.039 C 
ATOM     11  C   UNL     1      -0.960  -0.516   1.717  0.00  0.00    +0.131 C 
ATOM     12  C   UNL     1      -1.140  -0.995   0.272  0.00  0.00    +0.140 C 
ATOM     13  N   UNL     1       0.049  -0.600  -0.499  0.00  0.00    -0.172 NA
ATOM     14  C   UNL     1       1.372  -0.945   0.045  0.00  0.00    +0.140 C 
ATOM     15  C   UNL     1       1.430  -0.463   1.504  0.00  0.00    +0.131 C 
ATOM     16  O   UNL     1       0.300  -0.977   2.212  0.00  0.00    -0.371 OA
ATOM     17  C   UNL     1       1.407   1.066   1.544  0.00  0.00    +0.039 C 
ENDBRANCH   7  13
ENDBRANCH   1   7
BRANCH   4  18
ATOM     18  C   UNL     1      -0.117   6.086  -0.709  0.00  0.00    +0.269 C 
ATOM     19  O   UNL     1       0.931   6.706  -0.678  0.00  0.00    -0.268 OA
BRANCH  18  20
ATOM     20  N   UNL     1      -1.272   6.715  -0.469  0.00  0.00    -0.152 NA
ATOM     21  C   UNL     1      -1.277   8.015  -0.197  0.00  0.00    +0.167 A 
ATOM     22  N   UNL     1      -2.342   8.818   0.071  0.00  0.00    -0.323 N 
ATOM     23  C   UNL     1      -2.149  10.162   0.334  0.00  0.00    +0.077 A 
ATOM     24  C   UNL     1      -3.114  11.139   0.629  0.00  0.00    +0.066 A 
ATOM     25  C   UNL     1      -2.744  12.443   0.868  0.00  0.00    +0.023 A 
ATOM     26  C   UNL     1      -1.416  12.832   0.824  0.00  0.00    +0.022 A 
ATOM     27  C   UNL     1      -0.444  11.888   0.536  0.00  0.00    +0.057 A 
ATOM     28  C   UNL     1      -0.813  10.584   0.297  0.00  0.00    +0.059 A 
ATOM     29  S   UNL     1       0.075   9.097  -0.090  0.00  0.00    -0.051 S 
ATOM     30 CL   UNL     1       1.229  12.348   0.474  0.00  0.00    -0.082 Cl
ATOM     31 CL   UNL     1      -4.791  10.697   0.694  0.00  0.00    -0.081 Cl
ATOM     32  C   UNL     1      -3.696   8.258   0.081  0.00  0.00    +0.151 C 
ENDBRANCH  18  20
ENDBRANCH   4  18
TORSDOF 4
