REMARK  Name = ZINC33307096
REMARK  10 active torsions:
REMARK  status: ('A' for Active; 'I' for Inactive)
REMARK    1  A    between atoms: C_1  and  C_2
REMARK    2  A    between atoms: C_5  and  C_8
REMARK    3  A    between atoms: C_10  and  C_13
REMARK    4  A    between atoms: C_18  and  S_19
REMARK    5  A    between atoms: S_19  and  N_22
REMARK    6  A    between atoms: N_22  and  C_23
REMARK    7  A    between atoms: C_23  and  C_24
REMARK    8  A    between atoms: C_24  and  C_25
REMARK    9  A    between atoms: C_28  and  S_31
REMARK   10  A    between atoms: S_31  and  N_34
REMARK                            x       y       z     vdW  Elec       q    Type
REMARK                         _______ _______ _______ _____ _____    ______ ____
ROOT
ATOM      1  S   UNL     1       0.116   5.502   0.009  0.00  0.00    +0.059 S 
ATOM      2  O   UNL     1      -1.217   5.966   0.181  0.00  0.00    -0.153 OA
ATOM      3  O   UNL     1       1.136   5.745   0.967  0.00  0.00    -0.153 OA
ENDROOT
BRANCH   1   9
ATOM      4  C   UNL     1       1.174   3.014  -0.443  0.00  0.00    +0.066 A 
ATOM      5  C   UNL     1       1.088   1.629  -0.601  0.00  0.00    +0.015 A 
ATOM      6  C   UNL     1      -0.136   1.002  -0.506  0.00  0.00    +0.001 A 
ATOM      7  C   UNL     1      -1.279   1.743  -0.260  0.00  0.00    +0.002 A 
ATOM      8  C   UNL     1      -1.201   3.114  -0.098  0.00  0.00    +0.029 A 
ATOM      9  C   UNL     1       0.018   3.754  -0.191  0.00  0.00    +0.118 A 
BRANCH   4  12
ATOM     10  C   UNL     1       4.557   4.121  -0.719  0.00  0.00    +0.202 A 
ATOM     11  N   UNL     1       3.663   3.112  -0.661  0.00  0.00    -0.187 NA
ATOM     12  C   UNL     1       2.483   3.693  -0.543  0.00  0.00    +0.261 A 
ATOM     13  O   UNL     1       2.701   5.017  -0.526  0.00  0.00    -0.332 OA
ATOM     14  N   UNL     1       3.888   5.242  -0.627  0.00  0.00    -0.056 NA
BRANCH  10  19
ATOM     15  C   UNL     1      10.268   3.591  -1.248  0.00  0.00    +0.044 C 
ATOM     16  C   UNL     1       8.774   3.730  -1.110  0.00  0.00    -0.050 A 
ATOM     17  C   UNL     1       8.204   4.987  -1.025  0.00  0.00    +0.004 A 
ATOM     18  C   UNL     1       6.836   5.120  -0.897  0.00  0.00    +0.012 A 
ATOM     19  C   UNL     1       6.029   3.985  -0.856  0.00  0.00    +0.022 A 
ATOM     20  C   UNL     1       6.609   2.721  -0.937  0.00  0.00    +0.012 A 
ATOM     21  C   UNL     1       7.978   2.600  -1.069  0.00  0.00    +0.004 A 
ENDBRANCH  10  19
ENDBRANCH   4  12
ENDBRANCH   1   9
BRANCH   1  22
ATOM     22  N   UNL     1       0.654   6.130  -1.426  0.00  0.00    -0.190 NA
ATOM     23  H   UNL     1       1.691   6.487  -1.500  0.00  0.00    +0.148 HD
BRANCH  22  24
ATOM     24  C   UNL     1      -0.168   6.007  -2.633  0.00  0.00    +0.110 C 
BRANCH  24  25
ATOM     25  C   UNL     1       0.341   6.983  -3.696  0.00  0.00    +0.052 C 
BRANCH  25  26
ATOM     26  C   UNL     1      -0.504   6.857  -4.938  0.00  0.00    -0.046 A 
ATOM     27  C   UNL     1      -0.148   5.961  -5.929  0.00  0.00    +0.005 A 
ATOM     28  C   UNL     1      -0.925   5.843  -7.066  0.00  0.00    +0.029 A 
ATOM     29  C   UNL     1      -2.054   6.627  -7.216  0.00  0.00    +0.105 A 
ATOM     30  C   UNL     1      -2.408   7.526  -6.228  0.00  0.00    +0.029 A 
ATOM     31  C   UNL     1      -1.633   7.641  -5.089  0.00  0.00    +0.005 A 
BRANCH  29  32
ATOM     32  S   UNL     1      -3.042   6.479  -8.667  0.00  0.00    +0.056 S 
ATOM     33  O   UNL     1      -2.802   5.180  -9.191  0.00  0.00    -0.153 OA
ATOM     34  O   UNL     1      -4.344   6.931  -8.320  0.00  0.00    -0.153 OA
BRANCH  32  35
ATOM     35  N   UNL     1      -2.448   7.555  -9.776  0.00  0.00    -0.204 NA
ATOM     36  H   UNL     1      -3.040   7.493 -10.701  0.00  0.00    +0.144 HD
ATOM     37  H   UNL     1      -1.398   7.312  -9.997  0.00  0.00    +0.144 HD
ENDBRANCH  32  35
ENDBRANCH  29  32
ENDBRANCH  25  26
ENDBRANCH  24  25
ENDBRANCH  22  24
ENDBRANCH   1  22
TORSDOF 9
