REMARK  Name = ZINC40723584
REMARK  5 active torsions:
REMARK  status: ('A' for Active; 'I' for Inactive)
REMARK    1  A    between atoms: C_1  and  N_2
REMARK    2  A    between atoms: N_2  and  C_3
REMARK    3  A    between atoms: C_5  and  N_22
REMARK    4  A    between atoms: C_6  and  O_10
REMARK    5  A    between atoms: O_10  and  C_11
REMARK                            x       y       z     vdW  Elec       q    Type
REMARK                         _______ _______ _______ _____ _____    ______ ____
ROOT
ATOM      1  C   UNL     1      -1.471   0.482   0.526  0.00  0.00    +0.130 C 
ATOM      2  N   UNL     1      -0.202  -0.022  -0.004  0.00  0.00    -0.320 N 
ATOM      3  C   UNL     1       1.054   0.287   0.684  0.00  0.00    +0.130 C 
ATOM      4  C   UNL     1      -0.189  -0.792  -1.160  0.00  0.00    +0.149 A 
ATOM      5  C   UNL     1      -0.046  -0.190  -2.413  0.00  0.00    +0.128 A 
ATOM      6  C   UNL     1      -0.039  -1.010  -3.541  0.00  0.00    +0.246 A 
ATOM      7  N   UNL     1      -0.168  -2.324  -3.383  0.00  0.00    -0.199 NA
ATOM      8  C   UNL     1      -0.301  -2.853  -2.184  0.00  0.00    +0.227 A 
ATOM      9  N   UNL     1      -0.306  -2.115  -1.091  0.00  0.00    -0.219 NA
ENDROOT
BRANCH   5  10
ATOM     10  N   UNL     1       0.087   1.202  -2.533  0.00  0.00    -0.351 N 
ATOM     11  H   UNL     1       0.159   1.753  -1.738  0.00  0.00    +0.143 HD
ATOM     12  H   UNL     1       0.106   1.613  -3.412  0.00  0.00    +0.143 HD
ENDBRANCH   5  10
BRANCH   6  13
ATOM     13  O   UNL     1       0.096  -0.475  -4.780  0.00  0.00    -0.434 OA
BRANCH  13  14
ATOM     14  C   UNL     1       0.206  -1.326  -5.833  0.00  0.00    +0.156 A 
ATOM     15  C   UNL     1       1.448  -1.694  -6.299  0.00  0.00    +0.049 A 
ATOM     16  C   UNL     1       1.576  -2.565  -7.377  0.00  0.00    +0.019 A 
ATOM     17  C   UNL     1       0.477  -3.077  -8.000  0.00  0.00    +0.027 A 
ATOM     18  C   UNL     1      -0.807  -2.724  -7.552  0.00  0.00    +0.018 A 
ATOM     19  C   UNL     1      -0.951  -1.843  -6.453  0.00  0.00    +0.114 A 
ATOM     20  N   UNL     1      -2.171  -1.509  -6.022  0.00  0.00    -0.251 NA
ATOM     21  C   UNL     1      -3.250  -1.986  -6.594  0.00  0.00    +0.111 A 
ATOM     22  C   UNL     1      -3.180  -2.861  -7.675  0.00  0.00    +0.020 A 
ATOM     23  C   UNL     1      -1.964  -3.234  -8.173  0.00  0.00    +0.013 A 
ATOM     24 BR   UNL     1       0.680  -4.257  -9.463  0.00  0.00    -0.050 Br
ENDBRANCH  13  14
ENDBRANCH   6  13
TORSDOF 3
