REMARK  Name = ZINC01764435
REMARK  11 active torsions:
REMARK  status: ('A' for Active; 'I' for Inactive)
REMARK    1  A    between atoms: C_1  and  C_2
REMARK    2  A    between atoms: C_5  and  N_8
REMARK    3  A    between atoms: C_9  and  C_28
REMARK    4  A    between atoms: C_12  and  S_13
REMARK    5  A    between atoms: S_13  and  C_14
REMARK    6  A    between atoms: C_14  and  C_15
REMARK    7  A    between atoms: N_17  and  N_18
REMARK    8  A    between atoms: N_18  and  C_19
REMARK    9  A    between atoms: C_19  and  C_21
REMARK   10  A    between atoms: C_31  and  O_34
REMARK   11  A    between atoms: O_34  and  C_35
REMARK                            x       y       z     vdW  Elec       q    Type
REMARK                         _______ _______ _______ _____ _____    ______ ____
ROOT
ATOM      1  N   UNL     1       0.037  -4.173  -0.058  0.00  0.00    -0.270 N 
ATOM      2  C   UNL     1      -0.880  -5.021   0.523  0.00  0.00    +0.169 A 
ATOM      3  N   UNL     1      -0.451  -6.246   0.326  0.00  0.00    -0.128 NA
ATOM      4  N   UNL     1       0.654  -6.225  -0.329  0.00  0.00    -0.122 NA
ATOM      5  C   UNL     1       0.998  -4.985  -0.597  0.00  0.00    +0.197 A 
ENDROOT
BRANCH   1  10
ATOM      6  C   UNL     1      -0.147   1.498  -0.210  0.00  0.00    +0.044 C 
ATOM      7  C   UNL     1      -0.099  -0.008  -0.170  0.00  0.00    -0.050 A 
ATOM      8  C   UNL     1      -0.262  -0.735  -1.335  0.00  0.00    +0.005 A 
ATOM      9  C   UNL     1      -0.218  -2.115  -1.301  0.00  0.00    +0.026 A 
ATOM     10  C   UNL     1      -0.008  -2.772  -0.096  0.00  0.00    +0.051 A 
ATOM     11  C   UNL     1       0.156  -2.040   1.072  0.00  0.00    +0.026 A 
ATOM     12  C   UNL     1       0.115  -0.660   1.031  0.00  0.00    +0.005 A 
ENDBRANCH   1  10
BRANCH   2  13
ATOM     13  C   UNL     1      -2.114  -4.626   1.235  0.00  0.00    +0.020 A 
ATOM     14  C   UNL     1      -2.750  -5.530   2.088  0.00  0.00    +0.015 A 
ATOM     15  C   UNL     1      -3.900  -5.158   2.751  0.00  0.00    +0.046 A 
ATOM     16  C   UNL     1      -4.426  -3.886   2.571  0.00  0.00    +0.120 A 
ATOM     17  C   UNL     1      -3.796  -2.983   1.724  0.00  0.00    +0.046 A 
ATOM     18  C   UNL     1      -2.643  -3.346   1.062  0.00  0.00    +0.015 A 
BRANCH  16  19
ATOM     19  O   UNL     1      -5.560  -3.523   3.226  0.00  0.00    -0.495 OA
ATOM     20  C   UNL     1      -6.046  -2.199   2.995  0.00  0.00    +0.277 C 
ENDBRANCH  16  19
ENDBRANCH   2  13
BRANCH   5  21
ATOM     21  S   UNL     1       2.431  -4.465  -1.480  0.00  0.00    -0.076 S 
BRANCH  21  22
ATOM     22  C   UNL     1       3.269  -6.016  -1.910  0.00  0.00    +0.174 C 
BRANCH  22  23
ATOM     23  C   UNL     1       4.528  -5.710  -2.679  0.00  0.00    +0.239 C 
ATOM     24  O   UNL     1       4.831  -4.559  -2.914  0.00  0.00    -0.273 OA
ATOM     25  N   UNL     1       5.318  -6.715  -3.106  0.00  0.00    -0.236 N 
ATOM     26  H   UNL     1       5.075  -7.636  -2.917  0.00  0.00    +0.173 HD
BRANCH  25  27
ATOM     27  N   UNL     1       6.488  -6.431  -3.821  0.00  0.00    -0.264 N 
ATOM     28  H   UNL     1       6.731  -5.511  -4.009  0.00  0.00    +0.170 HD
BRANCH  27  29
ATOM     29  C   UNL     1       7.306  -7.472  -4.262  0.00  0.00    +0.044 C 
ATOM     30  C   UNL     1       6.973  -8.737  -4.004  0.00  0.00    +0.035 C 
BRANCH  29  31
ATOM     31  C   UNL     1       8.544  -7.172  -5.019  0.00  0.00    -0.003 A 
ATOM     32  C   UNL     1       8.897  -5.850  -5.285  0.00  0.00    +0.011 A 
ATOM     33  C   UNL     1      10.051  -5.576  -5.990  0.00  0.00    +0.016 A 
ATOM     34  C   UNL     1      10.858  -6.610  -6.432  0.00  0.00    +0.018 A 
ATOM     35  C   UNL     1      10.512  -7.925  -6.170  0.00  0.00    +0.016 A 
ATOM     36  C   UNL     1       9.363  -8.210  -5.461  0.00  0.00    +0.011 A 
ATOM     37 BR   UNL     1      12.438  -6.227  -7.398  0.00  0.00    -0.050 Br
ENDBRANCH  29  31
ENDBRANCH  27  29
ENDBRANCH  25  27
ENDBRANCH  22  23
ENDBRANCH  21  22
ENDBRANCH   5  21
TORSDOF 9
