REMARK  Name = ZINC19459572
REMARK  6 active torsions:
REMARK  status: ('A' for Active; 'I' for Inactive)
REMARK    1  A    between atoms: C_1  and  C_2
REMARK    2  A    between atoms: C_2  and  C_4
REMARK    3  A    between atoms: C_2  and  N_10
REMARK    4  A    between atoms: N_10  and  C_11
REMARK    5  A    between atoms: N_24  and  C_27
REMARK    6  A    between atoms: C_27  and  C_28
REMARK                            x       y       z     vdW  Elec       q    Type
REMARK                         _______ _______ _______ _____ _____    ______ ____
ROOT
ATOM      1  C   UNL     1       3.013  -1.728   4.161  0.00  0.00    +0.127 A 
ATOM      2  C   UNL     1       4.334  -1.305   4.341  0.00  0.00    +0.008 A 
ATOM      3  C   UNL     1       4.871  -0.418   3.438  0.00  0.00    +0.009 A 
ATOM      4  N   UNL     1       4.122   0.008   2.426  0.00  0.00    -0.333 N 
ATOM      5  C   UNL     1       2.872  -0.404   2.282  0.00  0.00    +0.197 A 
ATOM      6  N   UNL     1       2.320  -1.260   3.128  0.00  0.00    -0.201 NA
ATOM      7  N   UNL     1       2.124   0.073   1.220  0.00  0.00    -0.297 N 
ATOM      8  C   UNL     1       0.769  -0.498   1.232  0.00  0.00    +0.136 C 
ATOM      9  C   UNL     1      -0.003   0.008   0.011  0.00  0.00    +0.179 C 
ATOM     10  O   UNL     1      -0.018   1.438   0.021  0.00  0.00    -0.377 OA
ATOM     11  C   UNL     1       1.285   2.027   0.009  0.00  0.00    +0.179 C 
ATOM     12  C   UNL     1       2.070   1.542   1.230  0.00  0.00    +0.136 C 
ATOM     13  C   UNL     1       6.284   0.085   3.564  0.00  0.00    -0.024 C 
ATOM     14  N   UNL     1       6.794  -0.156   4.918  0.00  0.00    +0.386 N 
ATOM     15  C   UNL     1       6.615  -1.569   5.289  0.00  0.00    -0.073 C 
ATOM     16  C   UNL     1       5.124  -1.830   5.508  0.00  0.00    +0.022 C 
ATOM     17  H   UNL     1       4.538   0.713   1.692  0.00  0.00    +0.168 HD
ATOM     18  H   UNL     1       6.216   0.465   5.619  0.00  0.00    -0.081 HD
ENDROOT
BRANCH   1  19
ATOM     19  N   UNL     1       2.436  -2.624   5.046  0.00  0.00    -0.321 N 
ATOM     20  H   UNL     1       3.017  -3.007   5.898  0.00  0.00    +0.148 HD
BRANCH  19  22
ATOM     21  C   UNL     1       0.100  -2.044   5.484  0.00  0.00    +0.034 C 
ATOM     22  C   UNL     1       1.051  -3.060   4.848  0.00  0.00    +0.117 C 
BRANCH  22  23
ATOM     23  C   UNL     1       0.852  -4.407   5.494  0.00  0.00    +0.061 A 
ATOM     24  C   UNL     1      -0.149  -5.243   5.035  0.00  0.00    +0.025 A 
ATOM     25  C   UNL     1      -0.320  -6.483   5.632  0.00  0.00    +0.003 A 
ATOM     26  C   UNL     1       0.518  -6.832   6.680  0.00  0.00    +0.020 A 
ATOM     27  C   UNL     1       1.493  -5.941   7.088  0.00  0.00    +0.111 A 
ATOM     28  N   UNL     1       1.631  -4.773   6.493  0.00  0.00    -0.258 NA
ENDBRANCH  22  23
ENDBRANCH  19  22
ENDBRANCH   1  19
BRANCH  14  29
ATOM     29  C   UNL     1       8.204   0.243   5.028  0.00  0.00    -0.042 C 
BRANCH  29  30
ATOM     30  C   UNL     1       9.049  -0.654   4.162  0.00  0.00    -0.064 A 
ATOM     31  C   UNL     1       9.583  -1.817   4.685  0.00  0.00    +0.002 A 
ATOM     32  C   UNL     1      10.354  -2.643   3.889  0.00  0.00    +0.000 A 
ATOM     33  C   UNL     1      10.601  -2.301   2.573  0.00  0.00    +0.000 A 
ATOM     34  C   UNL     1      10.071  -1.135   2.051  0.00  0.00    +0.000 A 
ATOM     35  C   UNL     1       9.295  -0.312   2.846  0.00  0.00    +0.002 A 
ENDBRANCH  29  30
ENDBRANCH  14  29
TORSDOF 5
