REMARK  Name = ZINC39324911
REMARK  13 active torsions:
REMARK  status: ('A' for Active; 'I' for Inactive)
REMARK    1  A    between atoms: C_1  and  O_2
REMARK    2  A    between atoms: O_2  and  C_3
REMARK    3  A    between atoms: C_7  and  C_17
REMARK    4  A    between atoms: C_14  and  O_15
REMARK    5  A    between atoms: O_15  and  C_16
REMARK    6  A    between atoms: C_17  and  N_18
REMARK    7  A    between atoms: N_18  and  C_19
REMARK    8  A    between atoms: N_18  and  S_26
REMARK    9  A    between atoms: C_19  and  C_20
REMARK   10  A    between atoms: S_26  and  C_29
REMARK   11  A    between atoms: C_32  and  C_35
REMARK   12  A    between atoms: C_35  and  O_37
REMARK   13  A    between atoms: O_37  and  C_38
REMARK                            x       y       z     vdW  Elec       q    Type
REMARK                         _______ _______ _______ _____ _____    ______ ____
ROOT
ATOM      1  N   UNL     1      -8.181  -1.026  -1.157  0.00  0.00    -0.171 NA
ENDROOT
BRANCH   1   2
ATOM      2  S   UNL     1      -8.243  -2.496  -1.916  0.00  0.00    +0.061 S 
ATOM      3  O   UNL     1      -9.588  -2.678  -2.339  0.00  0.00    -0.153 OA
ATOM      4  O   UNL     1      -7.148  -2.532  -2.821  0.00  0.00    -0.153 OA
BRANCH   2   5
ATOM      5  C   UNL     1      -7.928  -3.727  -0.695  0.00  0.00    +0.106 A 
ATOM      6  C   UNL     1      -6.647  -4.223  -0.532  0.00  0.00    +0.029 A 
ATOM      7  C   UNL     1      -6.393  -5.187   0.421  0.00  0.00    +0.017 A 
ATOM      8  C   UNL     1      -7.433  -5.661   1.224  0.00  0.00    +0.059 A 
ATOM      9  C   UNL     1      -8.724  -5.156   1.054  0.00  0.00    +0.017 A 
ATOM     10  C   UNL     1      -8.962  -4.188   0.100  0.00  0.00    +0.029 A 
BRANCH   8  11
ATOM     11  C   UNL     1      -7.169  -6.694   2.247  0.00  0.00    +0.339 C 
ATOM     12  O   UNL     1      -6.046  -7.132   2.392  0.00  0.00    -0.245 OA
BRANCH  11  13
ATOM     13  O   UNL     1      -8.175  -7.149   3.019  0.00  0.00    -0.464 OA
ATOM     14  C   UNL     1      -7.847  -8.147   3.988  0.00  0.00    +0.280 C 
ENDBRANCH  11  13
ENDBRANCH   8  11
ENDBRANCH   2   5
ENDBRANCH   1   2
BRANCH   1  15
ATOM     15  C   UNL     1      -6.947  -0.236  -1.190  0.00  0.00    +0.126 C 
BRANCH  15  20
ATOM     16  C   UNL     1      -1.647   0.313   1.192  0.00  0.00    +0.162 A 
ATOM     17  C   UNL     1      -2.743   0.905   0.652  0.00  0.00    +0.059 A 
ATOM     18  C   UNL     1      -4.026   0.198   0.689  0.00  0.00    -0.003 A 
ATOM     19  C   UNL     1      -5.144   0.761   0.158  0.00  0.00    -0.003 C 
ATOM     20  C   UNL     1      -6.430  -0.037   0.236  0.00  0.00    +0.114 C 
ATOM     21  C   UNL     1      -6.368  -1.394   0.899  0.00  0.00    +0.225 C 
ATOM     22  O   UNL     1      -7.371  -2.077   0.989  0.00  0.00    -0.275 OA
ATOM     23  N   UNL     1      -5.220  -1.836   1.380  0.00  0.00    -0.284 N 
ATOM     24  C   UNL     1      -4.084  -1.137   1.313  0.00  0.00    +0.044 A 
ATOM     25  C   UNL     1      -2.903  -1.672   1.846  0.00  0.00    +0.073 A 
ATOM     26  C   UNL     1      -1.724  -0.965   1.778  0.00  0.00    +0.163 A 
ATOM     27  H   UNL     1      -5.200  -2.709   1.802  0.00  0.00    +0.155 HD
BRANCH  16  29
ATOM     28  C   UNL     1      -0.434   2.256   0.555  0.00  0.00    +0.277 C 
ATOM     29  O   UNL     1      -0.454   0.963   1.162  0.00  0.00    -0.491 OA
ENDBRANCH  16  29
BRANCH  26  30
ATOM     30  O   UNL     1      -0.601  -1.515   2.298  0.00  0.00    -0.491 OA
ATOM     31  C   UNL     1      -0.724  -2.813   2.882  0.00  0.00    +0.277 C 
ENDBRANCH  26  30
ENDBRANCH  15  20
ENDBRANCH   1  15
BRANCH   1  32
ATOM     32  C   UNL     1      -9.359  -0.515  -0.451  0.00  0.00    +0.146 C 
BRANCH  32  33
ATOM     33  C   UNL     1     -10.137   0.395  -1.367  0.00  0.00    -0.014 A 
ATOM     34  C   UNL     1      -9.859   1.753  -1.410  0.00  0.00    +0.008 A 
ATOM     35  C   UNL     1     -10.600   2.551  -2.267  0.00  0.00    +0.020 A 
ATOM     36  C   UNL     1     -11.585   1.972  -3.045  0.00  0.00    +0.111 A 
ATOM     37  N   UNL     1     -11.823   0.676  -2.977  0.00  0.00    -0.263 NA
ATOM     38  C   UNL     1     -11.133  -0.115  -2.178  0.00  0.00    +0.115 A 
ENDBRANCH  32  33
ENDBRANCH   1  32
TORSDOF 10
