REMARK  Name = ZINC23642151
REMARK  8 active torsions:
REMARK  status: ('A' for Active; 'I' for Inactive)
REMARK    1  A    between atoms: C_4  and  C_7
REMARK    2  A    between atoms: C_15  and  C_18
REMARK    3  A    between atoms: C_18  and  O_19
REMARK    4  A    between atoms: O_19  and  C_20
REMARK    5  A    between atoms: C_20  and  C_22
REMARK    6  A    between atoms: C_22  and  C_23
REMARK    7  A    between atoms: C_23  and  C_25
REMARK    8  A    between atoms: C_23  and  N_32
REMARK                            x       y       z     vdW  Elec       q    Type
REMARK                         _______ _______ _______ _____ _____    ______ ____
ROOT
ATOM      1  O   UNL     1      -0.044   1.273   2.422  0.00  0.00    -0.460 OA
ENDROOT
BRANCH   1   2
ATOM      2  C   UNL     1      -0.583   1.591   1.234  0.00  0.00    +0.310 C 
ATOM      3  O   UNL     1      -1.573   2.281   1.186  0.00  0.00    -0.251 OA
BRANCH   2   4
ATOM      4  C   UNL     1       0.049   1.088  -0.038  0.00  0.00    +0.147 C 
BRANCH   4   5
ATOM      5  C   UNL     1      -0.755   1.591  -1.239  0.00  0.00    +0.115 C 
BRANCH   5   6
ATOM      6  C   UNL     1      -0.198   0.989  -2.504  0.00  0.00    -0.027 A 
ATOM      7  C   UNL     1      -0.460   1.581  -3.725  0.00  0.00    +0.007 A 
ATOM      8  C   UNL     1       0.055   1.033  -4.884  0.00  0.00    +0.020 A 
ATOM      9  C   UNL     1       0.824  -0.116  -4.824  0.00  0.00    +0.041 A 
ATOM     10  C   UNL     1       1.082  -0.711  -3.602  0.00  0.00    +0.020 A 
ATOM     11  C   UNL     1       0.571  -0.159  -2.442  0.00  0.00    +0.007 A 
ATOM     12 CL   UNL     1       1.465  -0.809  -6.280  0.00  0.00    -0.084 Cl
ENDBRANCH   5   6
BRANCH   5  13
ATOM     13  N   UNL     1      -0.663   3.051  -1.312  0.00  0.00    -0.292 N 
ATOM     14  C   UNL     1       0.534   3.642  -1.498  0.00  0.00    +0.298 C 
ATOM     15  O   UNL     1       1.524   2.963  -1.689  0.00  0.00    -0.253 OA
ATOM     16  N   UNL     1       0.633   4.986  -1.471  0.00  0.00    -0.313 N 
ATOM     17  H   UNL     1      -1.571   3.665  -1.215  0.00  0.00    +0.151 HD
ATOM     18  H   UNL     1       1.610   5.469  -1.623  0.00  0.00    +0.146 HD
ATOM     19  H   UNL     1      -0.263   5.600  -1.298  0.00  0.00    +0.146 HD
ENDBRANCH   5  13
ENDBRANCH   4   5
ENDBRANCH   2   4
ENDBRANCH   1   2
BRANCH   1  20
ATOM     20  C   UNL     1      -0.705   1.792   3.606  0.00  0.00    +0.271 C 
BRANCH  20  28
ATOM     21  C   UNL     1      -2.142   2.552   7.494  0.00  0.00    +0.340 C 
ATOM     22  O   UNL     1      -1.131   2.772   8.484  0.00  0.00    -0.333 OA
ATOM     23  C   UNL     1      -0.213   1.681   8.599  0.00  0.00    +0.203 C 
ATOM     24  C   UNL     1       0.268   1.286   7.226  0.00  0.00    +0.023 A 
ATOM     25  C   UNL     1       1.394   0.494   7.097  0.00  0.00    +0.047 A 
ATOM     26  C   UNL     1       1.841   0.123   5.840  0.00  0.00    +0.124 A 
ATOM     27  C   UNL     1       1.160   0.544   4.710  0.00  0.00    +0.049 A 
ATOM     28  C   UNL     1       0.036   1.335   4.836  0.00  0.00    +0.035 A 
ATOM     29  C   UNL     1      -0.409   1.715   6.095  0.00  0.00    +0.136 A 
ATOM     30  O   UNL     1      -1.517   2.496   6.208  0.00  0.00    -0.459 OA
ATOM     31  F   UNL     1       2.942  -0.650   5.717  0.00  0.00    -0.205 F 
BRANCH  21  35
ATOM     32  C   UNL     1      -4.964   5.757   7.590  0.00  0.00    +0.000 A 
ATOM     33  C   UNL     1      -4.767   4.976   8.713  0.00  0.00    +0.000 A 
ATOM     34  C   UNL     1      -3.854   3.938   8.682  0.00  0.00    +0.010 A 
ATOM     35  C   UNL     1      -3.138   3.682   7.527  0.00  0.00    +0.020 A 
ATOM     36  C   UNL     1      -3.331   4.467   6.406  0.00  0.00    +0.010 A 
ATOM     37  C   UNL     1      -4.248   5.501   6.436  0.00  0.00    +0.000 A 
ENDBRANCH  21  35
ENDBRANCH  20  28
ENDBRANCH   1  20
TORSDOF 8
