REMARK  Name = ZINC64794543
REMARK  8 active torsions:
REMARK  status: ('A' for Active; 'I' for Inactive)
REMARK    1  A    between atoms: C_4  and  N_34
REMARK    2  A    between atoms: C_5  and  C_10
REMARK    3  A    between atoms: C_13  and  S_22
REMARK    4  A    between atoms: N_14  and  C_15
REMARK    5  A    between atoms: C_15  and  C_16
REMARK    6  A    between atoms: S_22  and  C_23
REMARK    7  A    between atoms: C_23  and  C_24
REMARK    8  A    between atoms: N_26  and  C_27
REMARK                            x       y       z     vdW  Elec       q    Type
REMARK                         _______ _______ _______ _____ _____    ______ ____
ROOT
ATOM      1  C   UNL     1       6.225   1.347  -0.072  0.00  0.00    +0.173 A 
ATOM      2  N   UNL     1       6.775   2.543  -0.070  0.00  0.00    -0.128 NA
ATOM      3  N   UNL     1       8.056   2.437  -0.077  0.00  0.00    -0.122 NA
ATOM      4  C   UNL     1       8.405   1.171  -0.085  0.00  0.00    +0.192 A 
ATOM      5  N   UNL     1       7.254   0.431  -0.077  0.00  0.00    -0.299 N 
ENDROOT
BRANCH   1  10
ATOM      6  C   UNL     1      -0.017   1.384  -0.040  0.00  0.00    +0.020 A 
ATOM      7  C   UNL     1       1.160   2.096  -0.047  0.00  0.00    +0.014 A 
ATOM      8  C   UNL     1       2.388   1.391  -0.053  0.00  0.00    +0.029 A 
ATOM      9  C   UNL     1       3.743   1.920  -0.060  0.00  0.00    +0.052 A 
ATOM     10  C   UNL     1       4.787   1.046  -0.065  0.00  0.00    +0.080 A 
ATOM     11  S   UNL     1       3.994  -0.549  -0.059  0.00  0.00    -0.064 S 
ATOM     12  C   UNL     1       2.298  -0.021  -0.051  0.00  0.00    +0.111 A 
ATOM     13  N   UNL     1       1.148  -0.656  -0.045  0.00  0.00    -0.248 NA
ATOM     14  C   UNL     1       0.002  -0.002  -0.039  0.00  0.00    +0.112 A 
BRANCH   9  15
ATOM     15  N   UNL     1       3.969   3.303  -0.063  0.00  0.00    -0.356 N 
ATOM     16  H   UNL     1       3.219   3.917  -0.059  0.00  0.00    +0.142 HD
ATOM     17  H   UNL     1       4.877   3.646  -0.068  0.00  0.00    +0.142 HD
ENDBRANCH   9  15
ENDBRANCH   1  10
BRANCH   5  18
ATOM     18  C   UNL     1       7.140  -1.030  -0.075  0.00  0.00    +0.157 C 
BRANCH  18  19
ATOM     19  C   UNL     1       7.093  -1.539  -1.517  0.00  0.00    +0.138 C 
ATOM     20  C   UNL     1       6.852  -3.064  -1.526  0.00  0.00    +0.035 C 
ATOM     21  C   UNL     1       7.774  -3.536  -2.683  0.00  0.00    +0.031 C 
ATOM     22  C   UNL     1       8.954  -2.541  -2.544  0.00  0.00    +0.160 C 
ATOM     23  O   UNL     1       8.350  -1.294  -2.160  0.00  0.00    -0.375 OA
ENDBRANCH  18  19
ENDBRANCH   5  18
BRANCH   4  24
ATOM     24  S   UNL     1      10.051   0.542  -0.097  0.00  0.00    -0.077 S 
BRANCH  24  25
ATOM     25  C   UNL     1      11.089   2.030  -0.095  0.00  0.00    +0.173 C 
BRANCH  25  26
ATOM     26  C   UNL     1      12.542   1.628  -0.105  0.00  0.00    +0.227 C 
ATOM     27  O   UNL     1      12.847   0.455  -0.113  0.00  0.00    -0.275 OA
ATOM     28  N   UNL     1      13.502   2.574  -0.106  0.00  0.00    -0.285 N 
ATOM     29  H   UNL     1      13.260   3.511  -0.168  0.00  0.00    +0.155 HD
BRANCH  28  30
ATOM     30  C   UNL     1      14.850   2.204  -0.017  0.00  0.00    +0.034 A 
ATOM     31  C   UNL     1      15.745   3.000   0.684  0.00  0.00    +0.026 A 
ATOM     32  C   UNL     1      17.074   2.633   0.770  0.00  0.00    +0.040 A 
ATOM     33  C   UNL     1      17.513   1.472   0.158  0.00  0.00    +0.124 A 
ATOM     34  C   UNL     1      16.622   0.676  -0.542  0.00  0.00    +0.040 A 
ATOM     35  C   UNL     1      15.291   1.036  -0.626  0.00  0.00    +0.026 A 
ATOM     36  F   UNL     1      18.814   1.115   0.242  0.00  0.00    -0.205 F 
ENDBRANCH  28  30
ENDBRANCH  25  26
ENDBRANCH  24  25
ENDBRANCH   4  24
TORSDOF 8
