REMARK  Name = ZINC24709038
REMARK  4 active torsions:
REMARK  status: ('A' for Active; 'I' for Inactive)
REMARK    1  A    between atoms: C_6  and  S_7
REMARK    2  A    between atoms: S_7  and  N_10
REMARK    3  A    between atoms: C_17  and  S_19
REMARK    4  A    between atoms: S_19  and  N_22
REMARK                            x       y       z     vdW  Elec       q    Type
REMARK                         _______ _______ _______ _____ _____    ______ ____
ROOT
ATOM      1  N   UNL     1      -1.942  -1.152  -1.571  0.00  0.00    -0.202 N 
ATOM      2  C   UNL     1      -2.773  -0.241  -2.364  0.00  0.00    +0.136 C 
ATOM      3  C   UNL     1      -2.886  -0.901  -3.748  0.00  0.00    +0.058 C 
ATOM      4  C   UNL     1      -2.083  -2.176  -3.627  0.00  0.00    -0.021 A 
ATOM      5  C   UNL     1      -1.563  -2.250  -2.344  0.00  0.00    +0.055 A 
ATOM      6  C   UNL     1      -0.774  -3.348  -1.995  0.00  0.00    +0.027 A 
ATOM      7  C   UNL     1      -0.515  -4.339  -2.917  0.00  0.00    +0.030 A 
ATOM      8  C   UNL     1      -1.035  -4.254  -4.196  0.00  0.00    +0.105 A 
ATOM      9  C   UNL     1      -1.824  -3.174  -4.547  0.00  0.00    +0.034 A 
ENDROOT
BRANCH   1  10
ATOM     10  S   UNL     1      -1.510  -0.909   0.009  0.00  0.00    +0.075 S 
ATOM     11  O   UNL     1      -1.215  -2.189   0.550  0.00  0.00    -0.150 OA
ATOM     12  O   UNL     1      -2.494  -0.051   0.572  0.00  0.00    -0.150 OA
BRANCH  10  18
ATOM     13  C   UNL     1      -0.017   1.378   0.010  0.00  0.00    +0.029 A 
ATOM     14  C   UNL     1       1.171   2.079   0.002  0.00  0.00    +0.006 A 
ATOM     15  C   UNL     1       2.387   1.408  -0.012  0.00  0.00    -0.044 A 
ATOM     16  C   UNL     1       2.406   0.031  -0.014  0.00  0.00    -0.042 A 
ATOM     17  C   UNL     1       1.209  -0.673  -0.010  0.00  0.00    +0.032 A 
ATOM     18  C   UNL     1       0.002  -0.004   0.002  0.00  0.00    +0.109 A 
ATOM     19  C   UNL     1       3.686  -0.762  -0.012  0.00  0.00    +0.035 C 
ATOM     20  C   UNL     1       4.861   0.113  -0.446  0.00  0.00    +0.005 C 
ATOM     21  C   UNL     1       4.847   1.394   0.396  0.00  0.00    +0.005 C 
ATOM     22  C   UNL     1       3.645   2.236  -0.027  0.00  0.00    +0.035 C 
ENDBRANCH  10  18
ENDBRANCH   1  10
BRANCH   8  23
ATOM     23  S   UNL     1      -0.700  -5.523  -5.372  0.00  0.00    +0.056 S 
ATOM     24  O   UNL     1      -0.851  -4.935  -6.657  0.00  0.00    -0.153 OA
ATOM     25  O   UNL     1       0.505  -6.152  -4.958  0.00  0.00    -0.153 OA
BRANCH  23  26
ATOM     26  N   UNL     1      -1.900  -6.655  -5.225  0.00  0.00    -0.204 NA
ATOM     27  H   UNL     1      -2.172  -7.176  -5.997  0.00  0.00    +0.144 HD
ATOM     28  H   UNL     1      -2.330  -6.797  -4.368  0.00  0.00    +0.144 HD
ENDBRANCH  23  26
ENDBRANCH   8  23
TORSDOF 4
