REMARK  Name = ZINC14093544
REMARK  5 active torsions:
REMARK  status: ('A' for Active; 'I' for Inactive)
REMARK    1  A    between atoms: C_1  and  C_2
REMARK    2  A    between atoms: C_5  and  C_8
REMARK    3  A    between atoms: C_12  and  C_13
REMARK    4  A    between atoms: N_15  and  N_16
REMARK    5  A    between atoms: C_17  and  C_19
REMARK                            x       y       z     vdW  Elec       q    Type
REMARK                         _______ _______ _______ _____ _____    ______ ____
ROOT
ATOM      1  C   UNL     1      -0.710   3.671   1.994  0.00  0.00    +0.267 C 
ATOM      2  O   UNL     1       0.406   3.212   2.161  0.00  0.00    -0.268 OA
ATOM      3  N   UNL     1      -1.152   4.670   2.784  0.00  0.00    -0.230 N 
ATOM      4  H   UNL     1      -2.040   5.035   2.651  0.00  0.00    +0.173 HD
ENDROOT
BRANCH   1   9
ATOM      5  C   UNL     1      -1.308   2.117   0.020  0.00  0.00    +0.001 A 
ATOM      6  C   UNL     1      -2.315   1.823  -0.882  0.00  0.00    +0.017 A 
ATOM      7  C   UNL     1      -3.478   2.515  -0.824  0.00  0.00    +0.046 A 
ATOM      8  S   UNL     1      -3.225   3.623   0.484  0.00  0.00    -0.091 S 
ATOM      9  C   UNL     1      -1.570   3.138   0.937  0.00  0.00    +0.083 A 
BRANCH   5  14
ATOM     10  C   UNL     1       3.710  -0.706  -0.037  0.00  0.00    +0.044 C 
ATOM     11  C   UNL     1       2.396   0.033  -0.021  0.00  0.00    -0.050 A 
ATOM     12  C   UNL     1       1.208  -0.675  -0.013  0.00  0.00    +0.004 A 
ATOM     13  C   UNL     1       0.002  -0.004   0.002  0.00  0.00    +0.009 A 
ATOM     14  C   UNL     1      -0.017   1.390   0.010  0.00  0.00    -0.017 A 
ATOM     15  C   UNL     1       1.185   2.099   0.002  0.00  0.00    +0.009 A 
ATOM     16  C   UNL     1       2.384   1.417  -0.014  0.00  0.00    +0.004 A 
ENDBRANCH   5  14
ENDBRANCH   1   9
BRANCH   3  17
ATOM     17  N   UNL     1      -0.328   5.180   3.796  0.00  0.00    -0.228 N 
ATOM     18  C   UNL     1      -0.770   6.179   4.585  0.00  0.00    +0.295 C 
ATOM     19  O   UNL     1      -1.885   6.638   4.418  0.00  0.00    -0.265 OA
ATOM     20  H   UNL     1       0.560   4.814   3.928  0.00  0.00    +0.173 HD
BRANCH  18  21
ATOM     21  C   UNL     1       0.092   6.713   5.644  0.00  0.00    +0.190 A 
ATOM     22  C   UNL     1      -0.230   7.718   6.510  0.00  0.00    +0.054 A 
ATOM     23  C   UNL     1       0.882   7.901   7.347  0.00  0.00    +0.042 A 
ATOM     24  C   UNL     1       1.822   7.011   6.961  0.00  0.00    +0.196 A 
ATOM     25  O   UNL     1       1.340   6.292   5.938  0.00  0.00    -0.458 OA
ENDBRANCH  18  21
ENDBRANCH   3  17
TORSDOF 4
