REMARK  Name = ZINC49421404
REMARK  4 active torsions:
REMARK  status: ('A' for Active; 'I' for Inactive)
REMARK    1  A    between atoms: C_1  and  C_2
REMARK    2  A    between atoms: C_7  and  C_8
REMARK    3  A    between atoms: C_23  and  C_26
REMARK    4  A    between atoms: N_28  and  C_29
REMARK                            x       y       z     vdW  Elec       q    Type
REMARK                         _______ _______ _______ _____ _____    ______ ____
ROOT
ATOM      1  C   UNL     1       0.014   0.000   2.507  0.00  0.00    +0.016 A 
ATOM      2  C   UNL     1       1.081  -0.064   3.343  0.00  0.00    +0.056 A 
ATOM      3  S   UNL     1       0.675   0.906   4.651  0.00  0.00    -0.089 S 
ATOM      4  C   UNL     1      -0.934   1.442   4.146  0.00  0.00    +0.103 A 
ATOM      5  C   UNL     1      -1.119   0.821   2.902  0.00  0.00    +0.095 A 
ATOM      6  N   UNL     1      -2.295   1.062   2.262  0.00  0.00    -0.215 NA
ATOM      7  C   UNL     1      -3.210   1.839   2.779  0.00  0.00    +0.199 A 
ATOM      8  N   UNL     1      -3.056   2.460   3.984  0.00  0.00    -0.294 N 
ATOM      9  H   UNL     1      -3.758   3.030   4.334  0.00  0.00    +0.172 HD
ATOM     10  C   UNL     1      -1.918   2.266   4.693  0.00  0.00    +0.267 A 
ATOM     11  O   UNL     1      -1.752   2.808   5.773  0.00  0.00    -0.267 OA
ATOM     12  N   UNL     1      -4.375   2.041   2.079  0.00  0.00    -0.300 N 
ATOM     13  C   UNL     1      -5.479   2.809   2.669  0.00  0.00    +0.108 C 
ATOM     14  C   UNL     1      -6.756   1.966   2.605  0.00  0.00    +0.020 C 
ATOM     15  C   UNL     1      -6.999   1.524   1.160  0.00  0.00    +0.016 C 
ATOM     16  C   UNL     1      -5.827   0.662   0.684  0.00  0.00    +0.092 C 
ATOM     17  C   UNL     1      -4.537   1.496   0.724  0.00  0.00    +0.120 C 
ENDROOT
BRANCH   1  24
ATOM     18  C   UNL     1      -0.025   1.458   0.009  0.00  0.00    +0.044 C 
ATOM     19  C   UNL     1      -0.013  -0.049   0.015  0.00  0.00    -0.043 A 
ATOM     20  C   UNL     1      -0.015  -0.745  -1.177  0.00  0.00    +0.004 A 
ATOM     21  C   UNL     1      -0.004  -2.128  -1.173  0.00  0.00    +0.000 A 
ATOM     22  C   UNL     1       0.009  -2.822   0.024  0.00  0.00    +0.001 A 
ATOM     23  C   UNL     1       0.011  -2.137   1.222  0.00  0.00    +0.009 A 
ATOM     24  C   UNL     1       0.006  -0.742   1.224  0.00  0.00    -0.012 A 
ENDBRANCH   1  24
BRANCH  16  25
ATOM     25  C   UNL     1      -6.083   0.200  -0.727  0.00  0.00    +0.217 C 
ATOM     26  O   UNL     1      -5.311   0.501  -1.613  0.00  0.00    -0.275 OA
ATOM     27  N   UNL     1      -7.170  -0.547  -1.005  0.00  0.00    -0.318 N 
ATOM     28  C   UNL     1      -7.418  -0.996  -2.377  0.00  0.00    +0.128 C 
ATOM     29  H   UNL     1      -7.787  -0.787  -0.297  0.00  0.00    +0.148 HD
ENDBRANCH  16  25
TORSDOF 2
