REMARK  Name = ZINC58195041
REMARK  4 active torsions:
REMARK  status: ('A' for Active; 'I' for Inactive)
REMARK    1  A    between atoms: C_1  and  N_2
REMARK    2  A    between atoms: N_11  and  C_12
REMARK    3  A    between atoms: C_12  and  C_14
REMARK    4  A    between atoms: C_20  and  C_22
REMARK                            x       y       z     vdW  Elec       q    Type
REMARK                         _______ _______ _______ _____ _____    ______ ____
ROOT
ATOM      1  C   UNL     1      -0.017   1.461   0.032  0.00  0.00    +0.152 C 
ATOM      2  N   UNL     1       0.002  -0.003   0.017  0.00  0.00    -0.315 N 
ATOM      3  C   UNL     1      -1.114  -0.834   0.020  0.00  0.00    +0.068 A 
ATOM      4  C   UNL     1      -2.480  -0.584   0.037  0.00  0.00    +0.029 A 
ATOM      5  C   UNL     1      -3.371  -1.638   0.035  0.00  0.00    +0.022 A 
ATOM      6  C   UNL     1      -2.909  -2.944   0.018  0.00  0.00    +0.043 A 
ATOM      7  C   UNL     1      -1.552  -3.203   0.001  0.00  0.00    +0.047 A 
ATOM      8  C   UNL     1      -0.648  -2.150   0.002  0.00  0.00    +0.067 A 
ATOM      9  N   UNL     1       0.742  -2.092  -0.012  0.00  0.00    -0.326 N 
ATOM     10  C   UNL     1       1.114  -0.785  -0.008  0.00  0.00    +0.201 A 
ATOM     11  N   UNL     1       2.368  -0.341  -0.023  0.00  0.00    -0.146 NA
ATOM     12 CL   UNL     1      -4.040  -4.262   0.017  0.00  0.00    -0.083 Cl
ATOM     13  H   UNL     1       1.342  -2.853  -0.025  0.00  0.00    +0.169 HD
ENDROOT
BRANCH  11  14
ATOM     14  C   UNL     1       3.378  -1.200   0.062  0.00  0.00    +0.242 C 
ATOM     15  O   UNL     1       3.161  -2.396   0.058  0.00  0.00    -0.273 OA
BRANCH  14  16
ATOM     16  C   UNL     1       4.793  -0.691   0.164  0.00  0.00    +0.080 C 
ATOM     17  C   UNL     1       5.124   0.148  -1.072  0.00  0.00    +0.032 C 
ATOM     18  C   UNL     1       6.551   0.692  -0.948  0.00  0.00    +0.108 C 
ATOM     19  N   UNL     1       7.468  -0.433  -0.720  0.00  0.00    -0.301 N 
ATOM     20  C   UNL     1       7.191  -1.357   0.388  0.00  0.00    +0.108 C 
ATOM     21  C   UNL     1       5.757  -1.878   0.250  0.00  0.00    +0.032 C 
ATOM     22  C   UNL     1       8.542  -0.615  -1.514  0.00  0.00    +0.219 C 
ATOM     23  O   UNL     1       8.759   0.154  -2.426  0.00  0.00    -0.275 OA
BRANCH  22  24
ATOM     24  C   UNL     1       9.473  -1.774  -1.267  0.00  0.00    +0.075 C 
ATOM     25  C   UNL     1      10.881  -1.454  -0.761  0.00  0.00    +0.013 C 
ATOM     26  C   UNL     1      10.674  -1.927  -2.202  0.00  0.00    +0.013 C 
ENDBRANCH  22  24
ENDBRANCH  14  16
ENDBRANCH  11  14
TORSDOF 3
