REMARK  Name = ZINC02283754
REMARK  4 active torsions:
REMARK  status: ('A' for Active; 'I' for Inactive)
REMARK    1  A    between atoms: C_3  and  C_6
REMARK    2  A    between atoms: C_11  and  C_19
REMARK    3  A    between atoms: C_13  and  C_17
REMARK    4  A    between atoms: C_14  and  N_16
REMARK                            x       y       z     vdW  Elec       q    Type
REMARK                         _______ _______ _______ _____ _____    ______ ____
ROOT
ATOM      1  C   UNL     1       1.062   3.329  -0.666  0.00  0.00    +0.070 C 
ATOM      2  C   UNL     1      -0.052   4.059   0.087  0.00  0.00    +0.086 C 
ATOM      3  C   UNL     1      -1.313   3.229   0.059  0.00  0.00    +0.115 C 
ATOM      4  C   UNL     1      -1.250   1.885   0.018  0.00  0.00    +0.046 C 
ATOM      5  C   UNL     1      -2.512   1.057  -0.003  0.00  0.00    +0.101 C 
ATOM      6  C   UNL     1      -3.676   1.905  -0.434  0.00  0.00    +0.098 C 
ATOM      7  C   UNL     1      -3.599   3.257  -0.374  0.00  0.00    +0.198 C 
ATOM      8  O   UNL     1      -2.495   3.875   0.072  0.00  0.00    -0.445 OA
ATOM      9  C   UNL     1      -0.014   1.210   0.009  0.00  0.00    +0.164 C 
ATOM     10  O   UNL     1       0.002  -0.004   0.002  0.00  0.00    -0.292 OA
ATOM     11  C   UNL     1       1.286   1.967   0.000  0.00  0.00    +0.091 C 
ENDROOT
BRANCH   5  12
ATOM     12  C   UNL     1      -2.777   0.509   1.376  0.00  0.00    -0.034 A 
ATOM     13  C   UNL     1      -2.969   1.373   2.438  0.00  0.00    +0.006 A 
ATOM     14  C   UNL     1      -3.217   0.871   3.702  0.00  0.00    +0.020 A 
ATOM     15  C   UNL     1      -3.262  -0.497   3.905  0.00  0.00    +0.041 A 
ATOM     16  C   UNL     1      -3.064  -1.361   2.843  0.00  0.00    +0.020 A 
ATOM     17  C   UNL     1      -2.822  -0.858   1.579  0.00  0.00    +0.006 A 
ATOM     18 CL   UNL     1      -3.567  -1.129   5.493  0.00  0.00    -0.084 Cl
ENDBRANCH   5  12
BRANCH   1  21
ATOM     19  C   UNL     1       4.136   5.303  -1.156  0.00  0.00    +0.041 A 
ATOM     20  C   UNL     1       3.016   4.606  -1.667  0.00  0.00    +0.045 A 
ATOM     21  C   UNL     1       2.333   4.137  -0.608  0.00  0.00    +0.109 A 
ATOM     22  O   UNL     1       2.973   4.514   0.511  0.00  0.00    -0.468 OA
ATOM     23  C   UNL     1       4.070   5.217   0.184  0.00  0.00    +0.195 A 
ENDBRANCH   1  21
BRANCH   7  24
ATOM     24  N   UNL     1      -4.674   4.010  -0.778  0.00  0.00    -0.328 N 
ATOM     25  H   UNL     1      -4.629   4.978  -0.740  0.00  0.00    +0.145 HD
ATOM     26  H   UNL     1      -5.477   3.574  -1.102  0.00  0.00    +0.145 HD
ENDBRANCH   7  24
BRANCH   6  27
ATOM     27  C   UNL     1      -4.874   1.281  -0.911  0.00  0.00    +0.101 C 
ATOM     28  N   UNL     1      -5.823   0.786  -1.290  0.00  0.00    -0.191 NA
ENDBRANCH   6  27
TORSDOF 4
