REMARK  Name = ZINC07278618
REMARK  2 active torsions:
REMARK  status: ('A' for Active; 'I' for Inactive)
REMARK    1  A    between atoms: N_12  and  C_16
REMARK    2  A    between atoms: C_16  and  C_17
REMARK                            x       y       z     vdW  Elec       q    Type
REMARK                         _______ _______ _______ _____ _____    ______ ____
ROOT
ATOM      1  C   UNL     1       2.376  -3.161  -3.102  0.00  0.00    +0.000 A 
ATOM      2  C   UNL     1       2.233  -1.841  -3.487  0.00  0.00    +0.000 A 
ATOM      3  C   UNL     1       1.921  -0.879  -2.548  0.00  0.00    +0.006 A 
ATOM      4  C   UNL     1       1.749  -1.229  -1.218  0.00  0.00    -0.012 A 
ATOM      5  C   UNL     1       1.891  -2.551  -0.834  0.00  0.00    -0.042 A 
ATOM      6  C   UNL     1       2.205  -3.514  -1.778  0.00  0.00    +0.004 A 
ATOM      7  C   UNL     1       1.655  -2.680   0.657  0.00  0.00    +0.038 C 
ATOM      8  C   UNL     1       1.772  -1.242   1.212  0.00  0.00    +0.045 C 
ATOM      9  C   UNL     1       1.413  -0.393  -0.013  0.00  0.00    +0.138 C 
ATOM     10  C   UNL     1       2.166   0.912  -0.013  0.00  0.00    +0.251 C 
ATOM     11  O   UNL     1       3.368   1.067  -0.023  0.00  0.00    -0.272 OA
ATOM     12  N   UNL     1       1.215   1.871   0.001  0.00  0.00    -0.215 N 
ATOM     13  C   UNL     1      -0.016   1.344   0.009  0.00  0.00    +0.310 C 
ATOM     14  O   UNL     1      -1.035   2.007   0.018  0.00  0.00    -0.252 OA
ATOM     15  N   UNL     1       0.002  -0.004   0.002  0.00  0.00    -0.281 N 
ATOM     16  H   UNL     1      -0.765  -0.597   0.006  0.00  0.00    +0.152 HD
ENDROOT
BRANCH  12  17
ATOM     17  C   UNL     1       1.496   3.309   0.005  0.00  0.00    +0.213 C 
BRANCH  17  18
ATOM     18  C   UNL     1       1.606   3.795   1.428  0.00  0.00    +0.234 C 
ATOM     19  O   UNL     1       1.464   3.016   2.347  0.00  0.00    -0.274 OA
ATOM     20  N   UNL     1       1.863   5.094   1.678  0.00  0.00    -0.300 N 
ATOM     21  C   UNL     1       2.043   6.048   0.576  0.00  0.00    +0.108 C 
ATOM     22  C   UNL     1       1.077   7.224   0.786  0.00  0.00    +0.023 C 
ATOM     23  C   UNL     1       1.305   7.823   2.177  0.00  0.00    -0.005 C 
ATOM     24  C   UNL     1       0.365   9.015   2.371  0.00  0.00    +0.004 C 
ATOM     25  C   UNL     1       0.581   9.617   3.761  0.00  0.00    +0.000 C 
ATOM     26  C   UNL     1       0.284   8.558   4.825  0.00  0.00    +0.000 C 
ATOM     27  C   UNL     1       1.226   7.369   4.634  0.00  0.00    +0.005 C 
ATOM     28  C   UNL     1       1.015   6.765   3.244  0.00  0.00    +0.010 C 
ATOM     29  C   UNL     1       1.973   5.583   3.059  0.00  0.00    +0.111 C 
ENDBRANCH  17  18
ENDBRANCH  12  17
TORSDOF 2
