REMARK  Name = ZINC39324747
REMARK  6 active torsions:
REMARK  status: ('A' for Active; 'I' for Inactive)
REMARK    1  A    between atoms: C_1  and  C_2
REMARK    2  A    between atoms: C_2  and  C_3
REMARK    3  A    between atoms: C_5  and  C_17
REMARK    4  A    between atoms: C_7  and  C_15
REMARK    5  A    between atoms: C_8  and  N_14
REMARK    6  A    between atoms: C_20  and  C_22
REMARK                            x       y       z     vdW  Elec       q    Type
REMARK                         _______ _______ _______ _____ _____    ______ ____
ROOT
ATOM      1  C   UNL     1      -1.412  -0.526   0.013  0.00  0.00    +0.069 C 
ATOM      2  C   UNL     1      -2.091  -0.872  -1.054  0.00  0.00    +0.033 C 
ATOM      3  C   UNL     1      -1.827  -0.764  -2.531  0.00  0.00    +0.134 C 
ATOM      4  C   UNL     1      -3.139  -0.315  -3.147  0.00  0.00    +0.100 C 
ATOM      5  C   UNL     1      -4.280  -0.267  -2.428  0.00  0.00    +0.195 C 
ATOM      6  O   UNL     1      -4.421  -0.564  -1.124  0.00  0.00    -0.448 OA
ATOM      7  C   UNL     1      -3.425  -1.397  -0.524  0.00  0.00    +0.343 C 
ATOM      8  N   UNL     1      -3.297  -1.157   0.917  0.00  0.00    -0.138 NA
ATOM      9  N   UNL     1      -2.163  -0.710   1.129  0.00  0.00    -0.155 NA
ENDROOT
BRANCH   3  10
ATOM     10  C   UNL     1      -1.418  -2.104  -3.087  0.00  0.00    +0.118 A 
ATOM     11  C   UNL     1      -0.247  -2.378  -3.693  0.00  0.00    +0.046 A 
ATOM     12  C   UNL     1      -0.279  -3.740  -4.056  0.00  0.00    +0.050 A 
ATOM     13  C   UNL     1      -1.481  -4.226  -3.646  0.00  0.00    +0.135 A 
ATOM     14  O   UNL     1      -2.159  -3.224  -3.055  0.00  0.00    -0.459 OA
BRANCH  13  15
ATOM     15  C   UNL     1      -1.959  -5.614  -3.816  0.00  0.00    +0.017 A 
ATOM     16  C   UNL     1      -1.147  -6.563  -4.439  0.00  0.00    +0.014 A 
ATOM     17  C   UNL     1      -1.597  -7.857  -4.595  0.00  0.00    +0.039 A 
ATOM     18  C   UNL     1      -2.853  -8.217  -4.133  0.00  0.00    +0.123 A 
ATOM     19  C   UNL     1      -3.664  -7.279  -3.513  0.00  0.00    +0.039 A 
ATOM     20  C   UNL     1      -3.221  -5.983  -3.347  0.00  0.00    +0.014 A 
ATOM     21  F   UNL     1      -3.290  -9.486  -4.288  0.00  0.00    -0.205 F 
ENDBRANCH  13  15
ENDBRANCH   3  10
BRANCH   5  22
ATOM     22  N   UNL     1      -5.413   0.125  -3.097  0.00  0.00    -0.329 N 
ATOM     23  H   UNL     1      -5.366   0.351  -4.039  0.00  0.00    +0.145 HD
ATOM     24  H   UNL     1      -6.260   0.176  -2.627  0.00  0.00    +0.145 HD
ENDBRANCH   5  22
BRANCH   1  26
ATOM     25  C   UNL     1      -0.019   1.526   0.010  0.00  0.00    +0.010 C 
ATOM     26  C   UNL     1       0.002  -0.004   0.002  0.00  0.00    +0.054 C 
ENDBRANCH   1  26
BRANCH   4  27
ATOM     27  C   UNL     1      -3.167   0.068  -4.527  0.00  0.00    +0.101 C 
ATOM     28  N   UNL     1      -3.190   0.371  -5.621  0.00  0.00    -0.191 NA
ENDBRANCH   4  27
TORSDOF 5
