REMARK  Name = ZINC12512037
REMARK  6 active torsions:
REMARK  status: ('A' for Active; 'I' for Inactive)
REMARK    1  A    between atoms: C_1  and  C_2
REMARK    2  A    between atoms: C_7  and  O_8
REMARK    3  A    between atoms: O_8  and  C_9
REMARK    4  A    between atoms: C_9  and  C_10
REMARK    5  A    between atoms: N_12  and  N_13
REMARK    6  A    between atoms: C_19  and  C_22
REMARK                            x       y       z     vdW  Elec       q    Type
REMARK                         _______ _______ _______ _____ _____    ______ ____
ROOT
ATOM      1  C   UNL     1      -1.536  -1.435  -1.118  0.00  0.00    +0.267 C 
ATOM      2  O   UNL     1      -0.893  -1.305  -2.138  0.00  0.00    -0.271 OA
ATOM      3  N   UNL     1      -1.146  -0.807   0.009  0.00  0.00    -0.221 N 
ATOM      4  H   UNL     1      -1.660  -0.911   0.825  0.00  0.00    +0.174 HD
ENDROOT
BRANCH   3   5
ATOM      5  N   UNL     1       0.002  -0.004   0.002  0.00  0.00    -0.137 N 
ATOM      6  C   UNL     1      -0.016   1.345   0.009  0.00  0.00    +0.263 C 
ATOM      7  O   UNL     1      -0.991   2.066   0.018  0.00  0.00    -0.271 OA
ATOM      8  C   UNL     1       1.435   1.768  -0.002  0.00  0.00    +0.114 C 
ATOM      9  C   UNL     1       1.765   2.567   1.254  0.00  0.00    +0.035 C 
ATOM     10  C   UNL     1       3.244   2.962   1.237  0.00  0.00    +0.006 C 
ATOM     11  C   UNL     1       3.533   3.799  -0.011  0.00  0.00    -0.014 C 
ATOM     12  C   UNL     1       3.220   2.976  -1.262  0.00  0.00    +0.006 C 
ATOM     13  C   UNL     1       1.741   2.581  -1.255  0.00  0.00    +0.035 C 
ATOM     14  C   UNL     1       5.008   4.205  -0.023  0.00  0.00    +0.007 C 
ATOM     15  N   UNL     1       2.176   0.501  -0.016  0.00  0.00    -0.284 N 
ATOM     16  C   UNL     1       1.253  -0.480  -0.013  0.00  0.00    +0.326 C 
ATOM     17  O   UNL     1       1.526  -1.665  -0.021  0.00  0.00    -0.251 OA
ATOM     18  H   UNL     1       3.140   0.392  -0.026  0.00  0.00    +0.151 HD
ENDBRANCH   3   5
BRANCH   1  19
ATOM     19  C   UNL     1      -2.771  -2.299  -1.110  0.00  0.00    +0.326 C 
BRANCH  19  20
ATOM     20  O   UNL     1      -2.974  -2.850  -2.413  0.00  0.00    -0.482 OA
BRANCH  20  27
ATOM     21  C   UNL     1      -3.401  -3.942  -4.982  0.00  0.00    +0.047 C 
ATOM     22  C   UNL     1      -4.314  -4.225  -3.818  0.00  0.00    -0.007 A 
ATOM     23  C   UNL     1      -5.409  -5.051  -3.983  0.00  0.00    +0.027 A 
ATOM     24  C   UNL     1      -6.252  -5.306  -2.916  0.00  0.00    +0.041 A 
ATOM     25  C   UNL     1      -5.996  -4.739  -1.679  0.00  0.00    +0.023 A 
ATOM     26  C   UNL     1      -4.899  -3.917  -1.509  0.00  0.00    +0.047 A 
ATOM     27  C   UNL     1      -4.054  -3.660  -2.578  0.00  0.00    +0.124 A 
ATOM     28 CL   UNL     1      -7.631  -6.340  -3.127  0.00  0.00    -0.084 Cl
ENDBRANCH  20  27
ENDBRANCH  19  20
ENDBRANCH   1  19
TORSDOF 4
