REMARK  Name = ZINC36245350
REMARK  10 active torsions:
REMARK  status: ('A' for Active; 'I' for Inactive)
REMARK    1  A    between atoms: C_1  and  C_2
REMARK    2  A    between atoms: C_2  and  C_4
REMARK    3  A    between atoms: C_2  and  C_25
REMARK    4  A    between atoms: C_4  and  N_5
REMARK    5  A    between atoms: C_6  and  C_8
REMARK    6  A    between atoms: C_8  and  C_10
REMARK    7  A    between atoms: C_8  and  S_11
REMARK    8  A    between atoms: S_11  and  C_12
REMARK    9  A    between atoms: C_15  and  C_18
REMARK   10  A    between atoms: N_16  and  N_17
REMARK                            x       y       z     vdW  Elec       q    Type
REMARK                         _______ _______ _______ _____ _____    ______ ____
ROOT
ATOM      1  S   UNL     1       0.713   0.113  -6.302  0.00  0.00    -0.072 S 
ENDROOT
BRANCH   1   2
ATOM      2  C   UNL     1      -0.338   0.612  -7.626  0.00  0.00    +0.209 A 
ATOM      3  N   UNL     1      -1.629   0.846  -7.551  0.00  0.00    -0.121 NA
ATOM      4  N   UNL     1      -2.082   1.190  -8.703  0.00  0.00    -0.127 NA
ATOM      5  C   UNL     1      -1.109   1.197  -9.584  0.00  0.00    +0.183 A 
ATOM      6  N   UNL     1       0.039   0.833  -8.920  0.00  0.00    -0.224 N 
BRANCH   5   7
ATOM      7  C   UNL     1      -1.224   1.539 -11.018  0.00  0.00    +0.035 A 
ATOM      8  C   UNL     1      -0.648   0.712 -11.983  0.00  0.00    +0.013 A 
ATOM      9  C   UNL     1      -0.760   1.036 -13.320  0.00  0.00    +0.001 A 
ATOM     10  C   UNL     1      -1.441   2.177 -13.704  0.00  0.00    +0.001 A 
ATOM     11  C   UNL     1      -2.015   3.001 -12.753  0.00  0.00    +0.016 A 
ATOM     12  C   UNL     1      -1.915   2.686 -11.412  0.00  0.00    +0.029 A 
ATOM     13 BR   UNL     1      -2.707   3.810 -10.113  0.00  0.00    -0.050 Br
ENDBRANCH   5   7
BRANCH   6  14
ATOM     14  N   UNL     1       1.294   0.714  -9.446  0.00  0.00    -0.295 N 
ATOM     15  H   UNL     1       1.426  -0.195  -9.865  0.00  0.00    +0.163 HD
ATOM     16  H   UNL     1       1.479   1.449 -10.111  0.00  0.00    +0.163 HD
ENDBRANCH   6  14
ENDBRANCH   1   2
BRANCH   1  17
ATOM     17  C   UNL     1      -0.402   0.002  -4.875  0.00  0.00    +0.137 C 
ATOM     18  C   UNL     1      -1.421  -1.115  -5.110  0.00  0.00    +0.029 C 
BRANCH  17  20
ATOM     19  N   UNL     1      -0.119  -0.040  -2.418  0.00  0.00    -0.314 N 
ATOM     20  C   UNL     1       0.398  -0.302  -3.635  0.00  0.00    +0.226 C 
ATOM     21  O   UNL     1       1.508  -0.782  -3.731  0.00  0.00    -0.275 OA
ATOM     22  H   UNL     1      -1.007   0.344  -2.341  0.00  0.00    +0.149 HD
BRANCH  19  23
ATOM     23  C   UNL     1       0.659  -0.335  -1.212  0.00  0.00    +0.112 C 
BRANCH  23  25
ATOM     24  C   UNL     1      -0.364   1.569   0.041  0.00  0.00    +0.014 C 
ATOM     25  C   UNL     1      -0.152   0.054   0.025  0.00  0.00    +0.033 C 
BRANCH  25  26
ATOM     26  C   UNL     1       0.595  -0.361   1.266  0.00  0.00    -0.043 A 
ATOM     27  C   UNL     1       1.853   0.154   1.521  0.00  0.00    +0.004 A 
ATOM     28  C   UNL     1       2.538  -0.227   2.659  0.00  0.00    +0.000 A 
ATOM     29  C   UNL     1       1.966  -1.123   3.543  0.00  0.00    +0.000 A 
ATOM     30  C   UNL     1       0.709  -1.637   3.289  0.00  0.00    +0.000 A 
ATOM     31  C   UNL     1       0.021  -1.253   2.153  0.00  0.00    +0.004 A 
ENDBRANCH  25  26
ENDBRANCH  23  25
ENDBRANCH  19  23
ENDBRANCH  17  20
ENDBRANCH   1  17
TORSDOF 8
