REMARK  Name = ZINC36637999
REMARK  17 active torsions:
REMARK  status: ('A' for Active; 'I' for Inactive)
REMARK    1  A    between atoms: C_1  and  C_2
REMARK    2  A    between atoms: C_2  and  N_3
REMARK    3  A    between atoms: N_3  and  C_4
REMARK    4  A    between atoms: N_3  and  C_6
REMARK    5  A    between atoms: C_4  and  C_5
REMARK    6  A    between atoms: C_6  and  C_7
REMARK    7  A    between atoms: C_7  and  N_8
REMARK    8  A    between atoms: C_12  and  O_18
REMARK    9  A    between atoms: O_18  and  C_19
REMARK   10  A    between atoms: C_19  and  C_20
REMARK   11  A    between atoms: C_21  and  C_23
REMARK   12  A    between atoms: C_26  and  S_29
REMARK   13  A    between atoms: S_29  and  N_32
REMARK   14  A    between atoms: N_32  and  C_33
REMARK   15  A    between atoms: N_32  and  C_35
REMARK   16  A    between atoms: C_33  and  C_34
REMARK   17  A    between atoms: C_35  and  C_36
REMARK                            x       y       z     vdW  Elec       q    Type
REMARK                         _______ _______ _______ _____ _____    ______ ____
ROOT
ATOM      1  N   UNL     1      -0.621  -3.400   0.599  0.00  0.00    -0.248 N 
ATOM      2  C   UNL     1      -0.190  -3.352   1.914  0.00  0.00    +0.168 A 
ATOM      3  N   UNL     1      -0.839  -3.682   3.006  0.00  0.00    -0.221 NA
ATOM      4  C   UNL     1      -0.288  -3.584   4.236  0.00  0.00    +0.122 A 
ATOM      5  C   UNL     1      -0.876  -3.903   5.486  0.00  0.00    +0.147 A 
ATOM      6  C   UNL     1      -0.169  -3.742   6.654  0.00  0.00    +0.048 A 
ATOM      7  C   UNL     1       1.134  -3.265   6.652  0.00  0.00    +0.005 A 
ATOM      8  C   UNL     1       1.736  -2.945   5.449  0.00  0.00    +0.017 A 
ATOM      9  C   UNL     1       1.038  -3.102   4.276  0.00  0.00    +0.044 A 
ATOM     10  S   UNL     1       1.396  -2.835   2.556  0.00  0.00    -0.052 S 
ATOM     11  C   UNL     1      -1.868  -3.825   0.313  0.00  0.00    +0.252 C 
ATOM     12  O   UNL     1      -2.659  -4.033   1.212  0.00  0.00    -0.270 OA
ENDROOT
BRANCH  11  13
ATOM     13  C   UNL     1      -2.272  -4.037  -1.092  0.00  0.00    +0.037 A 
ATOM     14  C   UNL     1      -2.075  -3.030  -2.038  0.00  0.00    +0.015 A 
ATOM     15  C   UNL     1      -2.455  -3.235  -3.349  0.00  0.00    +0.029 A 
ATOM     16  C   UNL     1      -3.030  -4.436  -3.726  0.00  0.00    +0.106 A 
ATOM     17  C   UNL     1      -3.228  -5.438  -2.793  0.00  0.00    +0.029 A 
ATOM     18  C   UNL     1      -2.848  -5.248  -1.480  0.00  0.00    +0.015 A 
BRANCH  16  19
ATOM     19  S   UNL     1      -3.513  -4.689  -5.401  0.00  0.00    +0.061 S 
ATOM     20  O   UNL     1      -4.525  -5.687  -5.386  0.00  0.00    -0.153 OA
ATOM     21  O   UNL     1      -3.722  -3.401  -5.963  0.00  0.00    -0.153 OA
BRANCH  19  22
ATOM     22  N   UNL     1      -2.214  -5.345  -6.191  0.00  0.00    -0.177 NA
BRANCH  22  23
ATOM     23  C   UNL     1      -2.048  -6.799  -6.247  0.00  0.00    +0.106 C 
ATOM     24  C   UNL     1      -2.645  -7.331  -7.551  0.00  0.00    +0.022 C 
ENDBRANCH  22  23
BRANCH  22  25
ATOM     25  C   UNL     1      -1.230  -4.470  -6.835  0.00  0.00    +0.106 C 
ATOM     26  C   UNL     1      -0.061  -4.226  -5.878  0.00  0.00    +0.022 C 
ENDBRANCH  22  25
ENDBRANCH  19  22
ENDBRANCH  16  19
ENDBRANCH  11  13
BRANCH   1  27
ATOM     27  C   UNL     1       0.278  -2.987  -0.482  0.00  0.00    +0.097 C 
BRANCH  27  28
ATOM     28  C   UNL     1       0.313  -1.460  -0.561  0.00  0.00    -0.059 C 
BRANCH  28  29
ATOM     29  N   UNL     1       1.252  -1.045  -1.612  0.00  0.00    +0.380 N 
ATOM     30  H   UNL     1       2.160  -1.446  -1.428  0.00  0.00    -0.082 HD
BRANCH  29  32
ATOM     31  C   UNL     1       1.821  -1.228  -3.987  0.00  0.00    -0.017 C 
ATOM     32  C   UNL     1       0.766  -1.514  -2.916  0.00  0.00    -0.082 C 
ENDBRANCH  29  32
BRANCH  29  33
ATOM     33  C   UNL     1       1.357   0.420  -1.625  0.00  0.00    -0.082 C 
ATOM     34  C   UNL     1       1.898   0.905  -0.279  0.00  0.00    -0.017 C 
ENDBRANCH  29  33
ENDBRANCH  28  29
ENDBRANCH  27  28
ENDBRANCH   1  27
BRANCH   5  35
ATOM     35  O   UNL     1      -2.151  -4.372   5.531  0.00  0.00    -0.490 OA
BRANCH  35  36
ATOM     36  C   UNL     1      -2.686  -4.676   6.821  0.00  0.00    +0.226 C 
ATOM     37  C   UNL     1      -4.120  -5.187   6.670  0.00  0.00    +0.048 C 
ENDBRANCH  35  36
ENDBRANCH   5  35
TORSDOF 12
