REMARK  Name = ZINC66640780
REMARK  8 active torsions:
REMARK  status: ('A' for Active; 'I' for Inactive)
REMARK    1  A    between atoms: C_1  and  C_2
REMARK    2  A    between atoms: C_2  and  C_3
REMARK    3  A    between atoms: C_2  and  N_4
REMARK    4  A    between atoms: C_5  and  C_10
REMARK    5  A    between atoms: C_10  and  N_11
REMARK    6  A    between atoms: C_12  and  C_14
REMARK    7  A    between atoms: C_17  and  C_20
REMARK    8  A    between atoms: N_18  and  C_19
REMARK                            x       y       z     vdW  Elec       q    Type
REMARK                         _______ _______ _______ _____ _____    ______ ____
ROOT
ATOM      1  N   UNL     1      -2.131  -2.217  -3.451  0.00  0.00    -0.303 N 
ATOM      2  C   UNL     1      -1.685  -3.182  -4.280  0.00  0.00    +0.261 C 
ATOM      3  O   UNL     1      -0.493  -3.291  -4.502  0.00  0.00    -0.269 OA
ATOM      4  H   UNL     1      -3.084  -2.084  -3.331  0.00  0.00    +0.150 HD
ENDROOT
BRANCH   2   5
ATOM      5  C   UNL     1      -2.635  -4.099  -4.915  0.00  0.00    +0.105 A 
ATOM      6  C   UNL     1      -3.993  -4.156  -4.673  0.00  0.00    +0.033 A 
ATOM      7  C   UNL     1      -4.520  -5.162  -5.481  0.00  0.00    +0.028 A 
ATOM      8  C   UNL     1      -3.480  -5.705  -6.205  0.00  0.00    +0.049 A 
ATOM      9  N   UNL     1      -2.332  -5.052  -5.863  0.00  0.00    -0.339 N 
ATOM     10  C   UNL     1      -0.999  -5.321  -6.409  0.00  0.00    +0.149 C 
BRANCH   8  11
ATOM     11  C   UNL     1      -3.590  -6.803  -7.187  0.00  0.00    -0.001 A 
ATOM     12  C   UNL     1      -2.466  -7.561  -7.521  0.00  0.00    +0.013 A 
ATOM     13  C   UNL     1      -2.575  -8.584  -8.438  0.00  0.00    +0.039 A 
ATOM     14  C   UNL     1      -3.797  -8.861  -9.029  0.00  0.00    +0.123 A 
ATOM     15  C   UNL     1      -4.916  -8.112  -8.703  0.00  0.00    +0.039 A 
ATOM     16  C   UNL     1      -4.820  -7.090  -7.782  0.00  0.00    +0.013 A 
ATOM     17  F   UNL     1      -3.898  -9.865  -9.928  0.00  0.00    -0.205 F 
ENDBRANCH   8  11
ENDBRANCH   2   5
BRANCH   1  18
ATOM     18  C   UNL     1      -1.175  -1.371  -2.732  0.00  0.00    +0.181 C 
BRANCH  18  20
ATOM     19  N   UNL     1      -1.354   0.570  -1.069  0.00  0.00    -0.303 N 
ATOM     20  C   UNL     1      -1.925  -0.380  -1.879  0.00  0.00    +0.149 A 
ATOM     21  N   UNL     1      -3.213  -0.286  -1.790  0.00  0.00    -0.157 NA
ATOM     22  N   UNL     1      -3.513   0.753  -0.899  0.00  0.00    -0.254 N 
ATOM     23  C   UNL     1      -2.341   1.260  -0.464  0.00  0.00    +0.176 A 
ATOM     24  S   UNL     1      -2.143   2.547   0.648  0.00  0.00    -0.011 S 
ATOM     25  H   UNL     1      -4.399   1.050  -0.639  0.00  0.00    +0.191 HD
BRANCH  19  27
ATOM     26  C   UNL     1       0.436   2.220  -1.307  0.00  0.00    +0.030 C 
ATOM     27  C   UNL     1       0.083   0.791  -0.888  0.00  0.00    +0.085 C 
ATOM     28  C   UNL     1       0.450   0.586   0.583  0.00  0.00    +0.030 C 
ENDBRANCH  19  27
ENDBRANCH  18  20
ENDBRANCH   1  18
TORSDOF 5
