REMARK  Name = ZINC32992673
REMARK  12 active torsions:
REMARK  status: ('A' for Active; 'I' for Inactive)
REMARK    1  A    between atoms: C_1  and  C_2
REMARK    2  A    between atoms: C_7  and  O_8
REMARK    3  A    between atoms: O_8  and  C_9
REMARK    4  A    between atoms: C_9  and  C_10
REMARK    5  A    between atoms: C_10  and  C_11
REMARK    6  A    between atoms: N_13  and  C_14
REMARK    7  A    between atoms: N_13  and  C_22
REMARK    8  A    between atoms: C_14  and  C_15
REMARK    9  A    between atoms: C_15  and  C_16
REMARK   10  A    between atoms: C_23  and  N_38
REMARK   11  A    between atoms: N_24  and  C_31
REMARK   12  A    between atoms: C_31  and  C_32
REMARK                            x       y       z     vdW  Elec       q    Type
REMARK                         _______ _______ _______ _____ _____    ______ ____
ROOT
ATOM      1  C   UNL     1      -0.483   4.267  -5.426  0.00  0.00    +0.223 C 
ATOM      2  O   UNL     1      -0.666   4.824  -6.489  0.00  0.00    -0.275 OA
ATOM      3  N   UNL     1      -0.448   4.987  -4.285  0.00  0.00    -0.264 N 
ENDROOT
BRANCH   3   4
ATOM      4  C   UNL     1      -0.735   6.368  -4.314  0.00  0.00    +0.140 A 
ATOM      5  C   UNL     1       0.243   7.295  -4.013  0.00  0.00    +0.128 A 
ATOM      6  N   UNL     1      -0.065   8.634  -4.055  0.00  0.00    -0.276 N 
ATOM      7  C   UNL     1      -1.309   9.037  -4.373  0.00  0.00    +0.331 A 
ATOM      8  O   UNL     1      -1.563  10.226  -4.400  0.00  0.00    -0.246 OA
ATOM      9  N   UNL     1      -2.276   8.149  -4.664  0.00  0.00    -0.273 N 
ATOM     10  H   UNL     1      -3.286   8.500  -4.922  0.00  0.00    +0.173 HD
ATOM     11  C   UNL     1      -2.025   6.825  -4.643  0.00  0.00    +0.277 A 
ATOM     12  O   UNL     1      -2.909   6.028  -4.908  0.00  0.00    -0.266 OA
BRANCH   5  13
ATOM     13  N   UNL     1       1.512   6.883  -3.682  0.00  0.00    -0.343 N 
ATOM     14  H   UNL     1       2.287   7.627  -3.443  0.00  0.00    +0.144 HD
ATOM     15  H   UNL     1       1.753   5.810  -3.655  0.00  0.00    +0.144 HD
ENDBRANCH   5  13
BRANCH   6  16
ATOM     16  C   UNL     1       0.965   9.629  -3.743  0.00  0.00    +0.163 C 
BRANCH  16  17
ATOM     17  C   UNL     1       0.950   9.921  -2.265  0.00  0.00    -0.028 A 
ATOM     18  C   UNL     1       0.155  10.937  -1.769  0.00  0.00    +0.005 A 
ATOM     19  C   UNL     1       0.138  11.201  -0.412  0.00  0.00    +0.000 A 
ATOM     20  C   UNL     1       0.924  10.457   0.447  0.00  0.00    +0.000 A 
ATOM     21  C   UNL     1       1.724   9.445  -0.050  0.00  0.00    +0.000 A 
ATOM     22  C   UNL     1       1.737   9.177  -1.406  0.00  0.00    +0.005 A 
ENDBRANCH  16  17
ENDBRANCH   6  16
ENDBRANCH   3   4
BRANCH   1  23
ATOM     23  C   UNL     1      -0.295   2.773  -5.380  0.00  0.00    +0.137 C 
BRANCH  23  24
ATOM     24  C   UNL     1      -0.380   2.204  -6.798  0.00  0.00    +0.238 C 
BRANCH  24  25
ATOM     25  O   UNL     1      -0.201   0.787  -6.755  0.00  0.00    -0.491 OA
BRANCH  25  32
ATOM     26  C   UNL     1       0.148  -2.015  -6.691  0.00  0.00    +0.047 C 
ATOM     27  C   UNL     1      -0.083  -1.254  -7.971  0.00  0.00    -0.009 A 
ATOM     28  C   UNL     1      -0.131  -1.927  -9.176  0.00  0.00    +0.007 A 
ATOM     29  C   UNL     1      -0.344  -1.230 -10.351  0.00  0.00    +0.000 A 
ATOM     30  C   UNL     1      -0.509   0.143 -10.322  0.00  0.00    +0.004 A 
ATOM     31  C   UNL     1      -0.467   0.820  -9.119  0.00  0.00    +0.046 A 
ATOM     32  C   UNL     1      -0.248   0.123  -7.939  0.00  0.00    +0.123 A 
ENDBRANCH  25  32
ENDBRANCH  24  25
ENDBRANCH  23  24
ENDBRANCH   1  23
BRANCH   3  33
ATOM     33  C   UNL     1      -0.112   4.335  -3.018  0.00  0.00    +0.118 C 
BRANCH  33  34
ATOM     34  C   UNL     1      -1.398   3.926  -2.297  0.00  0.00    +0.050 C 
BRANCH  34  35
ATOM     35  C   UNL     1      -1.052   3.255  -0.993  0.00  0.00    -0.072 C 
ATOM     36  C   UNL     1      -1.035   3.982   0.078  0.00  0.00    -0.028 C 
ATOM     37  C   UNL     1      -0.700   3.459   1.444  0.00  0.00    +0.027 C 
ATOM     38  C   UNL     1      -0.800   1.933   1.467  0.00  0.00    +0.004 C 
ATOM     39  C   UNL     1      -0.023   1.377   0.267  0.00  0.00    +0.005 C 
ATOM     40  C   UNL     1      -0.749   1.786  -1.017  0.00  0.00    +0.030 C 
ENDBRANCH  34  35
ENDBRANCH  33  34
ENDBRANCH   3  33
TORSDOF 11
