REMARK  Name = ZINC39531489
REMARK  10 active torsions:
REMARK  status: ('A' for Active; 'I' for Inactive)
REMARK    1  A    between atoms: C_1  and  C_2
REMARK    2  A    between atoms: C_2  and  C_3
REMARK    3  A    between atoms: N_5  and  C_6
REMARK    4  A    between atoms: C_8  and  C_23
REMARK    5  A    between atoms: C_13  and  C_16
REMARK    6  A    between atoms: N_14  and  C_15
REMARK    7  A    between atoms: C_16  and  C_17
REMARK    8  A    between atoms: N_25  and  C_26
REMARK    9  A    between atoms: N_25  and  C_27
REMARK   10  A    between atoms: C_27  and  C_28
REMARK                            x       y       z     vdW  Elec       q    Type
REMARK                         _______ _______ _______ _____ _____    ______ ____
ROOT
ATOM      1  C   UNL     1      -2.330  -2.628   0.054  0.00  0.00    +0.036 A 
ATOM      2  C   UNL     1      -2.685  -3.970   0.100  0.00  0.00    +0.038 A 
ATOM      3  C   UNL     1      -4.006  -4.338   0.347  0.00  0.00    +0.064 A 
ATOM      4  C   UNL     1      -4.974  -3.345   0.551  0.00  0.00    +0.081 A 
ATOM      5  C   UNL     1      -4.609  -1.990   0.504  0.00  0.00    +0.092 A 
ATOM      6  C   UNL     1      -3.279  -1.642   0.259  0.00  0.00    +0.053 A 
ATOM      7  N   UNL     1      -5.737  -1.269   0.733  0.00  0.00    -0.232 NA
ATOM      8  C   UNL     1      -6.741  -2.076   0.912  0.00  0.00    +0.115 A 
ATOM      9  N   UNL     1      -6.326  -3.368   0.810  0.00  0.00    -0.330 N 
ATOM     10  C   UNL     1      -7.163  -4.562   0.950  0.00  0.00    +0.150 C 
ENDROOT
BRANCH   1  13
ATOM     11  C   UNL     1      -0.721  -1.160  -0.908  0.00  0.00    +0.217 C 
ATOM     12  O   UNL     1      -1.621  -0.521  -1.409  0.00  0.00    -0.275 OA
ATOM     13  N   UNL     1      -0.998  -2.270  -0.195  0.00  0.00    -0.285 N 
ATOM     14  H   UNL     1      -0.276  -2.821   0.145  0.00  0.00    +0.155 HD
BRANCH  11  16
ATOM     15  C   UNL     1       0.745   0.562  -1.925  0.00  0.00    +0.013 C 
ATOM     16  C   UNL     1       0.708  -0.714  -1.082  0.00  0.00    +0.093 C 
ENDBRANCH  11  16
ENDBRANCH   1  13
BRANCH   3  17
ATOM     17  C   UNL     1      -4.383  -5.764   0.395  0.00  0.00    +0.249 C 
ATOM     18  O   UNL     1      -5.032  -6.190   1.331  0.00  0.00    -0.270 OA
ATOM     19  N   UNL     1      -4.008  -6.593  -0.599  0.00  0.00    -0.298 N 
ATOM     20  C   UNL     1      -3.150  -6.102  -1.679  0.00  0.00    +0.132 C 
BRANCH  19  21
ATOM     21  C   UNL     1      -4.460  -7.987  -0.600  0.00  0.00    +0.140 C 
BRANCH  21  22
ATOM     22  C   UNL     1      -5.786  -8.093  -1.356  0.00  0.00    +0.173 C 
ATOM     23  C   UNL     1      -6.374  -9.472  -1.216  0.00  0.00    -0.019 C 
ATOM     24  C   UNL     1      -7.540  -9.298  -0.611  0.00  0.00    +0.065 C 
ATOM     25  C   UNL     1      -8.499 -10.432  -0.275  0.00  0.00    +0.057 C 
ATOM     26  C   UNL     1      -8.965 -11.036  -1.607  0.00  0.00    +0.006 C 
ATOM     27  C   UNL     1      -7.935 -11.981  -2.172  0.00  0.00    +0.001 C 
ATOM     28  C   UNL     1      -6.690 -11.357  -2.754  0.00  0.00    +0.004 C 
ATOM     29  C   UNL     1      -5.787 -10.802  -1.638  0.00  0.00    +0.035 C 
ATOM     30  N   UNL     1      -7.736  -7.984  -0.350  0.00  0.00    -0.158 NA
ATOM     31  N   UNL     1      -6.818  -7.241  -0.731  0.00  0.00    -0.178 NA
ENDBRANCH  21  22
ENDBRANCH  19  21
ENDBRANCH   3  17
BRANCH   8  32
ATOM     32  C   UNL     1      -8.158  -1.643   1.193  0.00  0.00    +0.109 C 
BRANCH  32  33
ATOM     33  C   UNL     1      -8.898  -1.475  -0.109  0.00  0.00    -0.040 A 
ATOM     34  C   UNL     1      -8.892  -0.253  -0.755  0.00  0.00    +0.004 A 
ATOM     35  C   UNL     1      -9.572  -0.099  -1.949  0.00  0.00    +0.000 A 
ATOM     36  C   UNL     1     -10.257  -1.167  -2.497  0.00  0.00    +0.000 A 
ATOM     37  C   UNL     1     -10.262  -2.390  -1.852  0.00  0.00    +0.000 A 
ATOM     38  C   UNL     1      -9.579  -2.545  -0.660  0.00  0.00    +0.004 A 
ENDBRANCH  32  33
ENDBRANCH   8  32
TORSDOF 7
