REMARK  Name = ZINC45865686
REMARK  10 active torsions:
REMARK  status: ('A' for Active; 'I' for Inactive)
REMARK    1  A    between atoms: C_1  and  C_2
REMARK    2  A    between atoms: C_2  and  C_3
REMARK    3  A    between atoms: C_3  and  C_4
REMARK    4  A    between atoms: C_7  and  C_10
REMARK    5  A    between atoms: C_10  and  C_12
REMARK    6  A    between atoms: C_10  and  N_17
REMARK    7  A    between atoms: C_18  and  C_20
REMARK    8  A    between atoms: C_20  and  N_21
REMARK    9  A    between atoms: C_24  and  C_28
REMARK   10  A    between atoms: C_24  and  C_29
REMARK                            x       y       z     vdW  Elec       q    Type
REMARK                         _______ _______ _______ _____ _____    ______ ____
ROOT
ATOM      1  N   UNL     1      -0.555  -6.784  -1.045  0.00  0.00    -0.303 N 
ATOM      2  C   UNL     1      -0.728  -8.012  -0.516  0.00  0.00    +0.232 C 
ATOM      3  O   UNL     1       0.236  -8.696  -0.243  0.00  0.00    -0.274 OA
ATOM      4  H   UNL     1      -1.326  -6.237  -1.263  0.00  0.00    +0.150 HD
ENDROOT
BRANCH   1   5
ATOM      5  C   UNL     1       0.797  -6.276  -1.289  0.00  0.00    +0.140 C 
BRANCH   5   9
ATOM      6  C   UNL     1       0.739  -2.004  -1.265  0.00  0.00    -0.047 A 
ATOM      7  C   UNL     1       1.788  -2.685  -0.675  0.00  0.00    +0.004 A 
ATOM      8  C   UNL     1       1.806  -4.067  -0.683  0.00  0.00    +0.006 A 
ATOM      9  C   UNL     1       0.776  -4.769  -1.280  0.00  0.00    -0.022 A 
ATOM     10  C   UNL     1      -0.273  -4.088  -1.869  0.00  0.00    +0.006 A 
ATOM     11  C   UNL     1      -0.294  -2.706  -1.858  0.00  0.00    +0.004 A 
BRANCH   6  12
ATOM     12  C   UNL     1       0.718  -0.497  -1.257  0.00  0.00    +0.035 C 
BRANCH  12  14
ATOM     13  C   UNL     1      -0.019   1.526   0.010  0.00  0.00    +0.004 C 
ATOM     14  C   UNL     1       0.002  -0.004   0.002  0.00  0.00    +0.001 C 
ENDBRANCH  12  14
ENDBRANCH   6  12
ENDBRANCH   5   9
BRANCH   5  15
ATOM     15  C   UNL     1       1.282  -6.763  -2.630  0.00  0.00    +0.014 A 
ATOM     16  C   UNL     1       2.514  -7.206  -2.982  0.00  0.00    +0.013 A 
ATOM     17  C   UNL     1       2.734  -7.609  -4.286  0.00  0.00    +0.008 A 
ATOM     18  C   UNL     1       1.711  -7.549  -5.174  0.00  0.00    +0.045 A 
ATOM     19  S   UNL     1       0.382  -6.915  -4.164  0.00  0.00    -0.099 S 
ENDBRANCH   5  15
ENDBRANCH   1   5
BRANCH   2  20
ATOM     20  C   UNL     1      -2.119  -8.535  -0.265  0.00  0.00    +0.213 C 
BRANCH  20  21
ATOM     21  N   UNL     1      -2.038  -9.881   0.309  0.00  0.00    -0.215 N 
ATOM     22  C   UNL     1      -2.011 -11.014  -0.420  0.00  0.00    +0.251 C 
ATOM     23  O   UNL     1      -2.048 -11.109  -1.628  0.00  0.00    -0.272 OA
ATOM     24  C   UNL     1      -1.924 -12.146   0.586  0.00  0.00    +0.135 C 
ATOM     25  N   UNL     1      -1.911 -11.453   1.886  0.00  0.00    -0.281 N 
ATOM     26  C   UNL     1      -1.976 -10.136   1.621  0.00  0.00    +0.310 C 
ATOM     27  O   UNL     1      -1.981  -9.274   2.478  0.00  0.00    -0.252 OA
ATOM     28  C   UNL     1      -3.147 -13.059   0.474  0.00  0.00    +0.047 C 
ATOM     29  H   UNL     1      -1.862 -11.866   2.762  0.00  0.00    +0.152 HD
BRANCH  24  30
ATOM     30  C   UNL     1      -0.654 -12.932   0.391  0.00  0.00    -0.015 A 
ATOM     31  C   UNL     1      -0.086 -13.026  -0.866  0.00  0.00    +0.009 A 
ATOM     32  C   UNL     1       1.080 -13.747  -1.046  0.00  0.00    +0.039 A 
ATOM     33  C   UNL     1       1.679 -14.374   0.033  0.00  0.00    +0.123 A 
ATOM     34  C   UNL     1       1.109 -14.279   1.291  0.00  0.00    +0.039 A 
ATOM     35  C   UNL     1      -0.054 -13.553   1.470  0.00  0.00    +0.009 A 
ATOM     36  F   UNL     1       2.818 -15.079  -0.142  0.00  0.00    -0.205 F 
ENDBRANCH  24  30
ENDBRANCH  20  21
ENDBRANCH   2  20
TORSDOF 8
