REMARK  Name = ZINC12993685
REMARK  8 active torsions:
REMARK  status: ('A' for Active; 'I' for Inactive)
REMARK    1  A    between atoms: C_1  and  C_2
REMARK    2  A    between atoms: C_2  and  C_3
REMARK    3  A    between atoms: C_2  and  C_4
REMARK    4  A    between atoms: C_4  and  C_6
REMARK    5  A    between atoms: C_4  and  N_16
REMARK    6  A    between atoms: N_16  and  C_17
REMARK    7  A    between atoms: C_17  and  C_18
REMARK    8  A    between atoms: C_25  and  C_29
REMARK                            x       y       z     vdW  Elec       q    Type
REMARK                         _______ _______ _______ _____ _____    ______ ____
ROOT
ATOM      1  C   UNL     1      -2.618   1.113  -1.198  0.00  0.00    +0.156 C 
ENDROOT
BRANCH   1   2
ATOM      2  C   UNL     1      -3.183   1.526  -2.533  0.00  0.00    +0.125 A 
ATOM      3  N   UNL     1      -3.750   2.753  -2.666  0.00  0.00    -0.309 N 
ATOM      4  H   UNL     1      -3.783   3.346  -1.899  0.00  0.00    +0.170 HD
ATOM      5  C   UNL     1      -4.266   3.163  -3.839  0.00  0.00    +0.260 A 
ATOM      6  O   UNL     1      -4.771   4.268  -3.940  0.00  0.00    -0.267 OA
ATOM      7  C   UNL     1      -4.212   2.280  -4.969  0.00  0.00    +0.073 A 
ATOM      8  C   UNL     1      -4.681   2.492  -6.276  0.00  0.00    +0.031 A 
ATOM      9  C   UNL     1      -4.532   1.521  -7.213  0.00  0.00    +0.022 A 
ATOM     10  S   UNL     1      -3.710   0.220  -6.308  0.00  0.00    -0.068 S 
ATOM     11  C   UNL     1      -3.605   1.031  -4.732  0.00  0.00    +0.116 A 
ATOM     12  N   UNL     1      -3.113   0.701  -3.543  0.00  0.00    -0.225 NA
BRANCH   9  13
ATOM     13  C   UNL     1      -4.948   1.536  -8.631  0.00  0.00    -0.011 A 
ATOM     14  C   UNL     1      -5.581   2.660  -9.164  0.00  0.00    +0.009 A 
ATOM     15  C   UNL     1      -5.966   2.669 -10.488  0.00  0.00    +0.001 A 
ATOM     16  C   UNL     1      -5.727   1.565 -11.288  0.00  0.00    +0.000 A 
ATOM     17  C   UNL     1      -5.101   0.447 -10.766  0.00  0.00    +0.001 A 
ATOM     18  C   UNL     1      -4.705   0.428  -9.445  0.00  0.00    +0.009 A 
ENDBRANCH   9  13
ENDBRANCH   1   2
BRANCH   1  19
ATOM     19  N   UNL     1      -2.057  -0.241  -1.302  0.00  0.00    -0.302 NA
ATOM     20  H   UNL     1      -1.305  -0.270  -1.974  0.00  0.00    +0.123 HD
BRANCH  19  21
ATOM     21  C   UNL     1      -1.611  -0.728   0.010  0.00  0.00    +0.087 C 
BRANCH  21  22
ATOM     22  C   UNL     1      -1.665  -2.234   0.031  0.00  0.00    -0.027 A 
ATOM     23  C   UNL     1      -1.267  -2.955  -1.079  0.00  0.00    +0.009 A 
ATOM     24  C   UNL     1      -1.317  -4.336  -1.063  0.00  0.00    +0.050 A 
ATOM     25  C   UNL     1      -1.766  -5.003   0.067  0.00  0.00    +0.162 A 
ATOM     26  C   UNL     1      -2.163  -4.278   1.184  0.00  0.00    +0.162 A 
ATOM     27  C   UNL     1      -2.107  -2.892   1.163  0.00  0.00    +0.054 A 
ATOM     28  O   UNL     1      -2.600  -4.912   2.307  0.00  0.00    -0.485 OA
ATOM     29  C   UNL     1      -2.989  -6.282   2.162  0.00  0.00    +0.270 C 
ATOM     30  C   UNL     1      -1.910  -7.004   1.342  0.00  0.00    +0.270 C 
ATOM     31  O   UNL     1      -1.813  -6.363   0.066  0.00  0.00    -0.485 OA
ENDBRANCH  21  22
BRANCH  21  33
ATOM     32  C   UNL     1       0.246  -0.663   1.680  0.00  0.00    +0.009 C 
ATOM     33  C   UNL     1      -0.174  -0.266   0.264  0.00  0.00    +0.004 C 
ATOM     34  C   UNL     1       0.761  -0.927  -0.751  0.00  0.00    +0.009 C 
ENDBRANCH  21  33
ENDBRANCH  19  21
ENDBRANCH   1  19
TORSDOF 6
