REMARK  Name = ZINC00858576
REMARK  6 active torsions:
REMARK  status: ('A' for Active; 'I' for Inactive)
REMARK    1  A    between atoms: C_1  and  C_2
REMARK    2  A    between atoms: C_5  and  N_9
REMARK    3  A    between atoms: C_6  and  C_8
REMARK    4  A    between atoms: C_18  and  C_24
REMARK    5  A    between atoms: C_21  and  C_23
REMARK    6  A    between atoms: C_24  and  O_25
REMARK                            x       y       z     vdW  Elec       q    Type
REMARK                         _______ _______ _______ _____ _____    ______ ____
ROOT
ATOM      1  N   UNL     1      -2.255  -1.041  -2.172  0.00  0.00    -0.209 N 
ATOM      2  C   UNL     1      -2.178  -0.130  -1.196  0.00  0.00    +0.233 C 
ATOM      3  O   UNL     1      -2.663   0.981  -1.236  0.00  0.00    -0.274 OA
ATOM      4  C   UNL     1      -1.395  -0.697  -0.035  0.00  0.00    +0.126 C 
ATOM      5  C   UNL     1      -0.993  -2.165  -0.523  0.00  0.00    +0.129 C 
ATOM      6  C   UNL     1      -1.594  -2.271  -1.906  0.00  0.00    +0.233 C 
ATOM      7  O   UNL     1      -1.511  -3.238  -2.632  0.00  0.00    -0.274 OA
ATOM      8  C   UNL     1       0.553  -2.016  -0.670  0.00  0.00    +0.124 C 
ATOM      9  C   UNL     1       1.078  -1.877   0.761  0.00  0.00    +0.009 C 
ATOM     10  C   UNL     1       0.745  -0.663   1.167  0.00  0.00    +0.007 C 
ATOM     11  C   UNL     1       0.002  -0.004   0.002  0.00  0.00    +0.098 C 
ATOM     12  O   UNL     1       0.678  -0.631  -1.140  0.00  0.00    -0.355 OA
ATOM     13  C   UNL     1      -0.019   1.526   0.010  0.00  0.00    +0.047 C 
ENDROOT
BRANCH   1  18
ATOM     14  C   UNL     1      -4.960  -0.072  -7.066  0.00  0.00    +0.044 C 
ATOM     15  C   UNL     1      -4.242  -0.329  -5.767  0.00  0.00    -0.050 A 
ATOM     16  C   UNL     1      -2.899  -0.021  -5.648  0.00  0.00    +0.005 A 
ATOM     17  C   UNL     1      -2.239  -0.251  -4.457  0.00  0.00    +0.024 A 
ATOM     18  C   UNL     1      -2.923  -0.801  -3.381  0.00  0.00    +0.047 A 
ATOM     19  C   UNL     1      -4.271  -1.110  -3.503  0.00  0.00    -0.028 A 
ATOM     20  C   UNL     1      -4.927  -0.873  -4.696  0.00  0.00    +0.008 A 
ATOM     21  C   UNL     1      -5.018  -1.702  -2.336  0.00  0.00    +0.046 C 
ENDBRANCH   1  18
BRANCH   8  22
ATOM     22  C   UNL     1       1.242  -3.079  -1.528  0.00  0.00    +0.195 C 
BRANCH  22  23
ATOM     23  O   UNL     1       2.654  -2.861  -1.513  0.00  0.00    -0.392 OA
ATOM     24  H   UNL     1       3.320  -3.531  -2.077  0.00  0.00    +0.210 HD
ENDBRANCH  22  23
ENDBRANCH   8  22
TORSDOF 3
