REMARK  Name = ZINC19320705
REMARK  5 active torsions:
REMARK  status: ('A' for Active; 'I' for Inactive)
REMARK    1  A    between atoms: C_1  and  C_2
REMARK    2  A    between atoms: C_11  and  C_12
REMARK    3  A    between atoms: N_17  and  C_20
REMARK    4  A    between atoms: C_20  and  C_21
REMARK    5  A    between atoms: C_21  and  C_22
REMARK                            x       y       z     vdW  Elec       q    Type
REMARK                         _______ _______ _______ _____ _____    ______ ____
ROOT
ATOM      1  C   UNL     1      -0.018   1.503   0.010  0.00  0.00    +0.046 C 
ATOM      2  C   UNL     1       0.002  -0.004   0.002  0.00  0.00    -0.024 A 
ATOM      3  C   UNL     1       0.006  -0.683  -1.179  0.00  0.00    +0.005 A 
ATOM      4  C   UNL     1       0.025  -2.075  -1.208  0.00  0.00    +0.001 A 
ATOM      5  C   UNL     1       0.040  -2.800  -0.054  0.00  0.00    +0.012 A 
ATOM      6  C   UNL     1       0.037  -2.134   1.179  0.00  0.00    +0.022 A 
ATOM      7  C   UNL     1       0.023  -0.716   1.210  0.00  0.00    +0.079 A 
ATOM      8  N   UNL     1       0.026  -0.097   2.397  0.00  0.00    -0.214 NA
ATOM      9  C   UNL     1       0.046  -0.801   3.512  0.00  0.00    +0.222 A 
ATOM     10  N   UNL     1       0.064  -2.132   3.520  0.00  0.00    -0.219 NA
ATOM     11  C   UNL     1       0.053  -2.829   2.404  0.00  0.00    +0.051 A 
ATOM     12  C   UNL     1       0.073  -4.336   2.434  0.00  0.00    +0.066 C 
ATOM     13  N   UNL     1       0.048  -0.128   4.724  0.00  0.00    -0.256 N 
ATOM     14  C   UNL     1       0.069  -0.836   5.906  0.00  0.00    +0.184 C 
ATOM     15  N   UNL     1       0.092  -2.131   5.872  0.00  0.00    -0.240 NA
ATOM     16  C   UNL     1       0.098  -2.957   7.075  0.00  0.00    +0.232 C 
ATOM     17  N   UNL     1       0.560  -2.185   8.235  0.00  0.00    -0.268 NA
ATOM     18  C   UNL     1      -0.189  -0.919   8.336  0.00  0.00    +0.193 C 
ATOM     19  N   UNL     1       0.071  -0.156   7.104  0.00  0.00    -0.304 N 
ATOM     20  H   UNL     1       0.035   0.842   4.740  0.00  0.00    +0.158 HD
ATOM     21  H   UNL     1       0.236   0.799   7.133  0.00  0.00    +0.150 HD
ENDROOT
BRANCH  17  22
ATOM     22  C   UNL     1       0.439  -2.969   9.471  0.00  0.00    +0.092 C 
BRANCH  22  23
ATOM     23  C   UNL     1       1.401  -4.157   9.418  0.00  0.00    +0.050 C 
BRANCH  23  24
ATOM     24  C   UNL     1       1.277  -4.961  10.687  0.00  0.00    -0.046 A 
ATOM     25  C   UNL     1       2.069  -4.658  11.778  0.00  0.00    +0.003 A 
ATOM     26  C   UNL     1       1.955  -5.395  12.941  0.00  0.00    +0.000 A 
ATOM     27  C   UNL     1       1.048  -6.436  13.014  0.00  0.00    +0.000 A 
ATOM     28  C   UNL     1       0.255  -6.739  11.923  0.00  0.00    +0.000 A 
ATOM     29  C   UNL     1       0.366  -5.998  10.761  0.00  0.00    +0.003 A 
ENDBRANCH  23  24
ENDBRANCH  22  23
ENDBRANCH  17  22
TORSDOF 3
