REMARK  Name = ZINC07949745
REMARK  4 active torsions:
REMARK  status: ('A' for Active; 'I' for Inactive)
REMARK    1  A    between atoms: C_6  and  O_25
REMARK    2  A    between atoms: C_7  and  C_11
REMARK    3  A    between atoms: N_13  and  N_14
REMARK    4  A    between atoms: C_15  and  C_16
REMARK                            x       y       z     vdW  Elec       q    Type
REMARK                         _______ _______ _______ _____ _____    ______ ____
ROOT
ATOM      1  C   UNL     1       2.578  -4.197  -0.044  0.00  0.00    +0.267 C 
ATOM      2  O   UNL     1       3.656  -4.760  -0.058  0.00  0.00    -0.268 OA
ATOM      3  N   UNL     1       1.440  -4.919  -0.037  0.00  0.00    -0.203 N 
ATOM      4  H   UNL     1       0.581  -4.470  -0.026  0.00  0.00    +0.178 HD
ENDROOT
BRANCH   1  11
ATOM      5  C   UNL     1      -0.016   1.356   0.009  0.00  0.00    +0.001 A 
ATOM      6  C   UNL     1       1.169   2.090   0.002  0.00  0.00    +0.001 A 
ATOM      7  C   UNL     1       2.379   1.467  -0.013  0.00  0.00    +0.008 A 
ATOM      8  C   UNL     1       2.440   0.063  -0.021  0.00  0.00    -0.014 A 
ATOM      9  C   UNL     1       3.675  -0.608  -0.037  0.00  0.00    +0.054 A 
ATOM     10  C   UNL     1       3.711  -1.970  -0.044  0.00  0.00    +0.130 A 
ATOM     11  C   UNL     1       2.516  -2.723  -0.036  0.00  0.00    +0.080 A 
ATOM     12  C   UNL     1       1.286  -2.085  -0.021  0.00  0.00    +0.025 A 
ATOM     13  C   UNL     1       1.234  -0.684  -0.013  0.00  0.00    -0.017 A 
ATOM     14  C   UNL     1       0.002  -0.004   0.002  0.00  0.00    +0.008 A 
BRANCH  10  15
ATOM     15  O   UNL     1       4.907  -2.611  -0.059  0.00  0.00    -0.506 OA
ATOM     16  H   UNL     1       5.263  -2.801   0.820  0.00  0.00    +0.292 HD
ENDBRANCH  10  15
ENDBRANCH   1  11
BRANCH   3  17
ATOM     17  N   UNL     1       1.499  -6.319  -0.045  0.00  0.00    -0.186 NA
ATOM     18  C   UNL     1       0.400  -7.017  -0.038  0.00  0.00    +0.159 C 
BRANCH  18  19
ATOM     19  C   UNL     1       0.461  -8.479  -0.046  0.00  0.00    +0.105 A 
ATOM     20  C   UNL     1       1.601  -9.250  -0.055  0.00  0.00    +0.157 A 
ATOM     21  N   UNL     1       1.232 -10.532  -0.059  0.00  0.00    -0.209 NA
ATOM     22  C   UNL     1      -0.072 -10.609  -0.053  0.00  0.00    +0.179 A 
ATOM     23  N   UNL     1      -0.631  -9.360  -0.040  0.00  0.00    -0.291 N 
ATOM     24  C   UNL     1      -2.006  -9.290  -0.027  0.00  0.00    +0.101 A 
ATOM     25  C   UNL     1      -2.746 -10.399  -0.025  0.00  0.00    +0.067 A 
ATOM     26  S   UNL     1      -1.496 -11.675  -0.053  0.00  0.00    -0.058 S 
ATOM     27 CL   UNL     1       3.233  -8.658  -0.059  0.00  0.00    -0.060 Cl
ENDBRANCH  18  19
ENDBRANCH   3  17
TORSDOF 4
