REMARK  Name = ZINC41394112
REMARK  5 active torsions:
REMARK  status: ('A' for Active; 'I' for Inactive)
REMARK    1  A    between atoms: C_1  and  C_2
REMARK    2  A    between atoms: C_2  and  N_3
REMARK    3  A    between atoms: N_13  and  C_14
REMARK    4  A    between atoms: C_15  and  C_20
REMARK    5  A    between atoms: C_18  and  C_19
REMARK                            x       y       z     vdW  Elec       q    Type
REMARK                         _______ _______ _______ _____ _____    ______ ____
ROOT
ATOM      1  N   UNL     1       0.503   0.528   1.343  0.00  0.00    -0.280 N 
ATOM      2  C   UNL     1       1.682   1.172   1.422  0.00  0.00    +0.264 A 
ATOM      3  O   UNL     1       2.252   1.544   0.411  0.00  0.00    -0.267 OA
ATOM      4  C   UNL     1       2.258   1.413   2.710  0.00  0.00    +0.076 A 
ATOM      5  C   UNL     1       3.518   2.087   3.029  0.00  0.00    -0.023 A 
ATOM      6  C   UNL     1       3.843   2.190   4.333  0.00  0.00    -0.004 A 
ATOM      7  S   UNL     1       2.511   1.410   5.204  0.00  0.00    -0.073 S 
ATOM      8  C   UNL     1       1.518   0.943   3.808  0.00  0.00    +0.117 A 
ATOM      9  N   UNL     1       0.358   0.314   3.662  0.00  0.00    -0.208 NA
ATOM     10  C   UNL     1      -0.151   0.109   2.464  0.00  0.00    +0.204 A 
ATOM     11  N   UNL     1      -1.355  -0.540   2.343  0.00  0.00    -0.281 N 
ATOM     12  C   UNL     1       5.068   2.828   4.915  0.00  0.00    +0.043 C 
ATOM     13  C   UNL     1       6.093   3.025   3.790  0.00  0.00    +0.005 C 
ATOM     14  C   UNL     1       5.388   3.663   2.590  0.00  0.00    +0.005 C 
ATOM     15  C   UNL     1       4.437   2.651   1.949  0.00  0.00    +0.037 C 
ATOM     16  H   UNL     1      -1.694  -0.774   1.465  0.00  0.00    +0.155 HD
ENDROOT
BRANCH  11  17
ATOM     17  C   UNL     1      -2.098  -0.866   3.493  0.00  0.00    +0.099 A 
ATOM     18  C   UNL     1      -1.626  -1.594   4.606  0.00  0.00    +0.102 A 
ATOM     19  N   UNL     1      -2.600  -1.692   5.466  0.00  0.00    -0.081 NA
ATOM     20  O   UNL     1      -3.729  -1.029   4.929  0.00  0.00    -0.358 OA
ATOM     21  C   UNL     1      -3.386  -0.533   3.728  0.00  0.00    +0.156 A 
ATOM     22  C   UNL     1      -4.280   0.254   2.804  0.00  0.00    +0.091 C 
ATOM     23  C   UNL     1      -0.239  -2.158   4.771  0.00  0.00    +0.071 C 
ENDBRANCH  11  17
BRANCH   1  25
ATOM     24  C   UNL     1      -0.988   1.455  -0.359  0.00  0.00    +0.027 C 
ATOM     25  C   UNL     1      -0.092   0.277   0.028  0.00  0.00    +0.125 C 
ENDBRANCH   1  25
TORSDOF 2
