REMARK  Name = ZINC42029049
REMARK  4 active torsions:
REMARK  status: ('A' for Active; 'I' for Inactive)
REMARK    1  A    between atoms: C_1  and  C_2
REMARK    2  A    between atoms: C_7  and  N_8
REMARK    3  A    between atoms: C_9  and  C_13
REMARK    4  A    between atoms: C_17  and  N_19
REMARK                            x       y       z     vdW  Elec       q    Type
REMARK                         _______ _______ _______ _____ _____    ______ ____
ROOT
ATOM      1  N   UNL     1       0.554   0.176   2.353  0.00  0.00    -0.192 N 
ATOM      2  C   UNL     1       0.377  -0.338   3.604  0.00  0.00    +0.187 A 
ATOM      3  N   UNL     1      -0.001   0.658   4.378  0.00  0.00    -0.108 NA
ATOM      4  N   UNL     1      -0.073   1.749   3.704  0.00  0.00    -0.022 NA
ATOM      5  N   UNL     1       0.252   1.544   2.474  0.00  0.00    -0.039 NA
ENDROOT
BRANCH   1  12
ATOM      6  C   UNL     1      -1.037   0.446   0.008  0.00  0.00    +0.046 C 
ATOM      7  C   UNL     1       0.207  -0.405   0.033  0.00  0.00    -0.025 A 
ATOM      8  C   UNL     1       0.607  -1.077  -1.106  0.00  0.00    +0.006 A 
ATOM      9  C   UNL     1       1.748  -1.858  -1.085  0.00  0.00    +0.015 A 
ATOM     10  C   UNL     1       2.493  -1.968   0.077  0.00  0.00    +0.020 A 
ATOM     11  C   UNL     1       2.097  -1.298   1.219  0.00  0.00    +0.043 A 
ATOM     12  C   UNL     1       0.955  -0.509   1.198  0.00  0.00    +0.073 A 
ATOM     13 BR   UNL     1       4.052  -3.038   0.101  0.00  0.00    -0.050 Br
ENDBRANCH   1  12
BRANCH   2  14
ATOM     14  C   UNL     1       0.574  -1.746   4.013  0.00  0.00    +0.023 A 
ATOM     15  C   UNL     1       0.354  -2.777   3.099  0.00  0.00    +0.014 A 
ATOM     16  C   UNL     1       0.538  -4.090   3.482  0.00  0.00    +0.041 A 
ATOM     17  C   UNL     1       0.939  -4.389   4.773  0.00  0.00    +0.144 A 
ATOM     18  C   UNL     1       1.160  -3.367   5.691  0.00  0.00    +0.061 A 
ATOM     19  C   UNL     1       0.984  -2.046   5.312  0.00  0.00    +0.037 A 
ATOM     20  F   UNL     1       1.117  -5.677   5.142  0.00  0.00    -0.204 F 
BRANCH  18  21
ATOM     21  N   UNL     1       1.565  -3.673   6.994  0.00  0.00    -0.356 N 
ATOM     22  H   UNL     1       1.692  -4.598   7.258  0.00  0.00    +0.142 HD
ATOM     23  H   UNL     1       1.719  -2.960   7.634  0.00  0.00    +0.142 HD
ENDBRANCH  18  21
ENDBRANCH   2  14
TORSDOF 3
