REMARK  Name = ZINC45380089
REMARK  7 active torsions:
REMARK  status: ('A' for Active; 'I' for Inactive)
REMARK    1  A    between atoms: C_1  and  C_2
REMARK    2  A    between atoms: N_14  and  C_15
REMARK    3  A    between atoms: C_15  and  C_17
REMARK    4  A    between atoms: C_15  and  C_18
REMARK    5  A    between atoms: C_18  and  C_19
REMARK    6  A    between atoms: C_19  and  C_20
REMARK    7  A    between atoms: C_23  and  O_26
REMARK                            x       y       z     vdW  Elec       q    Type
REMARK                         _______ _______ _______ _____ _____    ______ ____
ROOT
ATOM      1  C   UNL     1      -0.026   1.527   0.018  0.00  0.00    +0.033 C 
ATOM      2  C   UNL     1      -0.004  -0.003   0.007  0.00  0.00    +0.105 C 
ATOM      3  C   UNL     1      -1.425  -0.542   0.168  0.00  0.00    -0.017 A 
ATOM      4  C   UNL     1      -2.509  -0.069  -0.571  0.00  0.00    +0.013 A 
ATOM      5  C   UNL     1      -3.739  -0.597  -0.379  0.00  0.00    +0.046 A 
ATOM      6  S   UNL     1      -3.423  -1.818   0.886  0.00  0.00    -0.101 S 
ATOM      7  C   UNL     1      -1.682  -1.532   1.065  0.00  0.00    -0.004 A 
ATOM      8  C   UNL     1      -0.719  -2.210   1.985  0.00  0.00    +0.062 C 
ATOM      9  C   UNL     1       0.710  -1.918   1.504  0.00  0.00    +0.115 C 
ATOM     10  N   UNL     1       0.795  -0.497   1.137  0.00  0.00    -0.278 N 
ATOM     11  C   UNL     1       1.593   0.341   1.828  0.00  0.00    +0.303 C 
ATOM     12  O   UNL     1       1.591   1.530   1.574  0.00  0.00    -0.253 OA
ATOM     13  N   UNL     1       2.393  -0.139   2.800  0.00  0.00    -0.297 N 
ATOM     14  H   UNL     1       2.451  -1.095   2.953  0.00  0.00    +0.151 HD
ENDROOT
BRANCH  13  15
ATOM     15  C   UNL     1       3.177   0.783   3.626  0.00  0.00    +0.072 C 
ATOM     16  C   UNL     1       2.315   1.286   4.786  0.00  0.00    +0.028 C 
BRANCH  15  17
ATOM     17  C   UNL     1       4.404   0.056   4.179  0.00  0.00    +0.026 C 
BRANCH  17  18
ATOM     18  C   UNL     1       5.327  -0.338   3.025  0.00  0.00    +0.037 C 
BRANCH  18  19
ATOM     19  C   UNL     1       6.536  -1.054   3.570  0.00  0.00    -0.047 A 
ATOM     20  C   UNL     1       7.661  -0.335   3.928  0.00  0.00    +0.007 A 
ATOM     21  C   UNL     1       8.770  -0.990   4.428  0.00  0.00    +0.045 A 
ATOM     22  C   UNL     1       8.754  -2.370   4.571  0.00  0.00    +0.117 A 
ATOM     23  C   UNL     1       7.623  -3.089   4.211  0.00  0.00    +0.045 A 
ATOM     24  C   UNL     1       6.515  -2.429   3.717  0.00  0.00    +0.007 A 
BRANCH  22  25
ATOM     25  O   UNL     1       9.844  -3.016   5.061  0.00  0.00    -0.507 OA
ATOM     26  H   UNL     1       9.843  -3.114   6.023  0.00  0.00    +0.292 HD
ENDBRANCH  22  25
ENDBRANCH  18  19
ENDBRANCH  17  18
ENDBRANCH  15  17
ENDBRANCH  13  15
TORSDOF 5
