REMARK  Name = ZINC06409821
REMARK  9 active torsions:
REMARK  status: ('A' for Active; 'I' for Inactive)
REMARK    1  A    between atoms: C_1  and  C_2
REMARK    2  A    between atoms: C_7  and  C_14
REMARK    3  A    between atoms: C_14  and  C_16
REMARK    4  A    between atoms: C_14  and  N_67
REMARK    5  A    between atoms: N_20  and  C_21
REMARK    6  A    between atoms: C_26  and  C_27
REMARK    7  A    between atoms: C_26  and  N_67
REMARK    8  A    between atoms: C_33  and  C_34
REMARK    9  A    between atoms: C_33  and  N_67
REMARK                            x       y       z     vdW  Elec       q    Type
REMARK                         _______ _______ _______ _____ _____    ______ ____
ROOT
ATOM      1  C   UNL     1       6.317  -1.155  -1.702  0.00  0.00    +0.040 C 
ENDROOT
BRANCH   1   8
ATOM      2  C   UNL     1      10.511  -2.558  -8.340  0.00  0.00    +0.044 C 
ATOM      3  C   UNL     1       9.737  -2.523  -7.048  0.00  0.00    -0.048 A 
ATOM      4  C   UNL     1       9.525  -3.699  -6.341  0.00  0.00    +0.004 A 
ATOM      5  C   UNL     1       8.825  -3.689  -5.168  0.00  0.00    +0.010 A 
ATOM      6  C   UNL     1       8.319  -2.483  -4.673  0.00  0.00    -0.001 A 
ATOM      7  C   UNL     1       7.564  -2.436  -3.419  0.00  0.00    +0.017 A 
ATOM      8  C   UNL     1       7.097  -1.238  -2.989  0.00  0.00    +0.011 A 
ATOM      9  C   UNL     1       7.333  -0.070  -3.745  0.00  0.00    +0.251 A 
ATOM     10  O   UNL     1       6.899   0.996  -3.342  0.00  0.00    -0.268 OA
ATOM     11  N   UNL     1       8.029  -0.102  -4.895  0.00  0.00    -0.322 N 
ATOM     12  H   UNL     1       8.176   0.720  -5.388  0.00  0.00    +0.169 HD
ATOM     13  C   UNL     1       8.531  -1.288  -5.386  0.00  0.00    +0.049 A 
ATOM     14  C   UNL     1       9.246  -1.323  -6.579  0.00  0.00    +0.029 A 
ENDBRANCH   1   8
BRANCH   1  15
ATOM     15  C   UNL     1       7.091  -0.341  -0.697  0.00  0.00    +0.143 A 
ATOM     16  N   UNL     1       7.000   0.952  -0.500  0.00  0.00    -0.115 NA
ATOM     17  N   UNL     1       7.818   1.269   0.442  0.00  0.00    -0.023 NA
ATOM     18  N   UNL     1       8.435   0.214   0.847  0.00  0.00    -0.044 NA
ATOM     19  N   UNL     1       8.014  -0.799   0.168  0.00  0.00    -0.227 N 
BRANCH  19  20
ATOM     20  C   UNL     1       8.458  -2.188   0.313  0.00  0.00    +0.111 C 
ATOM     21  C   UNL     1       8.359  -2.623   1.789  0.00  0.00    +0.027 C 
ATOM     22  C   UNL     1       9.598  -3.530   2.001  0.00  0.00    +0.002 C 
ATOM     23  C   UNL     1      10.690  -2.818   1.164  0.00  0.00    +0.002 C 
ATOM     24  C   UNL     1       9.939  -2.312  -0.085  0.00  0.00    +0.027 C 
ENDBRANCH  19  20
ENDBRANCH   1  15
BRANCH   1  25
ATOM     25  N   UNL     1       5.025  -0.488  -1.966  0.00  0.00    +0.395 N 
ATOM     26  H   UNL     1       5.204   0.462  -2.312  0.00  0.00    -0.079 HD
BRANCH  25  27
ATOM     27  C   UNL     1       4.236  -0.402  -0.719  0.00  0.00    -0.041 C 
BRANCH  27  28
ATOM     28  C   UNL     1       4.017  -1.775  -0.137  0.00  0.00    -0.064 A 
ATOM     29  C   UNL     1       4.925  -2.297   0.765  0.00  0.00    +0.002 A 
ATOM     30  C   UNL     1       4.724  -3.556   1.299  0.00  0.00    +0.000 A 
ATOM     31  C   UNL     1       3.615  -4.294   0.929  0.00  0.00    +0.000 A 
ATOM     32  C   UNL     1       2.706  -3.772   0.027  0.00  0.00    +0.000 A 
ATOM     33  C   UNL     1       2.908  -2.513  -0.506  0.00  0.00    +0.002 A 
ENDBRANCH  27  28
ENDBRANCH  25  27
BRANCH  25  34
ATOM     34  C   UNL     1       4.269  -1.238  -2.991  0.00  0.00    -0.034 C 
BRANCH  34  35
ATOM     35  C   UNL     1       3.193  -0.342  -3.550  0.00  0.00    -0.027 A 
ATOM     36  C   UNL     1       3.242   0.481  -4.626  0.00  0.00    +0.009 A 
ATOM     37  C   UNL     1       2.120   1.217  -4.957  0.00  0.00    +0.008 A 
ATOM     38  C   UNL     1       1.004   1.094  -4.197  0.00  0.00    +0.045 A 
ATOM     39  S   UNL     1       1.522  -0.097  -2.972  0.00  0.00    -0.103 S 
ENDBRANCH  34  35
ENDBRANCH  25  34
ENDBRANCH   1  25
TORSDOF 8
