REMARK  Name = ZINC17080178
REMARK  5 active torsions:
REMARK  status: ('A' for Active; 'I' for Inactive)
REMARK    1  A    between atoms: C_1  and  C_2
REMARK    2  A    between atoms: C_2  and  S_3
REMARK    3  A    between atoms: S_3  and  C_4
REMARK    4  A    between atoms: C_9  and  C_19
REMARK    5  A    between atoms: C_28  and  O_29
REMARK                            x       y       z     vdW  Elec       q    Type
REMARK                         _______ _______ _______ _____ _____    ______ ____
ROOT
ATOM      1  C   UNL     1      -1.729  -2.328   0.085  0.00  0.00    +0.210 A 
ATOM      2  N   UNL     1      -0.520  -2.907   0.045  0.00  0.00    -0.187 NA
ATOM      3  C   UNL     1      -0.659  -4.204   0.009  0.00  0.00    +0.219 A 
ATOM      4  N   UNL     1      -1.985  -4.487   0.020  0.00  0.00    -0.220 N 
ATOM      5  N   UNL     1      -2.653  -3.265   0.078  0.00  0.00    -0.141 NA
ATOM      6  C   UNL     1      -2.516  -5.844  -0.021  0.00  0.00    +0.179 C 
ATOM      7  C   UNL     1      -1.414  -6.840   0.267  0.00  0.00    +0.041 C 
ATOM      8  C   UNL     1      -0.109  -6.494   0.240  0.00  0.00    +0.020 C 
ATOM      9  N   UNL     1       0.294  -5.208  -0.033  0.00  0.00    -0.287 N 
ATOM     10  C   UNL     1       0.970  -7.516   0.507  0.00  0.00    +0.052 C 
ATOM     11  C   UNL     1       0.451  -8.565   1.492  0.00  0.00    +0.014 C 
ATOM     12  C   UNL     1      -0.793  -9.223   0.886  0.00  0.00    +0.080 C 
ATOM     13  C   UNL     1      -1.805  -8.156   0.570  0.00  0.00    +0.163 C 
ATOM     14  O   UNL     1      -2.987  -8.438   0.576  0.00  0.00    -0.292 OA
ATOM     15  H   UNL     1       1.219  -5.010  -0.248  0.00  0.00    +0.155 HD
ENDROOT
BRANCH   6  16
ATOM     16  C   UNL     1      -3.088  -6.115  -1.389  0.00  0.00    +0.031 A 
ATOM     17  C   UNL     1      -4.441  -6.461  -1.532  0.00  0.00    -0.009 A 
ATOM     18  C   UNL     1      -5.290  -6.562  -0.416  0.00  0.00    +0.009 A 
ATOM     19  C   UNL     1      -6.597  -6.899  -0.592  0.00  0.00    +0.001 A 
ATOM     20  C   UNL     1      -7.109  -7.147  -1.865  0.00  0.00    +0.001 A 
ATOM     21  C   UNL     1      -6.317  -7.059  -2.968  0.00  0.00    +0.008 A 
ATOM     22  C   UNL     1      -4.962  -6.713  -2.826  0.00  0.00    -0.017 A 
ATOM     23  C   UNL     1      -4.115  -6.612  -3.944  0.00  0.00    +0.012 A 
ATOM     24  C   UNL     1      -2.809  -6.275  -3.772  0.00  0.00    +0.046 A 
ATOM     25  C   UNL     1      -2.294  -6.021  -2.496  0.00  0.00    +0.123 A 
BRANCH  25  26
ATOM     26  O   UNL     1      -0.986  -5.681  -2.357  0.00  0.00    -0.506 OA
ATOM     27  H   UNL     1      -0.394  -6.436  -2.236  0.00  0.00    +0.292 HD
ENDBRANCH  25  26
ENDBRANCH   6  16
BRANCH   1  28
ATOM     28  S   UNL     1      -2.032  -0.593   0.146  0.00  0.00    -0.085 S 
BRANCH  28  30
ATOM     29  C   UNL     1      -0.491   1.667   0.180  0.00  0.00    +0.016 C 
ATOM     30  C   UNL     1      -0.373   0.142   0.130  0.00  0.00    +0.074 C 
ENDBRANCH  28  30
ENDBRANCH   1  28
TORSDOF 4
