REMARK  Name = ZINC07307203
REMARK  3 active torsions:
REMARK  status: ('A' for Active; 'I' for Inactive)
REMARK    1  A    between atoms: N_7  and  S_15
REMARK    2  A    between atoms: C_9  and  C_12
REMARK    3  A    between atoms: S_15  and  C_18
REMARK                            x       y       z     vdW  Elec       q    Type
REMARK                         _______ _______ _______ _____ _____    ______ ____
ROOT
ATOM      1  C   UNL     1       4.420   4.414  -2.454  0.00  0.00    +0.002 A 
ATOM      2  C   UNL     1       5.042   4.180  -3.666  0.00  0.00    +0.004 A 
ATOM      3  C   UNL     1       5.070   2.905  -4.201  0.00  0.00    +0.047 A 
ATOM      4  C   UNL     1       4.474   1.854  -3.521  0.00  0.00    +0.144 A 
ATOM      5  C   UNL     1       3.851   2.091  -2.299  0.00  0.00    +0.093 A 
ATOM      6  C   UNL     1       3.825   3.371  -1.768  0.00  0.00    +0.028 A 
ATOM      7  N   UNL     1       3.251   1.029  -1.605  0.00  0.00    -0.195 N 
ATOM      8  C   UNL     1       3.037  -0.232  -2.335  0.00  0.00    +0.186 C 
ATOM      9  C   UNL     1       4.286  -0.502  -3.179  0.00  0.00    +0.277 C 
ATOM     10  O   UNL     1       4.500   0.605  -4.058  0.00  0.00    -0.476 OA
ENDROOT
BRANCH   9  11
ATOM     11  C   UNL     1       4.089  -1.758  -3.988  0.00  0.00    +0.253 C 
ATOM     12  O   UNL     1       4.037  -1.699  -5.198  0.00  0.00    -0.272 OA
ATOM     13  N   UNL     1       3.971  -2.948  -3.366  0.00  0.00    -0.326 N 
ATOM     14  H   UNL     1       4.012  -2.996  -2.398  0.00  0.00    +0.145 HD
ATOM     15  H   UNL     1       3.844  -3.757  -3.887  0.00  0.00    +0.145 HD
ENDBRANCH   9  11
BRANCH   7  16
ATOM     16  S   UNL     1       2.805   1.186  -0.018  0.00  0.00    +0.081 S 
ATOM     17  O   UNL     1       3.612   2.219   0.531  0.00  0.00    -0.149 OA
ATOM     18  O   UNL     1       2.773  -0.126   0.527  0.00  0.00    -0.149 OA
BRANCH  16  19
ATOM     19  C   UNL     1       1.146   1.780   0.001  0.00  0.00    +0.146 A 
ATOM     20  C   UNL     1      -0.013   1.076   0.008  0.00  0.00    +0.036 A 
ATOM     21  C   UNL     1      -1.213   1.761   0.017  0.00  0.00    +0.010 A 
ATOM     22  C   UNL     1      -1.196   3.116   0.030  0.00  0.00    +0.047 A 
ATOM     23  S   UNL     1       0.555   3.464   0.015  0.00  0.00    -0.077 S 
ENDBRANCH  16  19
ENDBRANCH   7  16
TORSDOF 3
