REMARK  Name = ZINC21049083
REMARK  8 active torsions:
REMARK  status: ('A' for Active; 'I' for Inactive)
REMARK    1  A    between atoms: C_1  and  C_2
REMARK    2  A    between atoms: C_2  and  C_3
REMARK    3  A    between atoms: C_4  and  C_32
REMARK    4  A    between atoms: C_11  and  C_13
REMARK    5  A    between atoms: N_22  and  C_23
REMARK    6  A    between atoms: C_27  and  C_28
REMARK    7  A    between atoms: C_28  and  O_30
REMARK    8  A    between atoms: O_30  and  C_31
REMARK                            x       y       z     vdW  Elec       q    Type
REMARK                         _______ _______ _______ _____ _____    ______ ____
ROOT
ATOM      1  C   UNL     1      -1.288   3.220   1.714  0.00  0.00    -0.034 A 
ATOM      2  C   UNL     1      -1.027   2.018   1.151  0.00  0.00    -0.010 A 
ATOM      3  S   UNL     1      -1.600   0.890   2.412  0.00  0.00    -0.096 S 
ATOM      4  C   UNL     1      -2.148   2.101   3.583  0.00  0.00    +0.018 A 
ATOM      5  C   UNL     1      -1.875   3.289   2.978  0.00  0.00    -0.030 A 
ATOM      6  C   UNL     1      -2.198   4.607   3.674  0.00  0.00    +0.055 C 
ATOM      7  C   UNL     1      -3.240   4.360   4.765  0.00  0.00    +0.115 C 
ATOM      8  N   UNL     1      -2.835   3.210   5.587  0.00  0.00    -0.273 N 
ATOM      9  C   UNL     1      -2.771   1.890   4.926  0.00  0.00    +0.145 C 
ATOM     10  C   UNL     1      -2.532   3.354   6.893  0.00  0.00    +0.307 C 
ATOM     11  O   UNL     1      -2.503   4.463   7.391  0.00  0.00    -0.252 OA
ATOM     12  N   UNL     1      -2.262   2.269   7.646  0.00  0.00    -0.268 N 
ATOM     13  C   UNL     1      -0.407   1.711  -0.188  0.00  0.00    +0.052 C 
ATOM     14  H   UNL     1      -2.196   1.277   7.177  0.00  0.00    +0.156 HD
ENDROOT
BRANCH   9  15
ATOM     15  C   UNL     1      -4.161   1.329   4.765  0.00  0.00    -0.022 A 
ATOM     16  C   UNL     1      -4.504   0.144   5.389  0.00  0.00    +0.008 A 
ATOM     17  C   UNL     1      -5.779  -0.368   5.247  0.00  0.00    +0.038 A 
ATOM     18  C   UNL     1      -6.710   0.300   4.469  0.00  0.00    +0.123 A 
ATOM     19  C   UNL     1      -6.364   1.484   3.840  0.00  0.00    +0.038 A 
ATOM     20  C   UNL     1      -5.090   1.997   3.989  0.00  0.00    +0.008 A 
ATOM     21  F   UNL     1      -7.956  -0.203   4.324  0.00  0.00    -0.205 F 
ENDBRANCH   9  15
BRANCH  12  22
ATOM     22  C   UNL     1      -2.066   2.406   9.020  0.00  0.00    +0.056 A 
ATOM     23  C   UNL     1      -2.326   3.592   9.674  0.00  0.00    +0.032 A 
ATOM     24  C   UNL     1      -2.118   3.671  11.012  0.00  0.00    +0.048 A 
ATOM     25  S   UNL     1      -1.549   2.087  11.425  0.00  0.00    -0.088 S 
ATOM     26  C   UNL     1      -1.604   1.347   9.802  0.00  0.00    +0.117 A 
BRANCH  26  27
ATOM     27  C   UNL     1      -1.265   0.031   9.410  0.00  0.00    +0.347 C 
ATOM     28  O   UNL     1      -1.365  -0.301   8.243  0.00  0.00    -0.244 OA
BRANCH  27  29
ATOM     29  O   UNL     1      -0.832  -0.857  10.330  0.00  0.00    -0.464 OA
ATOM     30  C   UNL     1      -0.508  -2.168   9.864  0.00  0.00    +0.280 C 
ENDBRANCH  27  29
ENDBRANCH  26  27
ENDBRANCH  12  22
BRANCH   1  32
ATOM     31  C   UNL     1      -2.145   4.914   0.119  0.00  0.00    +0.009 C 
ATOM     32  C   UNL     1      -0.949   4.487   0.972  0.00  0.00    +0.033 C 
ENDBRANCH   1  32
TORSDOF 5
