REMARK  Name = ZINC35871015
REMARK  9 active torsions:
REMARK  status: ('A' for Active; 'I' for Inactive)
REMARK    1  A    between atoms: C_1  and  O_2
REMARK    2  A    between atoms: O_2  and  C_3
REMARK    3  A    between atoms: C_6  and  C_9
REMARK    4  A    between atoms: C_9  and  C_10
REMARK    5  A    between atoms: C_10  and  N_11
REMARK    6  A    between atoms: C_12  and  C_14
REMARK    7  A    between atoms: C_19  and  N_38
REMARK    8  A    between atoms: N_27  and  C_30
REMARK    9  A    between atoms: C_30  and  C_31
REMARK                            x       y       z     vdW  Elec       q    Type
REMARK                         _______ _______ _______ _____ _____    ______ ____
ROOT
ATOM      1  C   UNL     1       6.620  -4.335  -6.328  0.00  0.00    +0.098 C 
ATOM      2  C   UNL     1       6.425  -3.465  -7.551  0.00  0.00    +0.051 C 
ATOM      3  C   UNL     1       7.341  -2.277  -7.552  0.00  0.00    -0.023 A 
ATOM      4  C   UNL     1       6.949  -1.107  -8.177  0.00  0.00    +0.038 A 
ATOM      5  C   UNL     1       7.788  -0.008  -8.185  0.00  0.00    +0.127 A 
ATOM      6  C   UNL     1       9.024  -0.074  -7.567  0.00  0.00    +0.034 A 
ATOM      7  C   UNL     1       9.421  -1.238  -6.940  0.00  0.00    +0.025 A 
ATOM      8  C   UNL     1       8.578  -2.345  -6.929  0.00  0.00    +0.033 A 
ATOM      9  N   UNL     1       8.975  -3.511  -6.288  0.00  0.00    -0.329 N 
ATOM     10  C   UNL     1       8.059  -4.594  -5.971  0.00  0.00    +0.069 C 
ATOM     11  C   UNL     1       8.587  -5.886  -6.595  0.00  0.00    -0.055 C 
ATOM     12  N   UNL     1       9.964  -6.111  -6.132  0.00  0.00    +0.385 N 
ATOM     13  C   UNL     1      10.842  -5.024  -6.580  0.00  0.00    -0.059 C 
ATOM     14  C   UNL     1      10.397  -3.709  -5.938  0.00  0.00    +0.087 C 
ATOM     15  H   UNL     1       9.973  -6.153  -5.124  0.00  0.00    -0.081 HD
ENDROOT
BRANCH   1  17
ATOM     16  N   UNL     1       4.636  -3.373  -5.207  0.00  0.00    -0.315 N 
ATOM     17  C   UNL     1       5.951  -3.666  -5.155  0.00  0.00    +0.218 C 
ATOM     18  O   UNL     1       6.595  -3.392  -4.164  0.00  0.00    -0.275 OA
ATOM     19  H   UNL     1       4.121  -3.592  -5.999  0.00  0.00    +0.149 HD
BRANCH  16  20
ATOM     20  C   UNL     1       3.986  -2.723  -4.066  0.00  0.00    +0.109 C 
BRANCH  20  21
ATOM     21  C   UNL     1       2.505  -2.503  -4.381  0.00  0.00    +0.054 C 
BRANCH  21  25
ATOM     22  C   UNL     1       0.606  -0.607  -1.056  0.00  0.00    +0.120 A 
ATOM     23  C   UNL     1       1.173   0.161  -2.062  0.00  0.00    +0.046 A 
ATOM     24  C   UNL     1       1.786  -0.455  -3.136  0.00  0.00    +0.007 A 
ATOM     25  C   UNL     1       1.835  -1.835  -3.209  0.00  0.00    -0.046 A 
ATOM     26  C   UNL     1       1.270  -2.602  -2.207  0.00  0.00    +0.007 A 
ATOM     27  C   UNL     1       0.661  -1.992  -1.128  0.00  0.00    +0.046 A 
BRANCH  22  29
ATOM     28  C   UNL     1      -0.017   1.425   0.010  0.00  0.00    +0.277 C 
ATOM     29  O   UNL     1       0.002  -0.004   0.002  0.00  0.00    -0.495 OA
ENDBRANCH  22  29
ENDBRANCH  21  25
ENDBRANCH  20  21
ENDBRANCH  16  20
ENDBRANCH   1  17
BRANCH   5  30
ATOM     30  N   UNL     1       7.364   1.241  -8.855  0.00  0.00    +0.056 N 
ATOM     31  O   UNL     1       6.284   1.300  -9.396  0.00  0.00    -0.126 OA
ATOM     32  O   UNL     1       8.097   2.202  -8.863  0.00  0.00    -0.126 OA
ENDBRANCH   5  30
BRANCH  12  33
ATOM     33  C   UNL     1      10.455  -7.386  -6.674  0.00  0.00    -0.043 C 
BRANCH  33  34
ATOM     34  C   UNL     1      11.819  -7.681  -6.104  0.00  0.00    -0.064 A 
ATOM     35  C   UNL     1      12.952  -7.227  -6.753  0.00  0.00    +0.004 A 
ATOM     36  C   UNL     1      14.203  -7.497  -6.232  0.00  0.00    +0.038 A 
ATOM     37  C   UNL     1      14.321  -8.223  -5.059  0.00  0.00    +0.123 A 
ATOM     38  C   UNL     1      13.186  -8.677  -4.409  0.00  0.00    +0.038 A 
ATOM     39  C   UNL     1      11.936  -8.401  -4.930  0.00  0.00    +0.004 A 
ATOM     40  F   UNL     1      15.543  -8.488  -4.548  0.00  0.00    -0.205 F 
ENDBRANCH  33  34
ENDBRANCH  12  33
TORSDOF 8
