REMARK  Name = ZINC18526953
REMARK  10 active torsions:
REMARK  status: ('A' for Active; 'I' for Inactive)
REMARK    1  A    between atoms: C_1  and  C_2
REMARK    2  A    between atoms: C_2  and  C_3
REMARK    3  A    between atoms: C_2  and  C_4
REMARK    4  A    between atoms: C_4  and  C_6
REMARK    5  A    between atoms: C_4  and  N_17
REMARK    6  A    between atoms: C_18  and  C_20
REMARK    7  A    between atoms: C_20  and  S_21
REMARK    8  A    between atoms: S_21  and  C_22
REMARK    9  A    between atoms: C_25  and  C_28
REMARK   10  A    between atoms: N_26  and  N_27
REMARK                            x       y       z     vdW  Elec       q    Type
REMARK                         _______ _______ _______ _____ _____    ______ ____
ROOT
ATOM      1  N   UNL     1       3.356  11.976   0.035  0.00  0.00    -0.308 N 
ATOM      2  C   UNL     1       3.734  10.697   0.235  0.00  0.00    +0.224 C 
ATOM      3  O   UNL     1       4.882  10.444   0.535  0.00  0.00    -0.275 OA
ATOM      4  H   UNL     1       2.439  12.178  -0.205  0.00  0.00    +0.149 HD
ENDROOT
BRANCH   1   5
ATOM      5  C   UNL     1       4.332  13.059   0.180  0.00  0.00    +0.106 C 
BRANCH   5   6
ATOM      6  C   UNL     1       3.896  14.242  -0.646  0.00  0.00    -0.023 A 
ATOM      7  C   UNL     1       2.559  14.592  -0.696  0.00  0.00    +0.009 A 
ATOM      8  C   UNL     1       2.151  15.676  -1.452  0.00  0.00    +0.050 A 
ATOM      9  C   UNL     1       3.087  16.410  -2.160  0.00  0.00    +0.162 A 
ATOM     10  C   UNL     1       4.429  16.059  -2.109  0.00  0.00    +0.162 A 
ATOM     11  C   UNL     1       4.835  14.977  -1.347  0.00  0.00    +0.055 A 
ATOM     12  O   UNL     1       5.344  16.789  -2.810  0.00  0.00    -0.488 OA
ATOM     13  C   UNL     1       5.567  18.123  -2.347  0.00  0.00    +0.232 C 
ATOM     14  C   UNL     1       4.531  19.074  -2.924  0.00  0.00    +0.082 C 
ATOM     15  C   UNL     1       3.124  18.762  -2.440  0.00  0.00    +0.232 C 
ATOM     16  O   UNL     1       2.699  17.481  -2.911  0.00  0.00    -0.488 OA
ENDBRANCH   5   6
BRANCH   5  18
ATOM     17  C   UNL     1       4.865  12.269   2.490  0.00  0.00    +0.009 C 
ATOM     18  C   UNL     1       4.422  13.470   1.651  0.00  0.00    +0.008 C 
ATOM     19  C   UNL     1       5.441  14.601   1.803  0.00  0.00    +0.009 C 
ENDBRANCH   5  18
ENDBRANCH   1   5
BRANCH   2  20
ATOM     20  C   UNL     1       2.731   9.583   0.085  0.00  0.00    +0.173 C 
BRANCH  20  21
ATOM     21  S   UNL     1       3.538   7.997   0.415  0.00  0.00    -0.075 S 
BRANCH  21  22
ATOM     22  C   UNL     1       2.175   6.905   0.176  0.00  0.00    +0.209 A 
ATOM     23  N   UNL     1       0.950   7.248  -0.151  0.00  0.00    -0.121 NA
ATOM     24  N   UNL     1       0.209   6.203  -0.249  0.00  0.00    -0.126 NA
ATOM     25  C   UNL     1       0.914   5.126   0.019  0.00  0.00    +0.188 A 
ATOM     26  N   UNL     1       2.197   5.543   0.297  0.00  0.00    -0.223 N 
BRANCH  25  27
ATOM     27  C   UNL     1       0.426   3.737   0.017  0.00  0.00    +0.058 A 
ATOM     28  C   UNL     1      -0.866   3.275   0.026  0.00  0.00    +0.019 A 
ATOM     29  C   UNL     1      -1.081   1.915   0.017  0.00  0.00    +0.008 A 
ATOM     30  C   UNL     1      -0.013   1.076   0.008  0.00  0.00    +0.046 A 
ATOM     31  S   UNL     1       1.361   2.216   0.001  0.00  0.00    -0.093 S 
ENDBRANCH  25  27
BRANCH  26  32
ATOM     32  N   UNL     1       3.267   4.760   0.623  0.00  0.00    -0.295 N 
ATOM     33  H   UNL     1       3.773   4.476  -0.203  0.00  0.00    +0.163 HD
ATOM     34  H   UNL     1       3.876   5.232   1.275  0.00  0.00    +0.163 HD
ENDBRANCH  26  32
ENDBRANCH  21  22
ENDBRANCH  20  21
ENDBRANCH   2  20
TORSDOF 8
