REMARK  Name = ZINC06156949
REMARK  7 active torsions:
REMARK  status: ('A' for Active; 'I' for Inactive)
REMARK    1  A    between atoms: C_1  and  O_2
REMARK    2  A    between atoms: O_2  and  C_3
REMARK    3  A    between atoms: C_6  and  N_9
REMARK    4  A    between atoms: N_16  and  N_17
REMARK    5  A    between atoms: C_18  and  C_19
REMARK    6  A    between atoms: N_27  and  C_28
REMARK    7  A    between atoms: C_28  and  C_29
REMARK                            x       y       z     vdW  Elec       q    Type
REMARK                         _______ _______ _______ _____ _____    ______ ____
ROOT
ATOM      1  N   UNL     1       0.721   1.125  -0.335  0.00  0.00    -0.283 N 
ATOM      2  C   UNL     1       1.648   2.111  -0.610  0.00  0.00    +0.225 A 
ATOM      3  N   UNL     1       2.902   1.780  -0.905  0.00  0.00    -0.181 NA
ATOM      4  C   UNL     1       3.795   2.728  -1.171  0.00  0.00    +0.221 A 
ATOM      5  N   UNL     1       3.434   4.008  -1.141  0.00  0.00    -0.180 NA
ATOM      6  C   UNL     1       2.181   4.338  -0.845  0.00  0.00    +0.241 A 
ATOM      7  N   UNL     1       1.287   3.389  -0.584  0.00  0.00    -0.179 NA
ATOM      8  N   UNL     1       1.806   5.667  -0.814  0.00  0.00    -0.205 N 
ATOM      9  N   UNL     1       5.096   2.385  -1.478  0.00  0.00    -0.306 N 
ATOM     10  H   UNL     1      -0.145   1.363   0.033  0.00  0.00    +0.155 HD
ATOM     11  H   UNL     1       2.436   6.355  -1.081  0.00  0.00    +0.177 HD
ATOM     12  H   UNL     1       5.358   1.451  -1.500  0.00  0.00    +0.149 HD
ENDROOT
BRANCH   1  16
ATOM     13  C   UNL     1       1.648  -2.873  -1.067  0.00  0.00    +0.120 A 
ATOM     14  C   UNL     1       0.323  -2.466  -1.022  0.00  0.00    +0.047 A 
ATOM     15  C   UNL     1       0.015  -1.142  -0.780  0.00  0.00    +0.027 A 
ATOM     16  C   UNL     1       1.032  -0.218  -0.580  0.00  0.00    +0.034 A 
ATOM     17  C   UNL     1       2.359  -0.626  -0.630  0.00  0.00    +0.027 A 
ATOM     18  C   UNL     1       2.665  -1.951  -0.867  0.00  0.00    +0.047 A 
BRANCH  13  20
ATOM     19  C   UNL     1       3.336  -4.527  -1.338  0.00  0.00    +0.277 C 
ATOM     20  O   UNL     1       1.951  -4.177  -1.306  0.00  0.00    -0.495 OA
ENDBRANCH  13  20
ENDBRANCH   1  16
BRANCH   8  21
ATOM     21  N   UNL     1       0.516   6.022  -0.398  0.00  0.00    -0.187 NA
ATOM     22  C   UNL     1       0.195   7.274  -0.277  0.00  0.00    +0.139 C 
BRANCH  22  23
ATOM     23  C   UNL     1      -1.125   7.647   0.265  0.00  0.00    +0.013 A 
ATOM     24  C   UNL     1      -1.524   8.985   0.279  0.00  0.00    +0.012 A 
ATOM     25  C   UNL     1      -2.760   9.328   0.787  0.00  0.00    +0.021 A 
ATOM     26  C   UNL     1      -3.604   8.348   1.284  0.00  0.00    +0.042 A 
ATOM     27  C   UNL     1      -3.215   7.020   1.273  0.00  0.00    +0.040 A 
ATOM     28  C   UNL     1      -1.983   6.662   0.762  0.00  0.00    +0.051 A 
ATOM     29 CL   UNL     1      -1.500   4.995   0.743  0.00  0.00    -0.083 Cl
ATOM     30 CL   UNL     1      -5.157   8.789   1.922  0.00  0.00    -0.083 Cl
ENDBRANCH  22  23
ENDBRANCH   8  21
BRANCH   9  31
ATOM     31  C   UNL     1       6.080   3.430  -1.770  0.00  0.00    +0.178 C 
BRANCH  31  32
ATOM     32  C   UNL     1       7.412   2.795  -2.071  0.00  0.00    +0.122 A 
ATOM     33  C   UNL     1       7.846   2.415  -3.287  0.00  0.00    +0.046 A 
ATOM     34  C   UNL     1       9.139   1.871  -3.109  0.00  0.00    +0.041 A 
ATOM     35  C   UNL     1       9.419   1.952  -1.796  0.00  0.00    +0.195 A 
ATOM     36  O   UNL     1       8.372   2.518  -1.173  0.00  0.00    -0.466 OA
ENDBRANCH  31  32
ENDBRANCH   9  31
TORSDOF 6
