REMARK  Name = ZINC51711543
REMARK  8 active torsions:
REMARK  status: ('A' for Active; 'I' for Inactive)
REMARK    1  A    between atoms: C_1  and  C_2
REMARK    2  A    between atoms: C_7  and  C_9
REMARK    3  A    between atoms: C_7  and  N_26
REMARK    4  A    between atoms: C_9  and  N_10
REMARK    5  A    between atoms: C_17  and  C_20
REMARK    6  A    between atoms: N_22  and  C_23
REMARK    7  A    between atoms: N_26  and  C_27
REMARK    8  A    between atoms: N_26  and  C_28
REMARK                            x       y       z     vdW  Elec       q    Type
REMARK                         _______ _______ _______ _____ _____    ______ ____
ROOT
ATOM      1  N   UNL     1       1.766  -3.913   0.079  0.00  0.00    -0.301 N 
ATOM      2  C   UNL     1       2.537  -4.529  -0.839  0.00  0.00    +0.302 C 
ATOM      3  O   UNL     1       3.022  -3.891  -1.753  0.00  0.00    -0.253 OA
ATOM      4  N   UNL     1       2.771  -5.853  -0.743  0.00  0.00    -0.285 N 
ATOM      5  C   UNL     1       3.705  -6.517  -1.662  0.00  0.00    +0.109 C 
ATOM      6  C   UNL     1       4.746  -7.283  -0.840  0.00  0.00    +0.020 C 
ATOM      7  C   UNL     1       4.031  -8.233   0.123  0.00  0.00    +0.016 C 
ATOM      8  C   UNL     1       3.156  -7.425   1.084  0.00  0.00    +0.092 C 
ATOM      9  C   UNL     1       2.102  -6.659   0.288  0.00  0.00    +0.122 C 
ATOM     10  H   UNL     1       1.315  -4.434   0.761  0.00  0.00    +0.150 HD
ENDROOT
BRANCH   8  11
ATOM     11  C   UNL     1       2.478  -8.358   2.054  0.00  0.00    +0.218 C 
ATOM     12  O   UNL     1       2.675  -9.553   1.984  0.00  0.00    -0.275 OA
ATOM     13  N   UNL     1       1.653  -7.865   2.999  0.00  0.00    -0.312 N 
ATOM     14  H   UNL     1       1.496  -6.910   3.055  0.00  0.00    +0.149 HD
BRANCH  13  15
ATOM     15  C   UNL     1       0.994  -8.773   3.941  0.00  0.00    +0.073 C 
ATOM     16  C   UNL     1      -0.487  -8.529   4.238  0.00  0.00    +0.024 C 
ATOM     17  C   UNL     1       0.570  -8.199   5.295  0.00  0.00    +0.024 C 
ENDBRANCH  13  15
ENDBRANCH   8  11
BRANCH   1  18
ATOM     18  C   UNL     1       1.610  -2.457   0.045  0.00  0.00    +0.094 C 
BRANCH  18  24
ATOM     19  C   UNL     1       3.657  -2.020   3.832  0.00  0.00    +0.007 C 
ATOM     20  C   UNL     1       2.905  -1.661   2.549  0.00  0.00    -0.015 C 
ATOM     21  C   UNL     1       2.698  -0.146   2.487  0.00  0.00    +0.003 C 
ATOM     22  C   UNL     1       1.947   0.213   1.203  0.00  0.00    -0.001 C 
ATOM     23  C   UNL     1       0.587  -0.489   1.195  0.00  0.00    -0.010 C 
ATOM     24  C   UNL     1       0.794  -2.003   1.258  0.00  0.00    -0.050 C 
ATOM     25  C   UNL     1       1.546  -2.363   2.541  0.00  0.00    -0.007 C 
BRANCH  24  26
ATOM     26  N   UNL     1      -0.511  -2.677   1.250  0.00  0.00    +0.381 N 
ATOM     27  C   UNL     1      -1.332  -2.167   2.356  0.00  0.00    -0.096 C 
ATOM     28  C   UNL     1      -1.190  -2.413  -0.026  0.00  0.00    -0.096 C 
ATOM     29  H   UNL     1      -0.377  -3.671   1.361  0.00  0.00    -0.082 HD
ENDBRANCH  24  26
ENDBRANCH  18  24
ENDBRANCH   1  18
TORSDOF 5
