REMARK  Name = ZINC01118348
REMARK  6 active torsions:
REMARK  status: ('A' for Active; 'I' for Inactive)
REMARK    1  A    between atoms: C_1  and  C_2
REMARK    2  A    between atoms: C_2  and  C_3
REMARK    3  A    between atoms: C_3  and  C_5
REMARK    4  A    between atoms: C_3  and  S_6
REMARK    5  A    between atoms: S_6  and  C_7
REMARK    6  A    between atoms: C_18  and  C_20
REMARK                            x       y       z     vdW  Elec       q    Type
REMARK                         _______ _______ _______ _____ _____    ______ ____
ROOT
ATOM      1  C   UNL     1       4.361   4.871   2.281  0.00  0.00    +0.171 A 
ATOM      2  N   UNL     1       5.455   4.276   1.728  0.00  0.00    -0.302 N 
ATOM      3  H   UNL     1       6.344   4.541   2.010  0.00  0.00    +0.171 HD
ATOM      4  C   UNL     1       5.303   3.319   0.789  0.00  0.00    +0.258 A 
ATOM      5  O   UNL     1       6.277   2.780   0.288  0.00  0.00    -0.267 OA
ATOM      6  C   UNL     1       4.008   2.956   0.401  0.00  0.00    +0.069 A 
ATOM      7  C   UNL     1       2.930   3.590   0.995  0.00  0.00    +0.135 A 
ATOM      8  N   UNL     1       3.140   4.533   1.920  0.00  0.00    -0.208 NA
ATOM      9  N   UNL     1       1.645   3.243   0.627  0.00  0.00    -0.302 N 
ATOM     10  C   UNL     1       1.396   2.053  -0.000  0.00  0.00    +0.017 C 
ATOM     11  C   UNL     1       2.387   1.368  -0.609  0.00  0.00    +0.024 C 
ATOM     12  C   UNL     1       3.798   1.900  -0.642  0.00  0.00    +0.092 C 
ATOM     13  C   UNL     1       2.135   0.136  -1.238  0.00  0.00    +0.162 C 
ATOM     14  O   UNL     1       3.048  -0.450  -1.786  0.00  0.00    -0.292 OA
ATOM     15  C   UNL     1       0.760  -0.471  -1.245  0.00  0.00    +0.080 C 
ATOM     16  C   UNL     1       0.002  -0.004   0.002  0.00  0.00    +0.014 C 
ATOM     17  C   UNL     1      -0.019   1.526   0.010  0.00  0.00    +0.051 C 
ATOM     18  H   UNL     1       0.912   3.849   0.815  0.00  0.00    +0.153 HD
ENDROOT
BRANCH  12  19
ATOM     19  C   UNL     1       4.071   2.489  -2.002  0.00  0.00    -0.034 A 
ATOM     20  C   UNL     1       5.090   1.980  -2.784  0.00  0.00    +0.006 A 
ATOM     21  C   UNL     1       5.341   2.519  -4.032  0.00  0.00    +0.022 A 
ATOM     22  C   UNL     1       4.572   3.570  -4.498  0.00  0.00    +0.059 A 
ATOM     23  C   UNL     1       3.551   4.080  -3.715  0.00  0.00    +0.060 A 
ATOM     24  C   UNL     1       3.297   3.535  -2.469  0.00  0.00    +0.026 A 
ATOM     25 CL   UNL     1       2.584   5.399  -4.299  0.00  0.00    -0.082 Cl
ATOM     26 CL   UNL     1       4.888   4.249  -6.065  0.00  0.00    -0.082 Cl
ENDBRANCH  12  19
BRANCH   1  27
ATOM     27  S   UNL     1       4.583   6.120   3.504  0.00  0.00    -0.085 S 
BRANCH  27  28
ATOM     28  C   UNL     1       2.855   6.526   3.857  0.00  0.00    +0.051 C 
ATOM     29  C   UNL     1       2.164   5.314   4.484  0.00  0.00    +0.019 C 
BRANCH  28  31
ATOM     30  C   UNL     1       3.376   8.951   4.156  0.00  0.00    +0.005 C 
ATOM     31  C   UNL     1       2.797   7.706   4.829  0.00  0.00    +0.011 C 
ENDBRANCH  28  31
ENDBRANCH  27  28
ENDBRANCH   1  27
TORSDOF 4
