REMARK  Name = ZINC43548766
REMARK  15 active torsions:
REMARK  status: ('A' for Active; 'I' for Inactive)
REMARK    1  A    between atoms: C_1  and  C_2
REMARK    2  A    between atoms: C_2  and  N_3
REMARK    3  A    between atoms: N_3  and  C_4
REMARK    4  A    between atoms: C_4  and  C_5
REMARK    5  A    between atoms: C_6  and  C_8
REMARK    6  A    between atoms: C_8  and  C_10
REMARK    7  A    between atoms: C_8  and  C_11
REMARK    8  A    between atoms: C_15  and  C_41
REMARK    9  A    between atoms: N_22  and  C_23
REMARK   10  A    between atoms: C_25  and  O_31
REMARK   11  A    between atoms: C_28  and  O_29
REMARK   12  A    between atoms: O_29  and  C_30
REMARK   13  A    between atoms: O_31  and  C_32
REMARK   14  A    between atoms: C_33  and  C_40
REMARK   15  A    between atoms: C_37  and  O_39
REMARK                            x       y       z     vdW  Elec       q    Type
REMARK                         _______ _______ _______ _____ _____    ______ ____
ROOT
ATOM      1  C   UNL     1       2.919  -2.228   1.589  0.00  0.00    +0.029 C 
ATOM      2  C   UNL     1       4.032  -1.512   0.823  0.00  0.00    +0.007 C 
ATOM      3  C   UNL     1       5.132  -2.511   0.450  0.00  0.00    +0.008 C 
ATOM      4  C   UNL     1       5.682  -3.144   1.727  0.00  0.00    -0.022 C 
ATOM      5  C   UNL     1       6.836  -4.096   1.402  0.00  0.00    +0.051 C 
ATOM      6  C   UNL     1       6.276  -5.345   0.814  0.00  0.00    +0.015 A 
ATOM      7  C   UNL     1       4.982  -5.752   0.817  0.00  0.00    +0.057 A 
ATOM      8  N   UNL     1       4.762  -6.920   0.218  0.00  0.00    -0.229 NA
ATOM      9  C   UNL     1       5.735  -7.613  -0.332  0.00  0.00    +0.163 A 
ATOM     10  S   UNL     1       7.094  -6.658  -0.048  0.00  0.00    -0.057 S 
ATOM     11  N   UNL     1       5.660  -8.834  -0.986  0.00  0.00    -0.291 N 
ATOM     12  C   UNL     1       3.904  -4.899   1.466  0.00  0.00    +0.042 C 
ATOM     13  C   UNL     1       4.557  -3.906   2.435  0.00  0.00    +0.033 C 
ATOM     14  C   UNL     1       3.490  -2.879   2.851  0.00  0.00    +0.123 C 
ATOM     15  C   UNL     1       2.934  -5.799   2.235  0.00  0.00    +0.014 C 
ATOM     16  C   UNL     1       6.204  -2.042   2.651  0.00  0.00    +0.012 C 
ATOM     17  H   UNL     1       4.829  -9.334  -0.986  0.00  0.00    +0.154 HD
ENDROOT
BRANCH  11  18
ATOM     18  C   UNL     1       6.784  -9.344  -1.645  0.00  0.00    +0.078 A 
ATOM     19  C   UNL     1       7.718  -8.480  -2.198  0.00  0.00    +0.072 A 
ATOM     20  C   UNL     1       8.831  -8.988  -2.850  0.00  0.00    +0.122 A 
ATOM     21  C   UNL     1       9.010 -10.360  -2.951  0.00  0.00    +0.049 A 
ATOM     22  C   UNL     1       8.081 -11.224  -2.402  0.00  0.00    +0.051 A 
ATOM     23  C   UNL     1       6.971 -10.722  -1.743  0.00  0.00    +0.141 A 
BRANCH  23  24
ATOM     24  O   UNL     1       6.060 -11.572  -1.198  0.00  0.00    -0.493 OA
ATOM     25  C   UNL     1       6.315 -12.972  -1.336  0.00  0.00    +0.277 C 
ENDBRANCH  23  24
BRANCH  20  26
ATOM     26  O   UNL     1       9.746  -8.142  -3.392  0.00  0.00    -0.495 OA
ATOM     27  C   UNL     1      10.868  -8.734  -4.050  0.00  0.00    +0.277 C 
ENDBRANCH  20  26
ENDBRANCH  11  18
BRANCH   1  28
ATOM     28  C   UNL     1       1.842  -1.215   1.982  0.00  0.00    +0.078 C 
ATOM     29  C   UNL     1       1.315  -0.516   0.727  0.00  0.00    +0.017 C 
BRANCH  28  31
ATOM     30  N   UNL     1       1.623   0.616   3.631  0.00  0.00    -0.302 N 
ATOM     31  C   UNL     1       2.433  -0.191   2.917  0.00  0.00    +0.219 C 
ATOM     32  O   UNL     1       3.637  -0.092   3.025  0.00  0.00    -0.275 OA
BRANCH  30  34
ATOM     33  C   UNL     1       2.369   0.976   5.932  0.00  0.00    +0.024 C 
ATOM     34  C   UNL     1       2.198   1.604   4.548  0.00  0.00    +0.104 C 
ENDBRANCH  30  34
BRANCH  30  35
ATOM     35  C   UNL     1       0.169   0.505   3.491  0.00  0.00    +0.104 C 
ATOM     36  C   UNL     1      -0.336   1.594   2.543  0.00  0.00    +0.024 C 
ENDBRANCH  30  35
ENDBRANCH  28  31
ENDBRANCH   1  28
BRANCH  14  37
ATOM     37  O   UNL     1       2.443  -3.540   3.565  0.00  0.00    -0.391 OA
ATOM     38  H   UNL     1       1.701  -2.964   3.797  0.00  0.00    +0.210 HD
ENDBRANCH  14  37
TORSDOF 8
