REMARK  Name = ZINC40650203
REMARK  5 active torsions:
REMARK  status: ('A' for Active; 'I' for Inactive)
REMARK    1  A    between atoms: C_6  and  C_7
REMARK    2  A    between atoms: N_9  and  N_10
REMARK    3  A    between atoms: C_12  and  N_26
REMARK    4  A    between atoms: C_13  and  N_17
REMARK    5  A    between atoms: N_17  and  C_18
REMARK                            x       y       z     vdW  Elec       q    Type
REMARK                         _______ _______ _______ _____ _____    ______ ____
ROOT
ATOM      1  N   UNL     1      -2.474  -2.909   0.887  0.00  0.00    -0.246 N 
ATOM      2  C   UNL     1      -2.444  -4.272   0.636  0.00  0.00    +0.171 A 
ATOM      3  C   UNL     1      -3.626  -4.981   0.445  0.00  0.00    +0.207 A 
ATOM      4  C   UNL     1      -3.542  -6.348   0.197  0.00  0.00    +0.159 A 
ATOM      5  N   UNL     1      -2.342  -6.924   0.151  0.00  0.00    -0.218 NA
ATOM      6  C   UNL     1      -1.246  -6.218   0.337  0.00  0.00    +0.225 A 
ATOM      7  N   UNL     1      -1.283  -4.921   0.569  0.00  0.00    -0.217 NA
ATOM      8  H   UNL     1      -3.323  -2.443   0.934  0.00  0.00    +0.172 HD
ENDROOT
BRANCH   1  11
ATOM      9  C   UNL     1      -1.306  -0.879   1.315  0.00  0.00    +0.260 C 
ATOM     10  O   UNL     1      -2.371  -0.295   1.375  0.00  0.00    -0.269 OA
ATOM     11  N   UNL     1      -1.277  -2.204   1.072  0.00  0.00    -0.231 N 
ATOM     12  H   UNL     1      -0.428  -2.670   1.024  0.00  0.00    +0.173 HD
BRANCH   9  18
ATOM     13  C   UNL     1      -0.071   1.237   1.763  0.00  0.00    +0.014 A 
ATOM     14  C   UNL     1       1.110   1.925   1.945  0.00  0.00    +0.016 A 
ATOM     15  C   UNL     1       2.321   1.257   1.876  0.00  0.00    +0.018 A 
ATOM     16  C   UNL     1       2.355  -0.104   1.626  0.00  0.00    +0.016 A 
ATOM     17  C   UNL     1       1.180  -0.803   1.443  0.00  0.00    +0.014 A 
ATOM     18  C   UNL     1      -0.044  -0.136   1.510  0.00  0.00    +0.038 A 
ATOM     19 BR   UNL     1       3.937   2.209   2.125  0.00  0.00    -0.050 Br
ENDBRANCH   9  18
ENDBRANCH   1  11
BRANCH   3  20
ATOM     20  N   UNL     1      -4.939  -4.300   0.505  0.00  0.00    +0.063 N 
ATOM     21  O   UNL     1      -5.423  -3.831  -0.498  0.00  0.00    -0.126 OA
ATOM     22  O   UNL     1      -5.527  -4.212   1.558  0.00  0.00    -0.126 OA
ENDBRANCH   3  20
BRANCH   4  23
ATOM     23  N   UNL     1      -4.692  -7.099  -0.000  0.00  0.00    -0.296 N 
ATOM     24  H   UNL     1      -5.554  -6.660  -0.059  0.00  0.00    +0.154 HD
BRANCH  23  25
ATOM     25  C   UNL     1      -4.607  -8.491  -0.114  0.00  0.00    +0.051 A 
ATOM     26  C   UNL     1      -3.546  -9.173   0.468  0.00  0.00    +0.026 A 
ATOM     27  C   UNL     1      -3.465 -10.547   0.355  0.00  0.00    +0.022 A 
ATOM     28  C   UNL     1      -4.439 -11.245  -0.337  0.00  0.00    +0.042 A 
ATOM     29  C   UNL     1      -5.497 -10.569  -0.918  0.00  0.00    +0.041 A 
ATOM     30  C   UNL     1      -5.586  -9.194  -0.804  0.00  0.00    +0.063 A 
ATOM     31 CL   UNL     1      -6.918  -8.347  -1.528  0.00  0.00    -0.082 Cl
ATOM     32 CL   UNL     1      -4.332 -12.972  -0.478  0.00  0.00    -0.083 Cl
ENDBRANCH  23  25
ENDBRANCH   4  23
TORSDOF 5
