REMARK  Name = ZINC51755058
REMARK  7 active torsions:
REMARK  status: ('A' for Active; 'I' for Inactive)
REMARK    1  A    between atoms: C_1  and  C_2
REMARK    2  A    between atoms: C_5  and  C_11
REMARK    3  A    between atoms: C_6  and  C_10
REMARK    4  A    between atoms: C_7  and  O_8
REMARK    5  A    between atoms: O_8  and  C_9
REMARK    6  A    between atoms: C_11  and  N_12
REMARK    7  A    between atoms: N_15  and  C_16
REMARK                            x       y       z     vdW  Elec       q    Type
REMARK                         _______ _______ _______ _____ _____    ______ ____
ROOT
ATOM      1  N   UNL     1      -1.294  -4.749   0.049  0.00  0.00    -0.294 N 
ATOM      2  C   UNL     1      -1.519  -6.078   0.024  0.00  0.00    +0.300 C 
ATOM      3  O   UNL     1      -0.599  -6.846  -0.181  0.00  0.00    -0.253 OA
ATOM      4  N   UNL     1      -2.763  -6.554   0.227  0.00  0.00    -0.294 N 
ATOM      5  H   UNL     1      -2.027  -4.136   0.212  0.00  0.00    +0.151 HD
ATOM      6  H   UNL     1      -3.496  -5.941   0.391  0.00  0.00    +0.151 HD
ENDROOT
BRANCH   4   7
ATOM      7  C   UNL     1      -3.007  -7.998   0.201  0.00  0.00    +0.037 C 
ATOM      8  C   UNL     1      -2.617  -8.557  -1.169  0.00  0.00    +0.029 C 
ATOM      9  C   UNL     1      -2.873 -10.065  -1.197  0.00  0.00    -0.008 C 
ATOM     10  C   UNL     1      -4.356 -10.336  -0.940  0.00  0.00    +0.007 C 
ATOM     11  C   UNL     1      -4.747  -9.777   0.430  0.00  0.00    -0.008 C 
ATOM     12  C   UNL     1      -4.491  -8.269   0.458  0.00  0.00    +0.029 C 
ATOM     13  C   UNL     1      -3.909 -10.457   1.515  0.00  0.00    +0.007 C 
ATOM     14  C   UNL     1      -2.425 -10.186   1.258  0.00  0.00    -0.008 C 
ATOM     15  C   UNL     1      -2.035 -10.744  -0.112  0.00  0.00    +0.007 C 
ATOM     16  C   UNL     1      -2.170  -8.678   1.286  0.00  0.00    +0.029 C 
ENDBRANCH   4   7
BRANCH   1  17
ATOM     17  C   UNL     1       0.059  -4.231  -0.172  0.00  0.00    +0.159 C 
BRANCH  17  22
ATOM     18  C   UNL     1      -0.018   1.503   0.010  0.00  0.00    +0.049 C 
ATOM     19  C   UNL     1       0.002  -0.004   0.002  0.00  0.00    +0.007 A 
ATOM     20  C   UNL     1       0.006  -0.697  -1.191  0.00  0.00    +0.089 A 
ATOM     21  N   UNL     1       0.024  -2.016  -1.207  0.00  0.00    -0.362 N 
ATOM     22  C   UNL     1       0.039  -2.726  -0.095  0.00  0.00    +0.040 A 
ATOM     23  C   UNL     1       0.036  -2.108   1.139  0.00  0.00    +0.012 A 
ATOM     24  C   UNL     1       0.023  -0.716   1.198  0.00  0.00    +0.129 A 
ATOM     25  C   UNL     1       0.053  -2.926   2.404  0.00  0.00    +0.049 C 
ATOM     26  H   UNL     1       0.027  -2.477  -2.060  0.00  0.00    +0.165 HD
BRANCH  24  27
ATOM     27  O   UNL     1       0.025  -0.071   2.393  0.00  0.00    -0.494 OA
ATOM     28  C   UNL     1      -1.247   0.220   2.975  0.00  0.00    +0.277 C 
ENDBRANCH  24  27
ENDBRANCH  17  22
ENDBRANCH   1  17
TORSDOF 4
