REMARK  Name = ZINC57530951
REMARK  10 active torsions:
REMARK  status: ('A' for Active; 'I' for Inactive)
REMARK    1  A    between atoms: C_1  and  C_2
REMARK    2  A    between atoms: C_4  and  C_41
REMARK    3  A    between atoms: C_7  and  C_14
REMARK    4  A    between atoms: C_14  and  C_16
REMARK    5  A    between atoms: C_14  and  N_26
REMARK    6  A    between atoms: N_20  and  C_21
REMARK    7  A    between atoms: N_26  and  C_27
REMARK    8  A    between atoms: N_26  and  C_35
REMARK    9  A    between atoms: C_27  and  C_28
REMARK   10  A    between atoms: C_35  and  C_36
REMARK                            x       y       z     vdW  Elec       q    Type
REMARK                         _______ _______ _______ _____ _____    ______ ____
ROOT
ATOM      1  C   UNL     1       0.168  -6.268   1.007  0.00  0.00    +0.163 C 
ENDROOT
BRANCH   1   8
ATOM      2  C   UNL     1       0.985   0.833  -2.534  0.00  0.00    +0.044 C 
ATOM      3  C   UNL     1       0.809  -0.594  -2.082  0.00  0.00    -0.048 A 
ATOM      4  C   UNL     1       0.628  -1.596  -3.025  0.00  0.00    +0.007 A 
ATOM      5  C   UNL     1       0.467  -2.896  -2.636  0.00  0.00    -0.041 A 
ATOM      6  C   UNL     1       0.483  -3.220  -1.275  0.00  0.00    +0.002 A 
ATOM      7  C   UNL     1       0.314  -4.602  -0.824  0.00  0.00    +0.021 A 
ATOM      8  C   UNL     1       0.339  -4.856   0.508  0.00  0.00    +0.042 A 
ATOM      9  C   UNL     1       0.526  -3.803   1.429  0.00  0.00    +0.254 A 
ATOM     10  O   UNL     1       0.546  -4.053   2.622  0.00  0.00    -0.268 OA
ATOM     11  N   UNL     1       0.682  -2.530   1.024  0.00  0.00    -0.322 N 
ATOM     12  H   UNL     1       0.809  -1.831   1.684  0.00  0.00    +0.169 HD
ATOM     13  C   UNL     1       0.666  -2.206  -0.316  0.00  0.00    +0.050 A 
ATOM     14  C   UNL     1       0.834  -0.890  -0.736  0.00  0.00    +0.029 A 
ATOM     15  C   UNL     1       0.271  -3.976  -3.668  0.00  0.00    +0.044 C 
ENDBRANCH   1   8
BRANCH   1  16
ATOM     16  C   UNL     1       1.437  -6.720   1.681  0.00  0.00    +0.173 A 
ATOM     17  N   UNL     1       1.802  -6.465   2.913  0.00  0.00    -0.111 NA
ATOM     18  N   UNL     1       2.946  -7.024   3.114  0.00  0.00    -0.023 NA
ATOM     19  N   UNL     1       3.319  -7.630   2.041  0.00  0.00    -0.044 NA
ATOM     20  N   UNL     1       2.413  -7.470   1.136  0.00  0.00    -0.224 N 
BRANCH  20  21
ATOM     21  C   UNL     1       2.442  -8.003  -0.228  0.00  0.00    +0.111 C 
ATOM     22  C   UNL     1       2.644  -9.532  -0.195  0.00  0.00    +0.027 C 
ATOM     23  C   UNL     1       3.560  -9.820  -1.410  0.00  0.00    +0.002 C 
ATOM     24  C   UNL     1       4.528  -8.611  -1.403  0.00  0.00    +0.002 C 
ATOM     25  C   UNL     1       3.640  -7.417  -0.997  0.00  0.00    +0.027 C 
ENDBRANCH  20  21
ENDBRANCH   1  16
BRANCH   1  26
ATOM     26  N   UNL     1      -0.942  -6.316   1.969  0.00  0.00    -0.277 NA
BRANCH  26  27
ATOM     27  C   UNL     1      -1.144  -7.681   2.471  0.00  0.00    +0.121 C 
BRANCH  27  28
ATOM     28  C   UNL     1      -1.487  -8.594   1.322  0.00  0.00    -0.033 A 
ATOM     29  C   UNL     1      -2.800  -8.723   0.911  0.00  0.00    +0.008 A 
ATOM     30  C   UNL     1      -3.116  -9.560  -0.142  0.00  0.00    +0.038 A 
ATOM     31  C   UNL     1      -2.116 -10.268  -0.787  0.00  0.00    +0.123 A 
ATOM     32  C   UNL     1      -0.801 -10.137  -0.375  0.00  0.00    +0.038 A 
ATOM     33  C   UNL     1      -0.487  -9.296   0.676  0.00  0.00    +0.008 A 
ATOM     34  F   UNL     1      -2.423 -11.086  -1.817  0.00  0.00    -0.205 F 
ENDBRANCH  27  28
ENDBRANCH  26  27
BRANCH  26  35
ATOM     35  C   UNL     1      -2.176  -5.785   1.375  0.00  0.00    +0.160 C 
BRANCH  35  36
ATOM     36  C   UNL     1      -3.178  -5.505   2.466  0.00  0.00    +0.119 A 
ATOM     37  C   UNL     1      -3.377  -4.317   3.066  0.00  0.00    +0.046 A 
ATOM     38  C   UNL     1      -4.402  -4.507   4.021  0.00  0.00    +0.041 A 
ATOM     39  C   UNL     1      -4.768  -5.799   3.947  0.00  0.00    +0.195 A 
ATOM     40  O   UNL     1      -4.027  -6.397   3.000  0.00  0.00    -0.467 OA
ENDBRANCH  35  36
ENDBRANCH  26  35
ENDBRANCH   1  26
TORSDOF 8
