REMARK  Name = ZINC41626812
REMARK  9 active torsions:
REMARK  status: ('A' for Active; 'I' for Inactive)
REMARK    1  A    between atoms: C_1  and  C_2
REMARK    2  A    between atoms: C_6  and  C_25
REMARK    3  A    between atoms: C_8  and  N_11
REMARK    4  A    between atoms: N_11  and  S_12
REMARK    5  A    between atoms: S_12  and  C_15
REMARK    6  A    between atoms: C_18  and  S_21
REMARK    7  A    between atoms: S_21  and  N_24
REMARK    8  A    between atoms: C_25  and  C_26
REMARK    9  A    between atoms: C_25  and  C_27
REMARK                            x       y       z     vdW  Elec       q    Type
REMARK                         _______ _______ _______ _____ _____    ______ ____
ROOT
ATOM      1  S   UNL     1       1.518   2.293   3.095  0.00  0.00    +0.059 S 
ATOM      2  O   UNL     1       1.211   3.672   2.942  0.00  0.00    -0.153 OA
ATOM      3  O   UNL     1       1.829   1.717   4.356  0.00  0.00    -0.153 OA
ENDROOT
BRANCH   1   4
ATOM      4  C   UNL     1       2.889   1.962   2.039  0.00  0.00    +0.105 A 
ATOM      5  C   UNL     1       3.720   0.889   2.301  0.00  0.00    +0.030 A 
ATOM      6  C   UNL     1       4.795   0.629   1.472  0.00  0.00    +0.030 A 
ATOM      7  C   UNL     1       5.039   1.442   0.381  0.00  0.00    +0.105 A 
ATOM      8  C   UNL     1       4.207   2.514   0.118  0.00  0.00    +0.030 A 
ATOM      9  C   UNL     1       3.129   2.771   0.944  0.00  0.00    +0.030 A 
BRANCH   7  10
ATOM     10  S   UNL     1       6.410   1.111  -0.675  0.00  0.00    +0.056 S 
ATOM     11  O   UNL     1       6.738   2.339  -1.311  0.00  0.00    -0.153 OA
ATOM     12  O   UNL     1       7.351   0.378   0.098  0.00  0.00    -0.153 OA
BRANCH  10  13
ATOM     13  N   UNL     1       5.877   0.089  -1.865  0.00  0.00    -0.204 NA
ATOM     14  H   UNL     1       6.283   0.117  -2.745  0.00  0.00    +0.144 HD
ATOM     15  H   UNL     1       5.159  -0.536  -1.681  0.00  0.00    +0.144 HD
ENDBRANCH  10  13
ENDBRANCH   7  10
ENDBRANCH   1   4
BRANCH   1  16
ATOM     16  N   UNL     1       0.224   1.450   2.497  0.00  0.00    -0.187 NA
ATOM     17  H   UNL     1      -0.547   1.927   2.152  0.00  0.00    +0.148 HD
BRANCH  16  23
ATOM     18  C   UNL     1      -0.123   1.524   0.023  0.00  0.00    +0.007 C 
ATOM     19  C   UNL     1      -0.102  -0.006   0.014  0.00  0.00    -0.013 C 
ATOM     20  C   UNL     1      -1.524  -0.536   0.211  0.00  0.00    +0.003 C 
ATOM     21  C   UNL     1      -2.072  -0.041   1.551  0.00  0.00    +0.005 C 
ATOM     22  C   UNL     1      -1.178  -0.545   2.686  0.00  0.00    +0.010 C 
ATOM     23  C   UNL     1       0.244  -0.015   2.489  0.00  0.00    +0.080 C 
ATOM     24  C   UNL     1       0.792  -0.510   1.149  0.00  0.00    +0.024 C 
BRANCH  22  25
ATOM     25  C   UNL     1      -1.726  -0.050   4.025  0.00  0.00    -0.013 C 
ATOM     26  C   UNL     1      -3.148  -0.580   4.222  0.00  0.00    +0.007 C 
ATOM     27  C   UNL     1      -0.832  -0.554   5.160  0.00  0.00    +0.007 C 
ENDBRANCH  22  25
ENDBRANCH  16  23
ENDBRANCH   1  16
TORSDOF 6
