REMARK  Name = ZINC04832605
REMARK  1 active torsions:
REMARK  status: ('A' for Active; 'I' for Inactive)
REMARK    1  A    between atoms: N_21  and  C_24
REMARK                            x       y       z     vdW  Elec       q    Type
REMARK                         _______ _______ _______ _____ _____    ______ ____
ROOT
ATOM      1  C   UNL     1      -6.738   8.760   1.017  0.00  0.00    +0.000 A 
ATOM      2  C   UNL     1      -6.704   8.909  -0.357  0.00  0.00    +0.000 A 
ATOM      3  C   UNL     1      -6.309   7.851  -1.167  0.00  0.00    +0.004 A 
ATOM      4  C   UNL     1      -5.962   6.673  -0.579  0.00  0.00    -0.035 A 
ATOM      5  C   UNL     1      -6.042   6.498   0.782  0.00  0.00    -0.035 A 
ATOM      6  C   UNL     1      -6.412   7.552   1.569  0.00  0.00    +0.004 A 
ATOM      7  C   UNL     1      -5.696   5.112   1.287  0.00  0.00    +0.062 C 
ATOM      8  C   UNL     1      -6.661   4.217   0.465  0.00  0.00    -0.035 A 
ATOM      9  C   UNL     1      -7.573   3.345   0.962  0.00  0.00    +0.004 A 
ATOM     10  C   UNL     1      -8.259   2.525   0.072  0.00  0.00    +0.000 A 
ATOM     11  C   UNL     1      -8.007   2.614  -1.284  0.00  0.00    +0.000 A 
ATOM     12  C   UNL     1      -7.092   3.531  -1.782  0.00  0.00    +0.004 A 
ATOM     13  C   UNL     1      -6.431   4.353  -0.908  0.00  0.00    -0.035 A 
ATOM     14  C   UNL     1      -5.453   5.436  -1.341  0.00  0.00    +0.062 C 
ATOM     15  C   UNL     1      -4.108   5.246  -0.649  0.00  0.00    +0.100 C 
ATOM     16  C   UNL     1      -4.417   4.640   0.748  0.00  0.00    +0.100 C 
ATOM     17  C   UNL     1      -3.117   4.183   1.202  0.00  0.00    +0.231 C 
ATOM     18  O   UNL     1      -2.700   4.133   2.340  0.00  0.00    -0.274 OA
ATOM     19  N   UNL     1      -2.467   3.819   0.046  0.00  0.00    -0.209 N 
ATOM     20  C   UNL     1      -3.135   4.198  -1.092  0.00  0.00    +0.231 C 
ATOM     21  O   UNL     1      -2.973   3.775  -2.216  0.00  0.00    -0.274 OA
ENDROOT
BRANCH  19  22
ATOM     22  C   UNL     1      -1.242   3.135   0.031  0.00  0.00    +0.058 A 
ATOM     23  C   UNL     1      -1.220   1.748   0.017  0.00  0.00    +0.025 A 
ATOM     24  C   UNL     1      -0.013   1.076   0.008  0.00  0.00    +0.002 A 
ATOM     25  C   UNL     1       1.177   1.781   0.000  0.00  0.00    +0.001 A 
ATOM     26  C   UNL     1       1.165   3.163   0.007  0.00  0.00    +0.017 A 
ATOM     27  C   UNL     1      -0.043   3.847   0.023  0.00  0.00    +0.041 A 
ATOM     28  S   UNL     1      -0.061   5.609   0.031  0.00  0.00    -0.050 SA
ENDBRANCH  19  22
TORSDOF 1
