REMARK  Name = ZINC40147114
REMARK  11 active torsions:
REMARK  status: ('A' for Active; 'I' for Inactive)
REMARK    1  A    between atoms: C_1  and  C_2
REMARK    2  A    between atoms: C_5  and  C_8
REMARK    3  A    between atoms: C_10  and  C_19
REMARK    4  A    between atoms: C_11  and  C_17
REMARK    5  A    between atoms: C_12  and  N_16
REMARK    6  A    between atoms: C_13  and  C_14
REMARK    7  A    between atoms: C_22  and  O_27
REMARK    8  A    between atoms: C_23  and  O_25
REMARK    9  A    between atoms: O_25  and  C_26
REMARK   10  A    between atoms: O_27  and  C_28
REMARK   11  A    between atoms: C_28  and  C_29
REMARK                            x       y       z     vdW  Elec       q    Type
REMARK                         _______ _______ _______ _____ _____    ______ ____
ROOT
ATOM      1  C   UNL     1       0.061  -4.254  -0.021  0.00  0.00    +0.002 A 
ATOM      2  C   UNL     1       0.993  -4.939   0.749  0.00  0.00    +0.019 A 
ATOM      3  C   UNL     1       1.018  -6.329   0.747  0.00  0.00    +0.002 A 
ATOM      4  C   UNL     1       0.097  -7.052  -0.037  0.00  0.00    +0.081 A 
ATOM      5  C   UNL     1      -0.846  -6.367  -0.816  0.00  0.00    +0.061 A 
ATOM      6  C   UNL     1      -0.869  -4.965  -0.805  0.00  0.00    +0.081 A 
ENDROOT
BRANCH   1  11
ATOM      7  C   UNL     1      -0.018   1.503   0.010  0.00  0.00    +0.044 C 
ATOM      8  C   UNL     1       0.002  -0.004   0.002  0.00  0.00    -0.050 A 
ATOM      9  C   UNL     1       0.006  -0.686  -1.202  0.00  0.00    +0.004 A 
ATOM     10  C   UNL     1       0.025  -2.066  -1.216  0.00  0.00    +0.009 A 
ATOM     11  C   UNL     1       0.041  -2.773  -0.013  0.00  0.00    -0.017 A 
ATOM     12  C   UNL     1       0.037  -2.079   1.197  0.00  0.00    +0.009 A 
ATOM     13  C   UNL     1       0.023  -0.699   1.198  0.00  0.00    +0.004 A 
ENDBRANCH   1  11
BRANCH   3  14
ATOM     14  C   UNL     1       2.015  -7.050   1.570  0.00  0.00    -0.013 A 
ATOM     15  C   UNL     1       3.363  -6.697   1.503  0.00  0.00    +0.012 A 
ATOM     16  C   UNL     1       4.291  -7.371   2.270  0.00  0.00    +0.050 A 
ATOM     17  C   UNL     1       3.887  -8.399   3.110  0.00  0.00    +0.162 A 
ATOM     18  C   UNL     1       2.542  -8.755   3.181  0.00  0.00    +0.162 A 
ATOM     19  C   UNL     1       1.607  -8.080   2.418  0.00  0.00    +0.058 A 
BRANCH  18  20
ATOM     20  O   UNL     1       2.148  -9.763   4.004  0.00  0.00    -0.491 OA
ATOM     21  C   UNL     1       0.754 -10.075   4.027  0.00  0.00    +0.277 C 
ENDBRANCH  18  20
BRANCH  17  22
ATOM     22  O   UNL     1       4.805  -9.060   3.863  0.00  0.00    -0.484 OA
BRANCH  22  23
ATOM     23  C   UNL     1       6.166  -8.643   3.740  0.00  0.00    +0.264 C 
BRANCH  23  24
ATOM     24  C   UNL     1       7.032  -9.483   4.644  0.00  0.00    -0.010 A 
ATOM     25  C   UNL     1       7.263  -9.084   5.947  0.00  0.00    +0.007 A 
ATOM     26  C   UNL     1       8.057  -9.854   6.775  0.00  0.00    +0.000 A 
ATOM     27  C   UNL     1       8.620 -11.025   6.301  0.00  0.00    +0.000 A 
ATOM     28  C   UNL     1       8.388 -11.425   4.998  0.00  0.00    +0.000 A 
ATOM     29  C   UNL     1       7.590 -10.656   4.171  0.00  0.00    +0.007 A 
ENDBRANCH  23  24
ENDBRANCH  22  23
ENDBRANCH  17  22
ENDBRANCH   3  14
BRANCH   5  30
ATOM     30  N   UNL     1      -1.753  -7.072  -1.588  0.00  0.00    -0.356 N 
ATOM     31  H   UNL     1      -1.738  -8.041  -1.591  0.00  0.00    +0.142 HD
ATOM     32  H   UNL     1      -2.405  -6.596  -2.126  0.00  0.00    +0.142 HD
ENDBRANCH   5  30
BRANCH   6  33
ATOM     33  C   UNL     1      -1.833  -4.257  -1.594  0.00  0.00    +0.102 C 
ATOM     34  N   UNL     1      -2.597  -3.696  -2.220  0.00  0.00    -0.191 NA
ENDBRANCH   6  33
BRANCH   4  35
ATOM     35  C   UNL     1       0.125  -8.484  -0.038  0.00  0.00    +0.102 C 
ATOM     36  N   UNL     1       0.147  -9.620  -0.039  0.00  0.00    -0.191 NA
ENDBRANCH   4  35
TORSDOF 9
