REMARK  Name = ZINC62215082
REMARK  6 active torsions:
REMARK  status: ('A' for Active; 'I' for Inactive)
REMARK    1  A    between atoms: C_1  and  C_2
REMARK    2  A    between atoms: C_2  and  C_4
REMARK    3  A    between atoms: C_2  and  N_14
REMARK    4  A    between atoms: N_6  and  C_7
REMARK    5  A    between atoms: C_15  and  C_17
REMARK    6  A    between atoms: C_24  and  C_26
REMARK                            x       y       z     vdW  Elec       q    Type
REMARK                         _______ _______ _______ _____ _____    ______ ____
ROOT
ATOM      1  N   UNL     1       0.697  -0.512   1.188  0.00  0.00    -0.299 N 
ATOM      2  C   UNL     1       0.034  -0.666   2.352  0.00  0.00    +0.265 C 
ATOM      3  O   UNL     1      -1.152  -0.397   2.416  0.00  0.00    -0.268 OA
ATOM      4  H   UNL     1       1.642  -0.726   1.137  0.00  0.00    +0.150 HD
ENDROOT
BRANCH   2   5
ATOM      5  C   UNL     1       0.738  -1.156   3.536  0.00  0.00    +0.151 A 
ATOM      6  C   UNL     1       0.184  -1.371   4.806  0.00  0.00    +0.078 A 
ATOM      7  C   UNL     1      -1.102  -1.212   5.338  0.00  0.00    +0.028 A 
ATOM      8  C   UNL     1      -1.322  -1.517   6.649  0.00  0.00    +0.004 A 
ATOM      9  C   UNL     1      -0.260  -1.984   7.439  0.00  0.00    +0.018 A 
ATOM     10  C   UNL     1       0.973  -2.131   6.909  0.00  0.00    +0.093 A 
ATOM     11  N   UNL     1       1.207  -1.830   5.598  0.00  0.00    -0.302 N 
ATOM     12  C   UNL     1       2.325  -1.883   4.822  0.00  0.00    +0.118 A 
ATOM     13  N   UNL     1       2.042  -1.492   3.612  0.00  0.00    -0.226 NA
BRANCH  12  14
ATOM     14  C   UNL     1       3.685  -2.332   5.290  0.00  0.00    +0.056 C 
ATOM     15  C   UNL     1       4.863  -2.134   4.334  0.00  0.00    +0.012 C 
ATOM     16  C   UNL     1       4.312  -3.538   4.588  0.00  0.00    +0.012 C 
ENDBRANCH  12  14
ENDBRANCH   2   5
BRANCH   1  18
ATOM     17  C   UNL     1      -0.034   1.509   0.021  0.00  0.00    +0.038 C 
ATOM     18  C   UNL     1      -0.008  -0.021   0.002  0.00  0.00    +0.156 C 
BRANCH  18  19
ATOM     19  C   UNL     1       0.704  -0.497  -1.238  0.00  0.00    +0.237 C 
ATOM     20  O   UNL     1       1.702  -1.178  -1.141  0.00  0.00    -0.273 OA
ATOM     21  N   UNL     1       0.231  -0.164  -2.456  0.00  0.00    -0.282 N 
ATOM     22  H   UNL     1      -0.602   0.326  -2.535  0.00  0.00    +0.155 HD
BRANCH  21  23
ATOM     23  C   UNL     1       0.943  -0.526  -3.606  0.00  0.00    +0.069 A 
ATOM     24  C   UNL     1       1.643  -1.724  -3.643  0.00  0.00    +0.026 A 
ATOM     25  C   UNL     1       2.344  -2.079  -4.779  0.00  0.00    +0.002 A 
ATOM     26  C   UNL     1       2.350  -1.243  -5.880  0.00  0.00    +0.003 A 
ATOM     27  C   UNL     1       1.654  -0.048  -5.848  0.00  0.00    +0.040 A 
ATOM     28  C   UNL     1       0.945   0.311  -4.716  0.00  0.00    +0.144 A 
ATOM     29  F   UNL     1       0.261   1.475  -4.688  0.00  0.00    -0.204 F 
ENDBRANCH  21  23
ENDBRANCH  18  19
ENDBRANCH   1  18
TORSDOF 5
