REMARK  Name = ZINC64713973
REMARK  7 active torsions:
REMARK  status: ('A' for Active; 'I' for Inactive)
REMARK    1  A    between atoms: C_1  and  C_2
REMARK    2  A    between atoms: C_2  and  C_3
REMARK    3  A    between atoms: C_6  and  C_9
REMARK    4  A    between atoms: C_17  and  S_21
REMARK    5  A    between atoms: S_21  and  C_22
REMARK    6  A    between atoms: C_22  and  C_23
REMARK    7  A    between atoms: C_25  and  C_28
REMARK                            x       y       z     vdW  Elec       q    Type
REMARK                         _______ _______ _______ _____ _____    ______ ____
ROOT
ATOM      1  C   UNL     1      -5.241  -1.768   0.472  0.00  0.00    +0.047 C 
ATOM      2  C   UNL     1      -5.832  -2.131  -0.691  0.00  0.00    +0.027 C 
ATOM      3  C   UNL     1      -7.170  -2.678  -0.273  0.00  0.00    +0.193 C 
ATOM      4  C   UNL     1      -7.644  -3.906  -0.989  0.00  0.00    +0.276 C 
ATOM      5  O   UNL     1      -7.353  -4.124  -2.141  0.00  0.00    -0.270 OA
ATOM      6  N   UNL     1      -8.417  -4.759  -0.270  0.00  0.00    -0.081 NA
ATOM      7  N   UNL     1      -8.643  -4.628   0.935  0.00  0.00    -0.163 NA
ATOM      8  C   UNL     1      -8.068  -3.548   1.756  0.00  0.00    +0.272 C 
ATOM      9  N   UNL     1      -6.843  -3.118   1.123  0.00  0.00    -0.178 NA
ATOM     10  N   UNL     1      -6.104  -2.073   1.552  0.00  0.00    -0.274 N 
ATOM     11  H   UNL     1      -6.155  -1.628   2.413  0.00  0.00    +0.167 HD
ENDROOT
BRANCH   1  15
ATOM     12  C   UNL     1      -1.389  -0.009   0.826  0.00  0.00    -0.048 A 
ATOM     13  C   UNL     1      -2.139  -0.258   1.961  0.00  0.00    +0.004 A 
ATOM     14  C   UNL     1      -3.391  -0.829   1.852  0.00  0.00    +0.010 A 
ATOM     15  C   UNL     1      -3.899  -1.155   0.595  0.00  0.00    -0.003 A 
ATOM     16  C   UNL     1      -3.137  -0.902  -0.545  0.00  0.00    +0.010 A 
ATOM     17  C   UNL     1      -1.889  -0.325  -0.424  0.00  0.00    +0.004 A 
BRANCH  12  19
ATOM     18  C   UNL     1      -0.152   2.139   0.898  0.00  0.00    +0.009 C 
ATOM     19  C   UNL     1      -0.023   0.615   0.951  0.00  0.00    +0.032 C 
ENDBRANCH  12  19
ENDBRANCH   1  15
BRANCH   8  20
ATOM     20  S   UNL     1      -9.221  -2.150   1.837  0.00  0.00    -0.106 S 
BRANCH  20  21
ATOM     21  C   UNL     1     -10.507  -2.709   2.988  0.00  0.00    +0.171 C 
BRANCH  21  22
ATOM     22  C   UNL     1     -11.514  -1.606   3.191  0.00  0.00    +0.238 A 
ATOM     23  N   UNL     1     -12.591  -1.419   2.484  0.00  0.00    -0.191 NA
ATOM     24  C   UNL     1     -13.259  -0.343   2.938  0.00  0.00    +0.202 A 
ATOM     25  N   UNL     1     -12.598   0.164   3.949  0.00  0.00    -0.056 NA
ATOM     26  O   UNL     1     -11.453  -0.655   4.133  0.00  0.00    -0.337 OA
BRANCH  24  27
ATOM     27  C   UNL     1     -14.533   0.182   2.385  0.00  0.00    +0.024 A 
ATOM     28  C   UNL     1     -15.141  -0.454   1.305  0.00  0.00    +0.012 A 
ATOM     29  C   UNL     1     -16.325   0.038   0.794  0.00  0.00    +0.002 A 
ATOM     30  C   UNL     1     -16.908   1.161   1.352  0.00  0.00    +0.020 A 
ATOM     31  C   UNL     1     -16.308   1.798   2.425  0.00  0.00    +0.042 A 
ATOM     32  C   UNL     1     -15.126   1.310   2.948  0.00  0.00    +0.031 A 
ATOM     33 CL   UNL     1     -17.046   3.208   3.119  0.00  0.00    -0.084 Cl
ENDBRANCH  24  27
ENDBRANCH  21  22
ENDBRANCH  20  21
ENDBRANCH   8  20
TORSDOF 6
