REMARK  Name = ZINC65196382
REMARK  2 active torsions:
REMARK  status: ('A' for Active; 'I' for Inactive)
REMARK    1  A    between atoms: C_4  and  C_8
REMARK    2  A    between atoms: C_11  and  C_14
REMARK                            x       y       z     vdW  Elec       q    Type
REMARK                         _______ _______ _______ _____ _____    ______ ____
ROOT
ATOM      1  C   UNL     1       3.713  -0.707  -0.037  0.00  0.00    +0.325 C 
ATOM      2  N   UNL     1       3.510  -2.130   0.275  0.00  0.00    -0.286 N 
ATOM      3  C   UNL     1       3.940  -2.846  -0.828  0.00  0.00    +0.169 C 
ATOM      4  N   UNL     1       4.372  -2.059  -1.757  0.00  0.00    -0.066 NA
ATOM      5  O   UNL     1       4.273  -0.702  -1.359  0.00  0.00    -0.364 OA
ATOM      6  H   UNL     1       3.145  -2.496   1.095  0.00  0.00    +0.151 HD
ENDROOT
BRANCH   1  10
ATOM      7  C   UNL     1      -0.017   1.380   0.010  0.00  0.00    +0.040 A 
ATOM      8  C   UNL     1       1.171   2.087   0.002  0.00  0.00    +0.023 A 
ATOM      9  C   UNL     1       2.378   1.412  -0.013  0.00  0.00    +0.050 A 
ATOM     10  C   UNL     1       2.397   0.028  -0.021  0.00  0.00    +0.035 A 
ATOM     11  C   UNL     1       1.211  -0.679  -0.014  0.00  0.00    +0.048 A 
ATOM     12  C   UNL     1       0.002  -0.004   0.002  0.00  0.00    +0.124 A 
ATOM     13  F   UNL     1      -1.158  -0.696   0.010  0.00  0.00    -0.205 F 
ATOM     14 CL   UNL     1       3.869   2.301  -0.023  0.00  0.00    -0.083 Cl
ENDBRANCH   1  10
BRANCH   3  15
ATOM     15  C   UNL     1       3.909  -4.323  -0.930  0.00  0.00    +0.030 C 
ATOM     16  C   UNL     1       4.360  -4.932  -2.054  0.00  0.00    -0.005 C 
ATOM     17  C   UNL     1       4.302  -6.445  -2.098  0.00  0.00    +0.125 C 
ATOM     18  C   UNL     1       3.746  -7.151  -0.880  0.00  0.00    +0.240 C 
ATOM     19  O   UNL     1       3.673  -8.363  -0.851  0.00  0.00    -0.273 OA
ATOM     20  N   UNL     1       3.336  -6.421   0.164  0.00  0.00    -0.188 NA
ATOM     21  C   UNL     1       3.399  -5.119   0.184  0.00  0.00    +0.111 C 
ENDBRANCH   3  15
TORSDOF 2
