REMARK  Name = ZINC56794352
REMARK  8 active torsions:
REMARK  status: ('A' for Active; 'I' for Inactive)
REMARK    1  A    between atoms: C_1  and  C_2
REMARK    2  A    between atoms: C_2  and  C_3
REMARK    3  A    between atoms: C_2  and  C_4
REMARK    4  A    between atoms: C_2  and  O_5
REMARK    5  A    between atoms: O_5  and  C_6
REMARK    6  A    between atoms: N_8  and  C_9
REMARK    7  A    between atoms: N_18  and  C_19
REMARK    8  A    between atoms: N_22  and  C_25
REMARK                            x       y       z     vdW  Elec       q    Type
REMARK                         _______ _______ _______ _____ _____    ______ ____
ROOT
ATOM      1  C   UNL     1       4.036  -0.072  -2.598  0.00  0.00    +0.094 C 
ATOM      2  C   UNL     1       4.760  -1.085  -3.487  0.00  0.00    +0.025 C 
ATOM      3  C   UNL     1       6.225  -0.671  -3.647  0.00  0.00    +0.021 C 
ATOM      4  C   UNL     1       6.293   0.701  -4.324  0.00  0.00    +0.109 C 
ATOM      5  N   UNL     1       5.478   1.650  -3.553  0.00  0.00    -0.284 N 
ATOM      6  C   UNL     1       4.079   1.308  -3.263  0.00  0.00    +0.131 C 
ATOM      7  C   UNL     1       6.005   2.812  -3.119  0.00  0.00    +0.302 C 
ATOM      8  O   UNL     1       5.297   3.629  -2.562  0.00  0.00    -0.253 OA
ATOM      9  N   UNL     1       7.315   3.068  -3.303  0.00  0.00    -0.297 N 
ATOM     10  H   UNL     1       7.863   2.451  -3.811  0.00  0.00    +0.151 HD
ENDROOT
BRANCH   9  11
ATOM     11  C   UNL     1       7.911   4.280  -2.735  0.00  0.00    +0.071 C 
ATOM     12  C   UNL     1       7.706   5.452  -3.699  0.00  0.00    +0.004 C 
ATOM     13  C   UNL     1       8.399   6.695  -3.136  0.00  0.00    -0.077 C 
ATOM     14  N   UNL     1       9.835   6.431  -2.982  0.00  0.00    +0.378 N 
ATOM     15  C   UNL     1      10.042   5.356  -2.004  0.00  0.00    -0.077 C 
ATOM     16  C   UNL     1       9.412   4.062  -2.523  0.00  0.00    +0.004 C 
ATOM     17  C   UNL     1      10.508   7.651  -2.516  0.00  0.00    -0.096 C 
ATOM     18  H   UNL     1      10.223   6.155  -3.871  0.00  0.00    -0.082 HD
ENDBRANCH   9  11
BRANCH   1  21
ATOM     19  C   UNL     1       1.954  -0.085  -1.333  0.00  0.00    +0.401 C 
ATOM     20  O   UNL     1       2.490   0.620  -0.500  0.00  0.00    -0.226 OA
ATOM     21  N   UNL     1       2.642  -0.485  -2.420  0.00  0.00    -0.277 N 
ATOM     22  H   UNL     1       2.215  -1.048  -3.084  0.00  0.00    +0.152 HD
BRANCH  19  23
ATOM     23  O   UNL     1       0.673  -0.465  -1.169  0.00  0.00    -0.445 OA
BRANCH  23  25
ATOM     24  C   UNL     1      -0.017   1.526   0.013  0.00  0.00    +0.055 C 
ATOM     25  C   UNL     1       0.004  -0.003   0.006  0.00  0.00    +0.107 C 
ATOM     26  C   UNL     1       0.745  -0.509   1.246  0.00  0.00    +0.055 C 
ATOM     27  C   UNL     1      -1.431  -0.533   0.018  0.00  0.00    +0.055 C 
ENDBRANCH  23  25
ENDBRANCH  19  23
ENDBRANCH   1  21
TORSDOF 4
