REMARK  Name = ZINC17418744
REMARK  6 active torsions:
REMARK  status: ('A' for Active; 'I' for Inactive)
REMARK    1  A    between atoms: C_5  and  C_9
REMARK    2  A    between atoms: N_10  and  N_11
REMARK    3  A    between atoms: N_11  and  C_12
REMARK    4  A    between atoms: C_15  and  N_22
REMARK    5  A    between atoms: N_22  and  N_23
REMARK    6  A    between atoms: C_24  and  C_25
REMARK                            x       y       z     vdW  Elec       q    Type
REMARK                         _______ _______ _______ _____ _____    ______ ____
ROOT
ATOM      1  C   UNL     1       1.549  -4.987   0.199  0.00  0.00    +0.168 A 
ATOM      2  N   UNL     1       0.377  -4.388   0.307  0.00  0.00    -0.130 NA
ATOM      3  N   UNL     1      -0.732  -5.022   0.405  0.00  0.00    -0.130 NA
ATOM      4  C   UNL     1      -0.817  -6.340   0.408  0.00  0.00    +0.168 A 
ATOM      5  C   UNL     1       0.369  -7.103   0.298  0.00  0.00    +0.029 A 
ATOM      6  C   UNL     1       1.596  -6.401   0.184  0.00  0.00    +0.029 A 
ATOM      7  C   UNL     1       2.792  -7.117   0.069  0.00  0.00    +0.012 A 
ATOM      8  C   UNL     1       2.759  -8.481   0.062  0.00  0.00    +0.001 A 
ATOM      9  C   UNL     1       1.554  -9.169   0.169  0.00  0.00    +0.001 A 
ATOM     10  C   UNL     1       0.370  -8.501   0.294  0.00  0.00    +0.012 A 
ENDROOT
BRANCH   1  11
ATOM     11  N   UNL     1       2.714  -4.242   0.096  0.00  0.00    -0.219 N 
ATOM     12  H   UNL     1       3.571  -4.690   0.012  0.00  0.00    +0.176 HD
BRANCH  11  14
ATOM     13  C   UNL     1       3.747  -2.144   0.014  0.00  0.00    +0.138 C 
ATOM     14  N   UNL     1       2.655  -2.842   0.111  0.00  0.00    -0.189 NA
BRANCH  13  19
ATOM     15  C   UNL     1      -0.010   1.390   0.052  0.00  0.00    +0.001 A 
ATOM     16  C   UNL     1       1.148   2.107   0.061  0.00  0.00    +0.008 A 
ATOM     17  C   UNL     1       2.382   1.433   0.054  0.00  0.00    -0.017 A 
ATOM     18  C   UNL     1       2.397   0.017   0.038  0.00  0.00    -0.009 A 
ATOM     19  C   UNL     1       3.684  -0.675   0.030  0.00  0.00    +0.002 A 
ATOM     20  C   UNL     1       4.848   0.085   0.040  0.00  0.00    +0.010 A 
ATOM     21  C   UNL     1       4.785   1.472   0.056  0.00  0.00    +0.001 A 
ATOM     22  C   UNL     1       3.598   2.137   0.062  0.00  0.00    +0.008 A 
ATOM     23  C   UNL     1       1.187  -0.687   0.028  0.00  0.00    +0.009 A 
ATOM     24  C   UNL     1       0.008  -0.002   0.036  0.00  0.00    +0.001 A 
ENDBRANCH  13  19
ENDBRANCH  11  14
ENDBRANCH   1  11
BRANCH   4  25
ATOM     25  N   UNL     1      -2.050  -6.965   0.518  0.00  0.00    -0.219 N 
ATOM     26  H   UNL     1      -2.104  -7.934   0.520  0.00  0.00    +0.176 HD
BRANCH  25  27
ATOM     27  N   UNL     1      -3.218  -6.199   0.627  0.00  0.00    -0.189 NA
ATOM     28  C   UNL     1      -4.373  -6.785   0.730  0.00  0.00    +0.138 C 
BRANCH  28  29
ATOM     29  C   UNL     1      -5.599  -5.981   0.844  0.00  0.00    +0.002 A 
ATOM     30  C   UNL     1      -5.550  -4.525   0.720  0.00  0.00    -0.009 A 
ATOM     31  C   UNL     1      -6.754  -3.788   0.836  0.00  0.00    -0.017 A 
ATOM     32  C   UNL     1      -7.962  -4.469   1.066  0.00  0.00    +0.008 A 
ATOM     33  C   UNL     1      -7.983  -5.826   1.178  0.00  0.00    +0.001 A 
ATOM     34  C   UNL     1      -6.829  -6.588   1.067  0.00  0.00    +0.010 A 
ATOM     35  C   UNL     1      -6.716  -2.388   0.717  0.00  0.00    +0.008 A 
ATOM     36  C   UNL     1      -5.527  -1.764   0.493  0.00  0.00    +0.001 A 
ATOM     37  C   UNL     1      -4.345  -2.491   0.380  0.00  0.00    +0.001 A 
ATOM     38  C   UNL     1      -4.346  -3.850   0.489  0.00  0.00    +0.009 A 
ENDBRANCH  28  29
ENDBRANCH  25  27
ENDBRANCH   4  25
TORSDOF 6
