REMARK  Name = ZINC34787400
REMARK  10 active torsions:
REMARK  status: ('A' for Active; 'I' for Inactive)
REMARK    1  A    between atoms: C_1  and  C_2
REMARK    2  A    between atoms: C_2  and  C_3
REMARK    3  A    between atoms: C_4  and  C_38
REMARK    4  A    between atoms: C_8  and  N_19
REMARK    5  A    between atoms: C_13  and  C_18
REMARK    6  A    between atoms: C_15  and  C_17
REMARK    7  A    between atoms: N_19  and  N_20
REMARK    8  A    between atoms: N_19  and  N_27
REMARK    9  A    between atoms: N_20  and  C_21
REMARK   10  A    between atoms: N_27  and  C_28
REMARK                            x       y       z     vdW  Elec       q    Type
REMARK                         _______ _______ _______ _____ _____    ______ ____
ROOT
ATOM      1  N   UNL     1       0.870   0.088  -3.181  0.00  0.00    -0.151 N 
ENDROOT
BRANCH   1   7
ATOM      2  C   UNL     1       3.494   0.215  -1.631  0.00  0.00    -0.025 A 
ATOM      3  C   UNL     1       4.544   0.167  -0.798  0.00  0.00    -0.007 A 
ATOM      4  S   UNL     1       3.921  -0.739   0.605  0.00  0.00    -0.073 S 
ATOM      5  C   UNL     1       2.267  -1.029   0.035  0.00  0.00    +0.116 A 
ATOM      6  C   UNL     1       2.243  -0.406  -1.233  0.00  0.00    +0.054 A 
ATOM      7  C   UNL     1       1.005  -0.484  -1.929  0.00  0.00    +0.170 A 
ATOM      8  N   UNL     1      -0.015  -1.109  -1.365  0.00  0.00    -0.192 NA
ATOM      9  C   UNL     1       0.075  -1.669  -0.167  0.00  0.00    +0.254 A 
ATOM     10  N   UNL     1       1.205  -1.637   0.524  0.00  0.00    -0.203 NA
ATOM     11  N   UNL     1      -1.038  -2.313   0.373  0.00  0.00    -0.202 N 
ATOM     12  C   UNL     1      -1.100  -2.926   1.585  0.00  0.00    +0.045 A 
ATOM     13  C   UNL     1      -2.349  -3.423   1.729  0.00  0.00    +0.048 A 
ATOM     14  C   UNL     1      -3.075  -3.109   0.574  0.00  0.00    +0.061 A 
ATOM     15  N   UNL     1      -2.294  -2.440  -0.235  0.00  0.00    -0.169 NA
ATOM     16  C   UNL     1      -4.513  -3.473   0.310  0.00  0.00    +0.067 C 
ATOM     17  C   UNL     1       0.021  -3.031   2.587  0.00  0.00    +0.066 C 
ATOM     18  C   UNL     1       5.922   0.742  -1.001  0.00  0.00    +0.052 C 
BRANCH   2  20
ATOM     19  C   UNL     1       2.891   2.261  -2.896  0.00  0.00    +0.009 C 
ATOM     20  C   UNL     1       3.609   0.912  -2.963  0.00  0.00    +0.033 C 
ENDBRANCH   2  20
ENDBRANCH   1   7
BRANCH   1  21
ATOM     21  N   UNL     1       1.881  -0.071  -4.136  0.00  0.00    -0.246 N 
ATOM     22  H   UNL     1       2.277   0.708  -4.558  0.00  0.00    +0.172 HD
BRANCH  21  23
ATOM     23  C   UNL     1       2.321  -1.351  -4.482  0.00  0.00    +0.046 A 
ATOM     24  C   UNL     1       1.676  -2.470  -3.970  0.00  0.00    +0.024 A 
ATOM     25  C   UNL     1       2.112  -3.734  -4.315  0.00  0.00    +0.002 A 
ATOM     26  C   UNL     1       3.190  -3.887  -5.168  0.00  0.00    +0.000 A 
ATOM     27  C   UNL     1       3.834  -2.775  -5.679  0.00  0.00    +0.002 A 
ATOM     28  C   UNL     1       3.399  -1.508  -5.343  0.00  0.00    +0.024 A 
ENDBRANCH  21  23
ENDBRANCH   1  21
BRANCH   1  29
ATOM     29  N   UNL     1      -0.279   0.826  -3.493  0.00  0.00    -0.246 N 
ATOM     30  H   UNL     1      -0.909   0.489  -4.149  0.00  0.00    +0.172 HD
BRANCH  29  31
ATOM     31  C   UNL     1      -0.517   2.045  -2.861  0.00  0.00    +0.054 A 
ATOM     32  C   UNL     1      -0.877   2.080  -1.531  0.00  0.00    +0.025 A 
ATOM     33  C   UNL     1      -1.116   3.292  -0.890  0.00  0.00    +0.002 A 
ATOM     34  C   UNL     1      -1.003   4.474  -1.557  0.00  0.00    +0.008 A 
ATOM     35  C   UNL     1      -0.638   4.482  -2.914  0.00  0.00    -0.016 A 
ATOM     36  C   UNL     1      -0.387   3.255  -3.576  0.00  0.00    +0.004 A 
ATOM     37  C   UNL     1      -0.019   3.265  -4.930  0.00  0.00    +0.010 A 
ATOM     38  C   UNL     1       0.097   4.451  -5.589  0.00  0.00    +0.001 A 
ATOM     39  C   UNL     1      -0.145   5.659  -4.938  0.00  0.00    +0.001 A 
ATOM     40  C   UNL     1      -0.514   5.687  -3.628  0.00  0.00    +0.008 A 
ENDBRANCH  29  31
ENDBRANCH   1  29
TORSDOF 6
