REMARK  Name = ZINC02131208
REMARK  7 active torsions:
REMARK  status: ('A' for Active; 'I' for Inactive)
REMARK    1  A    between atoms: C_1  and  C_2
REMARK    2  A    between atoms: C_2  and  C_3
REMARK    3  A    between atoms: C_6  and  C_9
REMARK    4  A    between atoms: N_16  and  C_31
REMARK    5  A    between atoms: C_19  and  C_30
REMARK    6  A    between atoms: C_31  and  C_32
REMARK    7  A    between atoms: C_35  and  C_38
REMARK                            x       y       z     vdW  Elec       q    Type
REMARK                         _______ _______ _______ _____ _____    ______ ____
ROOT
ATOM      1  C   UNL     1       0.655   6.013  -6.156  0.00  0.00    +0.069 C 
ATOM      2  C   UNL     1      -0.067   7.201  -5.511  0.00  0.00    +0.122 C 
ATOM      3  N   UNL     1      -0.082   7.012  -4.049  0.00  0.00    -0.280 N 
ATOM      4  C   UNL     1      -1.250   6.851  -3.421  0.00  0.00    +0.234 C 
ATOM      5  O   UNL     1      -2.266   7.010  -4.063  0.00  0.00    -0.274 OA
ATOM      6  C   UNL     1      -1.385   6.486  -1.978  0.00  0.00    +0.204 C 
ATOM      7  N   UNL     1      -0.095   6.271  -1.344  0.00  0.00    -0.286 N 
ATOM      8  C   UNL     1       1.072   6.505  -1.944  0.00  0.00    +0.246 C 
ATOM      9  O   UNL     1       2.089   6.290  -1.319  0.00  0.00    -0.273 OA
ATOM     10  C   UNL     1       1.200   7.011  -3.343  0.00  0.00    +0.151 C 
ATOM     11  C   UNL     1       2.169   6.163  -4.131  0.00  0.00    +0.054 A 
ATOM     12  C   UNL     1       1.919   5.726  -5.386  0.00  0.00    -0.008 A 
ATOM     13  C   UNL     1       3.074   4.959  -5.804  0.00  0.00    +0.004 A 
ATOM     14  C   UNL     1       3.380   4.275  -6.985  0.00  0.00    +0.010 A 
ATOM     15  C   UNL     1       4.596   3.641  -7.037  0.00  0.00    +0.001 A 
ATOM     16  C   UNL     1       5.488   3.670  -5.977  0.00  0.00    +0.002 A 
ATOM     17  C   UNL     1       5.211   4.339  -4.797  0.00  0.00    +0.026 A 
ATOM     18  C   UNL     1       3.982   4.992  -4.715  0.00  0.00    +0.047 A 
ATOM     19  N   UNL     1       3.401   5.727  -3.723  0.00  0.00    -0.356 N 
ATOM     20  H   UNL     1       3.800   5.913  -2.858  0.00  0.00    +0.166 HD
ATOM     21  C   UNL     1       1.732   8.444  -3.282  0.00  0.00    +0.048 C 
ENDROOT
BRANCH   1  25
ATOM     22  C   UNL     1       1.635   6.963 -10.204  0.00  0.00    -0.048 A 
ATOM     23  C   UNL     1       0.816   5.885  -9.926  0.00  0.00    +0.004 A 
ATOM     24  C   UNL     1       0.499   5.577  -8.616  0.00  0.00    +0.004 A 
ATOM     25  C   UNL     1       1.001   6.348  -7.584  0.00  0.00    -0.038 A 
ATOM     26  C   UNL     1       1.815   7.430  -7.862  0.00  0.00    +0.004 A 
ATOM     27  C   UNL     1       2.137   7.734  -9.172  0.00  0.00    +0.004 A 
BRANCH  22  29
ATOM     28  C   UNL     1       0.940   8.271 -12.193  0.00  0.00    +0.009 C 
ATOM     29  C   UNL     1       1.980   7.299 -11.632  0.00  0.00    +0.032 C 
ENDBRANCH  22  29
ENDBRANCH   1  25
BRANCH   7  30
ATOM     30  C   UNL     1      -0.076   5.774   0.035  0.00  0.00    +0.143 C 
BRANCH  30  31
ATOM     31  C   UNL     1      -0.056   4.267   0.025  0.00  0.00    -0.030 A 
ATOM     32  C   UNL     1       1.151   3.592   0.010  0.00  0.00    +0.005 A 
ATOM     33  C   UNL     1       1.169   2.210   0.003  0.00  0.00    +0.003 A 
ATOM     34  C   UNL     1      -0.018   1.503   0.010  0.00  0.00    -0.050 A 
ATOM     35  C   UNL     1      -1.225   2.178   0.020  0.00  0.00    +0.003 A 
ATOM     36  C   UNL     1      -1.244   3.560   0.032  0.00  0.00    +0.005 A 
ATOM     37  C   UNL     1       0.002  -0.004   0.002  0.00  0.00    +0.044 C 
ENDBRANCH  30  31
ENDBRANCH   7  30
TORSDOF 4
