REMARK  Name = ZINC35774510
REMARK  12 active torsions:
REMARK  status: ('A' for Active; 'I' for Inactive)
REMARK    1  A    between atoms: C_1  and  C_2
REMARK    2  A    between atoms: C_6  and  C_7
REMARK    3  A    between atoms: C_7  and  N_8
REMARK    4  A    between atoms: N_8  and  C_9
REMARK    5  A    between atoms: C_9  and  C_10
REMARK    6  A    between atoms: C_16  and  C_18
REMARK    7  A    between atoms: C_18  and  N_19
REMARK    8  A    between atoms: N_19  and  C_20
REMARK    9  A    between atoms: C_20  and  C_21
REMARK   10  A    between atoms: C_21  and  N_22
REMARK   11  A    between atoms: C_27  and  C_29
REMARK   12  A    between atoms: C_32  and  N_35
REMARK                            x       y       z     vdW  Elec       q    Type
REMARK                         _______ _______ _______ _____ _____    ______ ____
ROOT
ATOM      1  N   UNL     1      -2.831   3.148   1.781  0.00  0.00    -0.290 N 
ATOM      2  C   UNL     1      -3.807   2.996   0.864  0.00  0.00    +0.247 C 
ATOM      3  O   UNL     1      -4.740   3.775   0.835  0.00  0.00    -0.270 OA
ENDROOT
BRANCH   2   4
ATOM      4  C   UNL     1      -3.742   1.883  -0.107  0.00  0.00    +0.037 A 
ATOM      5  C   UNL     1      -3.419   0.596   0.323  0.00  0.00    +0.015 A 
ATOM      6  C   UNL     1      -3.361  -0.439  -0.588  0.00  0.00    +0.033 A 
ATOM      7  C   UNL     1      -3.622  -0.202  -1.926  0.00  0.00    +0.126 A 
ATOM      8  C   UNL     1      -3.943   1.073  -2.359  0.00  0.00    +0.033 A 
ATOM      9  C   UNL     1      -4.011   2.115  -1.457  0.00  0.00    +0.015 A 
BRANCH   7  10
ATOM     10  N   UNL     1      -3.558  -1.316  -2.898  0.00  0.00    +0.056 N 
ATOM     11  O   UNL     1      -3.277  -2.430  -2.522  0.00  0.00    -0.126 OA
ATOM     12  O   UNL     1      -3.786  -1.112  -4.067  0.00  0.00    -0.126 OA
ENDBRANCH   7  10
ENDBRANCH   2   4
BRANCH   1  13
ATOM     13  C   UNL     1      -1.648   2.285   1.741  0.00  0.00    +0.203 C 
BRANCH  13  15
ATOM     14  N   UNL     1      -0.815   0.283   2.933  0.00  0.00    -0.291 N 
ATOM     15  C   UNL     1      -1.833   1.134   2.697  0.00  0.00    +0.234 C 
ATOM     16  O   UNL     1      -2.899   0.974   3.253  0.00  0.00    -0.274 OA
BRANCH  14  17
ATOM     17  C   UNL     1       0.437   0.413   2.183  0.00  0.00    +0.150 C 
BRANCH  17  23
ATOM     18  C   UNL     1       0.917  -2.589   1.744  0.00  0.00    +0.044 C 
ATOM     19  C   UNL     1       0.522  -1.653   0.632  0.00  0.00    -0.039 A 
ATOM     20  C   UNL     1       0.351  -2.125  -0.656  0.00  0.00    +0.011 A 
ATOM     21  C   UNL     1      -0.004  -1.256  -1.633  0.00  0.00    +0.046 A 
ATOM     22  S   UNL     1      -0.110   0.284  -0.738  0.00  0.00    -0.100 S 
ATOM     23  C   UNL     1       0.322  -0.335   0.880  0.00  0.00    +0.010 A 
ENDBRANCH  17  23
ENDBRANCH  14  17
BRANCH  14  24
ATOM     24  C   UNL     1      -0.960  -0.772   3.939  0.00  0.00    +0.143 C 
BRANCH  24  25
ATOM     25  C   UNL     1      -0.505  -0.254   5.279  0.00  0.00    -0.030 A 
ATOM     26  C   UNL     1       0.817  -0.386   5.659  0.00  0.00    +0.005 A 
ATOM     27  C   UNL     1       1.234   0.089   6.888  0.00  0.00    +0.000 A 
ATOM     28  C   UNL     1       0.329   0.697   7.737  0.00  0.00    +0.000 A 
ATOM     29  C   UNL     1      -0.994   0.830   7.357  0.00  0.00    +0.000 A 
ATOM     30  C   UNL     1      -1.410   0.359   6.126  0.00  0.00    +0.005 A 
ENDBRANCH  24  25
ENDBRANCH  14  24
ENDBRANCH  13  15
ENDBRANCH   1  13
BRANCH   1  31
ATOM     31  C   UNL     1      -2.953   4.176   2.817  0.00  0.00    +0.090 C 
BRANCH  31  32
ATOM     32  C   UNL     1      -2.442   5.512   2.273  0.00  0.00    -0.060 C 
BRANCH  32  33
ATOM     33  N   UNL     1      -2.565   6.543   3.312  0.00  0.00    +0.381 N 
ATOM     34  C   UNL     1      -1.608   6.274   4.416  0.00  0.00    -0.079 C 
ATOM     35  C   UNL     1      -1.449   7.658   5.093  0.00  0.00    -0.020 C 
ATOM     36  C   UNL     1      -1.478   8.634   3.894  0.00  0.00    -0.020 C 
ATOM     37  C   UNL     1      -2.189   7.865   2.766  0.00  0.00    -0.079 C 
ATOM     38  H   UNL     1      -3.509   6.569   3.667  0.00  0.00    -0.082 HD
ENDBRANCH  32  33
ENDBRANCH  31  32
ENDBRANCH   1  31
TORSDOF 11
