REMARK  Name = ZINC63853239
REMARK  10 active torsions:
REMARK  status: ('A' for Active; 'I' for Inactive)
REMARK    1  A    between atoms: C_1  and  C_2
REMARK    2  A    between atoms: C_6  and  S_8
REMARK    3  A    between atoms: S_8  and  N_11
REMARK    4  A    between atoms: N_11  and  C_12
REMARK    5  A    between atoms: C_12  and  C_14
REMARK    6  A    between atoms: C_12  and  C_24
REMARK    7  A    between atoms: C_14  and  C_15
REMARK    8  A    between atoms: N_26  and  C_27
REMARK    9  A    between atoms: C_27  and  C_29
REMARK   10  A    between atoms: C_27  and  C_30
REMARK                            x       y       z     vdW  Elec       q    Type
REMARK                         _______ _______ _______ _____ _____    ______ ____
ROOT
ATOM      1  C   UNL     1       2.489  -2.047   3.444  0.00  0.00    +0.166 C 
ENDROOT
BRANCH   1   2
ATOM      2  C   UNL     1       2.503  -1.834   4.936  0.00  0.00    +0.232 C 
ATOM      3  O   UNL     1       2.194  -2.740   5.681  0.00  0.00    -0.274 OA
ATOM      4  N   UNL     1       2.861  -0.638   5.443  0.00  0.00    -0.307 N 
ATOM      5  H   UNL     1       3.108   0.087   4.847  0.00  0.00    +0.149 HD
BRANCH   4   6
ATOM      6  C   UNL     1       2.875  -0.431   6.893  0.00  0.00    +0.100 C 
ATOM      7  C   UNL     1       1.471  -0.049   7.367  0.00  0.00    +0.033 C 
BRANCH   6   8
ATOM      8  C   UNL     1       3.839   0.676   7.233  0.00  0.00    -0.025 A 
ATOM      9  C   UNL     1       3.907   1.802   6.434  0.00  0.00    +0.008 A 
ATOM     10  C   UNL     1       4.791   2.819   6.744  0.00  0.00    +0.041 A 
ATOM     11  C   UNL     1       5.608   2.710   7.856  0.00  0.00    +0.158 A 
ATOM     12  C   UNL     1       5.540   1.581   8.657  0.00  0.00    +0.159 A 
ATOM     13  C   UNL     1       4.650   0.567   8.347  0.00  0.00    +0.046 A 
ATOM     14  F   UNL     1       6.337   1.472   9.743  0.00  0.00    -0.202 F 
ATOM     15  F   UNL     1       6.472   3.703   8.159  0.00  0.00    -0.202 F 
ENDBRANCH   6   8
ENDBRANCH   4   6
ENDBRANCH   1   2
BRANCH   1  16
ATOM     16  N   UNL     1       1.644  -3.200   3.123  0.00  0.00    -0.178 NA
ATOM     17  H   UNL     1       2.014  -4.096   3.154  0.00  0.00    +0.149 HD
BRANCH  16  18
ATOM     18  S   UNL     1       0.057  -2.973   2.709  0.00  0.00    +0.059 S 
ATOM     19  O   UNL     1      -0.500  -2.110   3.691  0.00  0.00    -0.153 OA
ATOM     20  O   UNL     1      -0.479  -4.260   2.433  0.00  0.00    -0.153 OA
BRANCH  18  26
ATOM     21  C   UNL     1      -0.018   1.503   0.010  0.00  0.00    +0.044 C 
ATOM     22  C   UNL     1       0.002  -0.004   0.002  0.00  0.00    -0.049 A 
ATOM     23  C   UNL     1       0.006  -0.689  -1.199  0.00  0.00    +0.003 A 
ATOM     24  C   UNL     1       0.025  -2.071  -1.207  0.00  0.00    +0.002 A 
ATOM     25  C   UNL     1       0.040  -2.768  -0.013  0.00  0.00    +0.028 A 
ATOM     26  C   UNL     1       0.037  -2.084   1.188  0.00  0.00    +0.106 A 
ATOM     27  C   UNL     1       0.023  -0.702   1.195  0.00  0.00    +0.032 A 
ENDBRANCH  18  26
ENDBRANCH  16  18
ENDBRANCH   1  16
BRANCH   1  28
ATOM     28  C   UNL     1       3.914  -2.307   2.952  0.00  0.00    +0.063 C 
BRANCH  28  29
ATOM     29  C   UNL     1       3.917  -2.397   1.448  0.00  0.00    -0.040 C 
ATOM     30  C   UNL     1       4.189  -1.401   0.574  0.00  0.00    -0.001 A 
ATOM     31  C   UNL     1       4.548   0.011   0.755  0.00  0.00    +0.010 A 
ATOM     32  C   UNL     1       4.764   0.778  -0.338  0.00  0.00    +0.001 A 
ATOM     33  C   UNL     1       4.654   0.260  -1.635  0.00  0.00    +0.002 A 
ATOM     34  C   UNL     1       4.328  -1.026  -1.882  0.00  0.00    +0.026 A 
ATOM     35  C   UNL     1       4.080  -1.924  -0.807  0.00  0.00    +0.043 A 
ATOM     36  N   UNL     1       3.753  -3.193  -0.788  0.00  0.00    -0.380 N 
ATOM     37  C   UNL     1       3.624  -3.622   0.610  0.00  0.00    +0.144 C 
ATOM     38  H   UNL     1       3.623  -3.756  -1.567  0.00  0.00    +0.160 HD
ENDBRANCH  28  29
ENDBRANCH   1  28
TORSDOF 8
