REMARK  Name = ZINC12635716
REMARK  15 active torsions:
REMARK  status: ('A' for Active; 'I' for Inactive)
REMARK    1  A    between atoms: C_1  and  C_2
REMARK    2  A    between atoms: C_2  and  N_72
REMARK    3  A    between atoms: C_6  and  C_8
REMARK    4  A    between atoms: C_8  and  N_9
REMARK    5  A    between atoms: N_9  and  C_10
REMARK    6  A    between atoms: N_9  and  C_25
REMARK    7  A    between atoms: C_10  and  C_11
REMARK    8  A    between atoms: C_16  and  C_24
REMARK    9  A    between atoms: C_17  and  C_23
REMARK   10  A    between atoms: C_25  and  N_27
REMARK   11  A    between atoms: N_27  and  C_28
REMARK   12  A    between atoms: C_31  and  O_36
REMARK   13  A    between atoms: C_33  and  O_34
REMARK   14  A    between atoms: O_34  and  C_35
REMARK   15  A    between atoms: O_36  and  C_37
REMARK                            x       y       z     vdW  Elec       q    Type
REMARK                         _______ _______ _______ _____ _____    ______ ____
ROOT
ATOM      1  N   UNL     1      -2.687   0.960  -0.545  0.00  0.00    -0.309 N 
ENDROOT
BRANCH   1   2
ATOM      2  C   UNL     1      -3.389   1.897  -1.212  0.00  0.00    +0.137 C 
ATOM      3  S   UNL     1      -3.802   3.368  -0.441  0.00  0.00    -0.018 S 
BRANCH   2   4
ATOM      4  N   UNL     1      -3.766   1.675  -2.487  0.00  0.00    -0.294 N 
ATOM      5  H   UNL     1      -3.598   0.814  -2.900  0.00  0.00    +0.154 HD
BRANCH   4   6
ATOM      6  C   UNL     1      -4.402   2.691  -3.217  0.00  0.00    +0.075 A 
ATOM      7  C   UNL     1      -5.451   3.401  -2.651  0.00  0.00    +0.030 A 
ATOM      8  C   UNL     1      -6.074   4.404  -3.369  0.00  0.00    +0.047 A 
ATOM      9  C   UNL     1      -5.659   4.698  -4.659  0.00  0.00    +0.124 A 
ATOM     10  C   UNL     1      -4.614   3.988  -5.231  0.00  0.00    +0.093 A 
ATOM     11  C   UNL     1      -3.984   2.985  -4.513  0.00  0.00    +0.145 A 
BRANCH  11  12
ATOM     12  O   UNL     1      -2.959   2.287  -5.072  0.00  0.00    -0.493 OA
ATOM     13  C   UNL     1      -2.584   2.642  -6.405  0.00  0.00    +0.277 C 
ENDBRANCH  11  12
BRANCH   9  14
ATOM     14  O   UNL     1      -6.277   5.682  -5.364  0.00  0.00    -0.495 OA
ATOM     15  C   UNL     1      -7.346   6.373  -4.714  0.00  0.00    +0.277 C 
ENDBRANCH   9  14
ENDBRANCH   4   6
ENDBRANCH   2   4
ENDBRANCH   1   2
BRANCH   1  16
ATOM     16  C   UNL     1      -2.334  -0.300  -1.205  0.00  0.00    +0.092 C 
BRANCH  16  20
ATOM     17  C   UNL     1      -3.991  -2.905   0.751  0.00  0.00    -0.078 C 
ATOM     18  C   UNL     1      -3.889  -3.659  -0.591  0.00  0.00    -0.020 C 
ATOM     19  C   UNL     1      -2.988  -2.730  -1.446  0.00  0.00    -0.016 C 
ATOM     20  C   UNL     1      -3.442  -1.328  -0.969  0.00  0.00    -0.051 C 
ATOM     21  N   UNL     1      -3.679  -1.493   0.479  0.00  0.00    +0.382 N 
ATOM     22  H   UNL     1      -2.832  -1.227   0.994  0.00  0.00    -0.081 HD
BRANCH  21  24
ATOM     23  C   UNL     1      -5.096  -0.881   2.396  0.00  0.00    -0.017 C 
ATOM     24  C   UNL     1      -4.804  -0.625   0.916  0.00  0.00    -0.082 C 
ENDBRANCH  21  24
ENDBRANCH  16  20
ENDBRANCH   1  16
BRANCH   1  25
ATOM     25  C   UNL     1      -2.278   1.200   0.841  0.00  0.00    +0.147 C 
BRANCH  25  26
ATOM     26  C   UNL     1      -0.925   1.863   0.857  0.00  0.00    +0.035 A 
ATOM     27  C   UNL     1      -0.835   3.214   0.942  0.00  0.00    +0.020 A 
ATOM     28  C   UNL     1       0.494   3.828   0.948  0.00  0.00    -0.001 A 
ATOM     29  C   UNL     1       0.649   5.216   1.027  0.00  0.00    +0.010 A 
ATOM     30  C   UNL     1       1.903   5.758   1.031  0.00  0.00    +0.004 A 
ATOM     31  C   UNL     1       3.025   4.943   0.958  0.00  0.00    -0.046 A 
ATOM     32  C   UNL     1       2.896   3.573   0.879  0.00  0.00    -0.024 A 
ATOM     33  C   UNL     1       1.629   2.999   0.873  0.00  0.00    +0.052 A 
ATOM     34  N   UNL     1       1.470   1.632   0.795  0.00  0.00    -0.322 N 
ATOM     35  H   UNL     1       2.253   1.062   0.743  0.00  0.00    +0.169 HD
ATOM     36  C   UNL     1       0.245   1.077   0.789  0.00  0.00    +0.254 A 
ATOM     37  O   UNL     1       0.142  -0.136   0.718  0.00  0.00    -0.268 OA
ATOM     38  C   UNL     1       4.122   2.701   0.800  0.00  0.00    +0.046 C 
ATOM     39  C   UNL     1       4.399   5.563   0.964  0.00  0.00    +0.044 C 
ENDBRANCH  25  26
ENDBRANCH   1  25
TORSDOF 10
