REMARK  Name = ZINC21348306
REMARK  10 active torsions:
REMARK  status: ('A' for Active; 'I' for Inactive)
REMARK    1  A    between atoms: C_1  and  C_2
REMARK    2  A    between atoms: C_2  and  C_3
REMARK    3  A    between atoms: C_2  and  C_4
REMARK    4  A    between atoms: C_4  and  N_5
REMARK    5  A    between atoms: C_7  and  N_16
REMARK    6  A    between atoms: N_19  and  C_20
REMARK    7  A    between atoms: C_20  and  C_21
REMARK    8  A    between atoms: C_21  and  C_22
REMARK    9  A    between atoms: C_22  and  N_23
REMARK   10  A    between atoms: N_26  and  C_29
REMARK                            x       y       z     vdW  Elec       q    Type
REMARK                         _______ _______ _______ _____ _____    ______ ____
ROOT
ATOM      1  N   UNL     1      -1.680  -4.408  -2.751  0.00  0.00    -0.268 N 
ATOM      2  C   UNL     1      -2.653  -3.596  -3.209  0.00  0.00    +0.304 C 
ATOM      3  O   UNL     1      -2.531  -2.390  -3.121  0.00  0.00    -0.253 OA
ATOM      4  N   UNL     1      -3.763  -4.123  -3.766  0.00  0.00    -0.299 N 
ATOM      5  H   UNL     1      -1.751  -5.494  -2.906  0.00  0.00    +0.156 HD
ATOM      6  H   UNL     1      -3.873  -5.214  -3.845  0.00  0.00    +0.150 HD
ENDROOT
BRANCH   1   9
ATOM      7  N   UNL     1       1.777  -3.538  -1.929  0.00  0.00    -0.313 N 
ATOM      8  C   UNL     1       0.672  -4.049  -2.554  0.00  0.00    +0.113 A 
ATOM      9  C   UNL     1      -0.575  -3.866  -2.076  0.00  0.00    +0.059 A 
ATOM     10  C   UNL     1      -0.765  -3.094  -0.843  0.00  0.00    +0.010 A 
ATOM     11  C   UNL     1      -2.030  -2.870  -0.299  0.00  0.00    +0.010 A 
ATOM     12  C   UNL     1      -2.149  -2.144   0.853  0.00  0.00    +0.001 A 
ATOM     13  C   UNL     1      -1.027  -1.625   1.488  0.00  0.00    +0.001 A 
ATOM     14  C   UNL     1       0.225  -1.828   0.977  0.00  0.00    +0.014 A 
ATOM     15  C   UNL     1       0.376  -2.567  -0.197  0.00  0.00    +0.048 A 
ATOM     16  C   UNL     1       1.693  -2.822  -0.790  0.00  0.00    +0.259 A 
ATOM     17  O   UNL     1       2.701  -2.388  -0.261  0.00  0.00    -0.267 OA
BRANCH   7  18
ATOM     18  C   UNL     1       3.098  -3.783  -2.514  0.00  0.00    +0.128 C 
BRANCH  18  20
ATOM     19  C   UNL     1       4.758  -2.976  -4.198  0.00  0.00    +0.009 C 
ATOM     20  C   UNL     1       3.437  -2.658  -3.494  0.00  0.00    +0.003 C 
ATOM     21  C   UNL     1       3.571  -1.339  -2.731  0.00  0.00    +0.009 C 
ENDBRANCH  18  20
ENDBRANCH   7  18
ENDBRANCH   1   9
BRANCH   4  22
ATOM     22  C   UNL     1      -4.821  -3.241  -4.264  0.00  0.00    +0.107 C 
BRANCH  22  23
ATOM     23  C   UNL     1      -5.958  -4.086  -4.842  0.00  0.00    +0.034 C 
BRANCH  23  24
ATOM     24  C   UNL     1      -7.064  -3.165  -5.362  0.00  0.00    +0.086 C 
BRANCH  24  25
ATOM     25  N   UNL     1      -8.156  -3.976  -5.917  0.00  0.00    -0.306 NA
ATOM     26  C   UNL     1      -7.716  -4.701  -7.117  0.00  0.00    +0.066 C 
ATOM     27  C   UNL     1      -8.855  -5.593  -7.617  0.00  0.00    -0.063 C 
ATOM     28  N   UNL     1     -10.032  -4.763  -7.909  0.00  0.00    +0.383 N 
ATOM     29  C   UNL     1     -10.472  -4.037  -6.709  0.00  0.00    -0.063 C 
ATOM     30  C   UNL     1      -9.333  -3.145  -6.209  0.00  0.00    +0.066 C 
ATOM     31  H   UNL     1      -9.744  -4.021  -8.668  0.00  0.00    -0.081 HD
BRANCH  28  32
ATOM     32  C   UNL     1     -11.124  -5.574  -8.463  0.00  0.00    -0.068 C 
ATOM     33  C   UNL     1     -11.502  -6.670  -7.466  0.00  0.00    -0.015 C 
ATOM     34  C   UNL     1     -12.640  -7.515  -8.043  0.00  0.00    -0.002 C 
ATOM     35  C   UNL     1     -12.184  -8.155  -9.356  0.00  0.00    -0.000 C 
ATOM     36  C   UNL     1     -11.805  -7.058 -10.354  0.00  0.00    -0.002 C 
ATOM     37  C   UNL     1     -10.668  -6.214  -9.776  0.00  0.00    -0.015 C 
ENDBRANCH  28  32
ENDBRANCH  24  25
ENDBRANCH  23  24
ENDBRANCH  22  23
ENDBRANCH   4  22
TORSDOF 8
