REMARK  Name = ZINC06144756
REMARK  8 active torsions:
REMARK  status: ('A' for Active; 'I' for Inactive)
REMARK    1  A    between atoms: C_1  and  C_2
REMARK    2  A    between atoms: C_3  and  C_35
REMARK    3  A    between atoms: C_5  and  N_27
REMARK    4  A    between atoms: C_6  and  C_7
REMARK    5  A    between atoms: C_7  and  C_9
REMARK    6  A    between atoms: C_7  and  N_63
REMARK    7  A    between atoms: N_18  and  C_21
REMARK    8  A    between atoms: C_28  and  C_30
REMARK                            x       y       z     vdW  Elec       q    Type
REMARK                         _______ _______ _______ _____ _____    ______ ____
ROOT
ATOM      1  C   UNL     1      -0.847   2.016  -1.093  0.00  0.00    -0.004 C 
ENDROOT
BRANCH   1   7
ATOM      2  C   UNL     1      -0.131   3.087  -3.707  0.00  0.00    +0.045 C 
ATOM      3  C   UNL     1      -0.470   4.013  -2.568  0.00  0.00    -0.037 A 
ATOM      4  C   UNL     1      -0.448   5.356  -2.745  0.00  0.00    -0.008 A 
ATOM      5  S   UNL     1      -0.915   5.954  -1.129  0.00  0.00    -0.078 S 
ATOM      6  C   UNL     1      -1.116   4.373  -0.323  0.00  0.00    +0.074 A 
ATOM      7  C   UNL     1      -0.810   3.505  -1.328  0.00  0.00    -0.025 A 
ATOM      8  C   UNL     1      -0.113   6.143  -3.986  0.00  0.00    +0.052 C 
BRANCH   6   9
ATOM      9  N   UNL     1      -1.488   4.098   0.994  0.00  0.00    -0.273 N 
ATOM     10  C   UNL     1      -1.869   5.101   1.810  0.00  0.00    +0.284 C 
ATOM     11  O   UNL     1      -1.888   6.247   1.398  0.00  0.00    -0.266 OA
ATOM     12  H   UNL     1      -1.473   3.186   1.322  0.00  0.00    +0.156 HD
BRANCH  10  13
ATOM     13  C   UNL     1      -2.260   4.813   3.193  0.00  0.00    +0.189 A 
ATOM     14  C   UNL     1      -2.664   5.730   4.121  0.00  0.00    +0.054 A 
ATOM     15  C   UNL     1      -2.938   5.018   5.299  0.00  0.00    +0.042 A 
ATOM     16  C   UNL     1      -2.692   3.715   5.043  0.00  0.00    +0.196 A 
ATOM     17  O   UNL     1      -2.289   3.594   3.771  0.00  0.00    -0.458 OA
ENDBRANCH  10  13
ENDBRANCH   6   9
ENDBRANCH   1   7
BRANCH   1  18
ATOM     18  C   UNL     1      -2.277   1.543  -1.095  0.00  0.00    -0.056 A 
ATOM     19  C   UNL     1      -3.022   1.588   0.069  0.00  0.00    +0.005 A 
ATOM     20  C   UNL     1      -4.335   1.159   0.066  0.00  0.00    +0.038 A 
ATOM     21  C   UNL     1      -4.902   0.673  -1.100  0.00  0.00    +0.123 A 
ATOM     22  C   UNL     1      -4.154   0.623  -2.264  0.00  0.00    +0.038 A 
ATOM     23  C   UNL     1      -2.842   1.058  -2.260  0.00  0.00    +0.005 A 
ATOM     24  F   UNL     1      -6.185   0.248  -1.101  0.00  0.00    -0.205 F 
ENDBRANCH   1  18
BRANCH   1  30
ATOM     25  C   UNL     1       1.138   2.238   0.277  0.00  0.00    -0.058 C 
ATOM     26  C   UNL     1       1.714   1.969   1.669  0.00  0.00    +0.086 C 
ATOM     27  N   UNL     1       1.695   0.523   1.933  0.00  0.00    -0.333 N 
ATOM     28  C   UNL     1       0.326  -0.005   1.861  0.00  0.00    +0.086 C 
ATOM     29  C   UNL     1      -0.250   0.264   0.469  0.00  0.00    -0.058 C 
ATOM     30  N   UNL     1      -0.246   1.722   0.226  0.00  0.00    +0.389 N 
ATOM     31  H   UNL     1      -0.802   2.184   0.956  0.00  0.00    -0.080 HD
BRANCH  27  32
ATOM     32  C   UNL     1       2.280   0.232   3.167  0.00  0.00    +0.030 A 
ATOM     33  C   UNL     1       1.563  -0.467   4.130  0.00  0.00    +0.023 A 
ATOM     34  C   UNL     1       2.146  -0.758   5.348  0.00  0.00    +0.002 A 
ATOM     35  C   UNL     1       3.438  -0.344   5.613  0.00  0.00    +0.000 A 
ATOM     36  C   UNL     1       4.153   0.357   4.659  0.00  0.00    +0.002 A 
ATOM     37  C   UNL     1       3.578   0.646   3.438  0.00  0.00    +0.023 A 
ENDBRANCH  27  32
ENDBRANCH   1  30
TORSDOF 6
