REMARK  Name = ZINC21177866
REMARK  5 active torsions:
REMARK  status: ('A' for Active; 'I' for Inactive)
REMARK    1  A    between atoms: C_6  and  N_7
REMARK    2  A    between atoms: C_9  and  C_12
REMARK    3  A    between atoms: N_14  and  C_15
REMARK    4  A    between atoms: C_15  and  C_16
REMARK    5  A    between atoms: C_16  and  C_17
REMARK                            x       y       z     vdW  Elec       q    Type
REMARK                         _______ _______ _______ _____ _____    ______ ____
ROOT
ATOM      1  C   UNL     1      -0.268   1.258  -2.409  0.00  0.00    +0.266 C 
ATOM      2  O   UNL     1       0.729   0.574  -2.534  0.00  0.00    -0.268 OA
ATOM      3  N   UNL     1      -0.721   1.571  -1.179  0.00  0.00    -0.310 N 
ATOM      4  H   UNL     1      -1.623   2.191  -1.066  0.00  0.00    +0.149 HD
ENDROOT
BRANCH   1   7
ATOM      5  N   UNL     1      -1.539   2.127  -5.678  0.00  0.00    -0.219 N 
ATOM      6  C   UNL     1      -0.628   1.502  -4.901  0.00  0.00    +0.149 A 
ATOM      7  C   UNL     1      -0.982   1.747  -3.604  0.00  0.00    +0.167 A 
ATOM      8  N   UNL     1      -2.093   2.503  -3.601  0.00  0.00    -0.124 NA
ATOM      9  N   UNL     1      -2.448   2.753  -4.813  0.00  0.00    -0.060 NA
BRANCH   5  15
ATOM     10  C   UNL     1      -0.591   1.481  -7.806  0.00  0.00    +0.030 A 
ATOM     11  C   UNL     1      -0.625   1.498  -9.187  0.00  0.00    +0.040 A 
ATOM     12  C   UNL     1      -1.629   2.186  -9.847  0.00  0.00    +0.124 A 
ATOM     13  C   UNL     1      -2.603   2.855  -9.125  0.00  0.00    +0.040 A 
ATOM     14  C   UNL     1      -2.575   2.836  -7.744  0.00  0.00    +0.030 A 
ATOM     15  C   UNL     1      -1.569   2.147  -7.081  0.00  0.00    +0.067 A 
ATOM     16  F   UNL     1      -1.658   2.205 -11.198  0.00  0.00    -0.205 F 
ENDBRANCH   5  15
ENDBRANCH   1   7
BRANCH   3  17
ATOM     17  C   UNL     1      -0.013   1.086   0.008  0.00  0.00    +0.109 C 
BRANCH  17  18
ATOM     18  C   UNL     1      -0.729   1.579   1.267  0.00  0.00    +0.056 C 
BRANCH  18  19
ATOM     19  C   UNL     1       0.000   1.080   2.488  0.00  0.00    -0.021 A 
ATOM     20  C   UNL     1      -0.285  -0.028   3.190  0.00  0.00    +0.087 A 
ATOM     21  N   UNL     1       0.592  -0.158   4.232  0.00  0.00    -0.360 N 
ATOM     22  H   UNL     1       0.508  -1.014   4.918  0.00  0.00    +0.165 HD
ATOM     23  C   UNL     1       1.487   0.890   4.225  0.00  0.00    +0.047 A 
ATOM     24  C   UNL     1       1.158   1.708   3.129  0.00  0.00    +0.006 A 
ATOM     25  C   UNL     1       1.900   2.863   2.873  0.00  0.00    +0.048 A 
ATOM     26  C   UNL     1       2.958   3.189   3.693  0.00  0.00    +0.124 A 
ATOM     27  C   UNL     1       3.285   2.377   4.773  0.00  0.00    +0.040 A 
ATOM     28  C   UNL     1       2.559   1.237   5.040  0.00  0.00    +0.029 A 
ATOM     29  F   UNL     1       3.682   4.302   3.446  0.00  0.00    -0.205 F 
ENDBRANCH  18  19
ENDBRANCH  17  18
ENDBRANCH   3  17
TORSDOF 5
