REMARK  Name = ZINC22608234
REMARK  4 active torsions:
REMARK  status: ('A' for Active; 'I' for Inactive)
REMARK    1  A    between atoms: C_1  and  C_2
REMARK    2  A    between atoms: C_7  and  C_8
REMARK    3  A    between atoms: C_13  and  C_18
REMARK    4  A    between atoms: C_23  and  C_25
REMARK                            x       y       z     vdW  Elec       q    Type
REMARK                         _______ _______ _______ _____ _____    ______ ____
ROOT
ATOM      1  C   UNL     1       2.548   3.675  -0.444  0.00  0.00    +0.176 C 
ATOM      2  C   UNL     1       3.477   3.330   0.699  0.00  0.00    +0.041 C 
ATOM      3  C   UNL     1       4.478   2.434   0.565  0.00  0.00    +0.020 C 
ATOM      4  C   UNL     1       5.378   2.097   1.731  0.00  0.00    +0.055 C 
ATOM      5  C   UNL     1       5.526   3.321   2.637  0.00  0.00    -0.001 C 
ATOM      6  C   UNL     1       4.131   3.735   3.119  0.00  0.00    +0.083 C 
ATOM      7  C   UNL     1       3.257   3.988   1.923  0.00  0.00    +0.163 C 
ATOM      8  O   UNL     1       2.339   4.780   2.014  0.00  0.00    -0.292 OA
ATOM      9  C   UNL     1       6.403   2.969   3.840  0.00  0.00    +0.008 C 
ATOM     10  N   UNL     1       4.726   1.797  -0.627  0.00  0.00    -0.287 N 
ATOM     11  C   UNL     1       4.122   2.294  -1.770  0.00  0.00    +0.219 A 
ATOM     12  N   UNL     1       3.099   3.182  -1.700  0.00  0.00    -0.221 N 
ATOM     13  N   UNL     1       2.739   3.475  -3.015  0.00  0.00    -0.153 NA
ATOM     14  C   UNL     1       3.529   2.772  -3.789  0.00  0.00    +0.150 A 
ATOM     15  N   UNL     1       4.364   2.056  -3.029  0.00  0.00    -0.198 NA
ATOM     16  C   UNL     1       3.500   2.770  -5.295  0.00  0.00    +0.090 C 
ATOM     17  H   UNL     1       5.387   0.918  -0.653  0.00  0.00    +0.155 HD
ENDROOT
BRANCH   1  24
ATOM     18  C   UNL     1       0.162   5.303  -0.448  0.00  0.00    +0.044 C 
ATOM     19  C   UNL     1       0.061   3.819  -0.206  0.00  0.00    -0.045 A 
ATOM     20  C   UNL     1      -1.173   3.237   0.013  0.00  0.00    +0.004 A 
ATOM     21  C   UNL     1      -1.266   1.875   0.230  0.00  0.00    +0.000 A 
ATOM     22  C   UNL     1      -0.123   1.097   0.237  0.00  0.00    +0.000 A 
ATOM     23  C   UNL     1       1.111   1.679   0.017  0.00  0.00    +0.006 A 
ATOM     24  C   UNL     1       1.203   3.041  -0.205  0.00  0.00    -0.016 A 
ENDBRANCH   1  24
TORSDOF 1
