REMARK  Name = ZINC08644938
REMARK  8 active torsions:
REMARK  status: ('A' for Active; 'I' for Inactive)
REMARK    1  A    between atoms: C_3  and  O_27
REMARK    2  A    between atoms: C_6  and  N_7
REMARK    3  A    between atoms: C_8  and  C_10
REMARK    4  A    between atoms: C_10  and  S_11
REMARK    5  A    between atoms: S_11  and  C_12
REMARK    6  A    between atoms: C_15  and  C_18
REMARK    7  A    between atoms: N_16  and  N_17
REMARK    8  A    between atoms: O_27  and  C_28
REMARK                            x       y       z     vdW  Elec       q    Type
REMARK                         _______ _______ _______ _____ _____    ______ ____
ROOT
ATOM      1  S   UNL     1      -2.769  -6.995   0.539  0.00  0.00    -0.075 S 
ENDROOT
BRANCH   1   2
ATOM      2  C   UNL     1      -2.436  -8.725   0.520  0.00  0.00    +0.209 A 
ATOM      3  N   UNL     1      -1.266  -9.291   0.332  0.00  0.00    -0.121 NA
ATOM      4  N   UNL     1      -1.381 -10.570   0.382  0.00  0.00    -0.127 NA
ATOM      5  C   UNL     1      -2.633 -10.899   0.598  0.00  0.00    +0.183 A 
ATOM      6  N   UNL     1      -3.348  -9.727   0.694  0.00  0.00    -0.224 N 
BRANCH   5   7
ATOM      7  C   UNL     1      -3.174 -12.270   0.718  0.00  0.00    +0.039 A 
ATOM      8  C   UNL     1      -4.333 -12.628   0.028  0.00  0.00    +0.014 A 
ATOM      9  C   UNL     1      -4.830 -13.910   0.139  0.00  0.00    +0.021 A 
ATOM     10  C   UNL     1      -4.188 -14.838   0.941  0.00  0.00    +0.042 A 
ATOM     11  C   UNL     1      -3.040 -14.488   1.632  0.00  0.00    +0.040 A 
ATOM     12  C   UNL     1      -2.530 -13.210   1.525  0.00  0.00    +0.053 A 
ATOM     13 CL   UNL     1      -1.092 -12.771   2.393  0.00  0.00    -0.083 Cl
ATOM     14 CL   UNL     1      -4.823 -16.448   1.080  0.00  0.00    -0.083 Cl
ENDBRANCH   5   7
BRANCH   6  15
ATOM     15  N   UNL     1      -4.689  -9.594   0.914  0.00  0.00    -0.295 N 
ATOM     16  H   UNL     1      -5.207  -9.663   0.051  0.00  0.00    +0.163 HD
ATOM     17  H   UNL     1      -5.014 -10.273   1.586  0.00  0.00    +0.163 HD
ENDBRANCH   6  15
ENDBRANCH   1   2
BRANCH   1  18
ATOM     18  C   UNL     1      -1.103  -6.351   0.248  0.00  0.00    +0.173 C 
BRANCH  18  20
ATOM     19  N   UNL     1      -0.010  -4.143   0.019  0.00  0.00    -0.285 N 
ATOM     20  C   UNL     1      -1.143  -4.845   0.223  0.00  0.00    +0.227 C 
ATOM     21  O   UNL     1      -2.195  -4.263   0.386  0.00  0.00    -0.275 OA
ATOM     22  H   UNL     1       0.817  -4.607  -0.185  0.00  0.00    +0.155 HD
BRANCH  19  28
ATOM     23  C   UNL     1      -0.884  -2.113   0.994  0.00  0.00    +0.027 A 
ATOM     24  C   UNL     1      -0.901  -0.734   1.076  0.00  0.00    +0.049 A 
ATOM     25  C   UNL     1      -0.063   0.020   0.267  0.00  0.00    +0.145 A 
ATOM     26  C   UNL     1       0.790  -0.611  -0.628  0.00  0.00    +0.084 A 
ATOM     27  C   UNL     1       0.811  -1.990  -0.707  0.00  0.00    +0.047 A 
ATOM     28  C   UNL     1      -0.028  -2.745   0.102  0.00  0.00    +0.035 A 
ATOM     29 CL   UNL     1       1.833   0.333  -1.646  0.00  0.00    -0.080 Cl
BRANCH  25  30
ATOM     30  O   UNL     1      -0.082   1.377   0.348  0.00  0.00    -0.433 OA
BRANCH  30  31
ATOM     31  C   UNL     1      -0.988   1.959   1.287  0.00  0.00    +0.541 C 
ATOM     32  F   UNL     1      -2.297   1.584   0.966  0.00  0.00    -0.166 F 
ATOM     33  F   UNL     1      -0.677   1.510   2.575  0.00  0.00    -0.166 F 
ENDBRANCH  30  31
ENDBRANCH  25  30
ENDBRANCH  19  28
ENDBRANCH  18  20
ENDBRANCH   1  18
TORSDOF 8
