REMARK  Name = ZINC02417086
REMARK  12 active torsions:
REMARK  status: ('A' for Active; 'I' for Inactive)
REMARK    1  A    between atoms: C_1  and  C_2
REMARK    2  A    between atoms: C_2  and  C_4
REMARK    3  A    between atoms: C_2  and  N_12
REMARK    4  A    between atoms: C_4  and  C_5
REMARK    5  A    between atoms: C_5  and  C_6
REMARK    6  A    between atoms: C_13  and  C_15
REMARK    7  A    between atoms: N_26  and  C_29
REMARK    8  A    between atoms: C_27  and  N_28
REMARK    9  A    between atoms: C_32  and  O_37
REMARK   10  A    between atoms: C_33  and  O_35
REMARK   11  A    between atoms: O_35  and  C_36
REMARK   12  A    between atoms: O_37  and  C_38
REMARK                            x       y       z     vdW  Elec       q    Type
REMARK                         _______ _______ _______ _____ _____    ______ ____
ROOT
ATOM      1  C   UNL     1       0.950  -2.140  -0.018  0.00  0.00    +0.104 A 
ATOM      2  C   UNL     1       1.288  -0.707  -0.014  0.00  0.00    +0.123 A 
ATOM      3  C   UNL     1       0.002  -0.004   0.002  0.00  0.00    +0.166 A 
ATOM      4  N   UNL     1      -0.016   1.312   0.009  0.00  0.00    -0.225 NA
ATOM      5  C   UNL     1       1.136   1.994   0.002  0.00  0.00    +0.092 A 
ATOM      6  C   UNL     1       1.126   3.402   0.009  0.00  0.00    +0.030 A 
ATOM      7  C   UNL     1       2.301   4.087   0.001  0.00  0.00    +0.002 A 
ATOM      8  C   UNL     1       3.523   3.416  -0.014  0.00  0.00    +0.002 A 
ATOM      9  C   UNL     1       3.573   2.057  -0.022  0.00  0.00    +0.030 A 
ATOM     10  C   UNL     1       2.378   1.312  -0.014  0.00  0.00    +0.090 A 
ATOM     11  N   UNL     1       2.416  -0.026  -0.022  0.00  0.00    -0.241 NA
ATOM     12  N   UNL     1      -0.986  -0.970   0.007  0.00  0.00    -0.280 N 
ATOM     13  C   UNL     1      -0.439  -2.218  -0.005  0.00  0.00    +0.117 A 
ENDROOT
BRANCH  12  14
ATOM     14  C   UNL     1      -2.362  -0.703   0.022  0.00  0.00    +0.053 A 
ATOM     15  C   UNL     1      -2.958  -0.065  -1.058  0.00  0.00    +0.030 A 
ATOM     16  C   UNL     1      -4.314   0.199  -1.045  0.00  0.00    +0.051 A 
ATOM     17  C   UNL     1      -5.083  -0.172   0.047  0.00  0.00    +0.162 A 
ATOM     18  C   UNL     1      -4.489  -0.810   1.132  0.00  0.00    +0.163 A 
ATOM     19  C   UNL     1      -3.130  -1.080   1.115  0.00  0.00    +0.075 A 
BRANCH  18  20
ATOM     20  O   UNL     1      -5.242  -1.174   2.204  0.00  0.00    -0.491 OA
ATOM     21  C   UNL     1      -4.566  -1.825   3.281  0.00  0.00    +0.277 C 
ENDBRANCH  18  20
BRANCH  17  22
ATOM     22  O   UNL     1      -6.418   0.088   0.059  0.00  0.00    -0.491 OA
ATOM     23  C   UNL     1      -6.961   0.746  -1.088  0.00  0.00    +0.277 C 
ENDBRANCH  17  22
ENDBRANCH  12  14
BRANCH   1  25
ATOM     24  N   UNL     1       2.309  -3.770  -1.207  0.00  0.00    -0.309 N 
ATOM     25  C   UNL     1       1.888  -3.260  -0.033  0.00  0.00    +0.250 C 
ATOM     26  O   UNL     1       2.289  -3.732   1.015  0.00  0.00    -0.270 OA
ATOM     27  H   UNL     1       1.990  -3.394  -2.042  0.00  0.00    +0.149 HD
BRANCH  24  29
ATOM     28  C   UNL     1       2.478  -6.208  -1.095  0.00  0.00    +0.028 C 
ATOM     29  C   UNL     1       3.250  -4.893  -1.222  0.00  0.00    +0.070 C 
BRANCH  29  30
ATOM     30  C   UNL     1       4.032  -4.886  -2.537  0.00  0.00    +0.026 C 
BRANCH  30  31
ATOM     31  C   UNL     1       4.901  -3.628  -2.606  0.00  0.00    +0.037 C 
BRANCH  31  32
ATOM     32  C   UNL     1       5.672  -3.621  -3.902  0.00  0.00    -0.047 A 
ATOM     33  C   UNL     1       6.924  -4.203  -3.964  0.00  0.00    +0.003 A 
ATOM     34  C   UNL     1       7.628  -4.201  -5.154  0.00  0.00    +0.000 A 
ATOM     35  C   UNL     1       7.085  -3.608  -6.278  0.00  0.00    +0.000 A 
ATOM     36  C   UNL     1       5.835  -3.021  -6.214  0.00  0.00    +0.000 A 
ATOM     37  C   UNL     1       5.128  -3.027  -5.026  0.00  0.00    +0.003 A 
ENDBRANCH  31  32
ENDBRANCH  30  31
ENDBRANCH  29  30
ENDBRANCH  24  29
ENDBRANCH   1  25
BRANCH  13  38
ATOM     38  N   UNL     1      -1.156  -3.386  -0.004  0.00  0.00    -0.343 N 
ATOM     39  H   UNL     1      -0.695  -4.239  -0.012  0.00  0.00    +0.144 HD
ATOM     40  H   UNL     1      -2.126  -3.360   0.005  0.00  0.00    +0.144 HD
ENDBRANCH  13  38
TORSDOF 9
