REMARK  Name = ZINC38517516
REMARK  9 active torsions:
REMARK  status: ('A' for Active; 'I' for Inactive)
REMARK    1  A    between atoms: C_1  and  N_2
REMARK    2  A    between atoms: C_10  and  C_12
REMARK    3  A    between atoms: C_12  and  C_14
REMARK    4  A    between atoms: C_12  and  N_30
REMARK    5  A    between atoms: C_14  and  N_15
REMARK    6  A    between atoms: N_18  and  C_19
REMARK    7  A    between atoms: C_19  and  C_20
REMARK    8  A    between atoms: N_30  and  C_31
REMARK    9  A    between atoms: N_30  and  C_32
REMARK                            x       y       z     vdW  Elec       q    Type
REMARK                         _______ _______ _______ _____ _____    ______ ____
ROOT
ATOM      1  C   UNL     1       5.603  -3.075   0.556  0.00  0.00    +0.095 C 
ENDROOT
BRANCH   1   2
ATOM      2  N   UNL     1       4.829  -3.892   1.495  0.00  0.00    -0.301 N 
ATOM      3  C   UNL     1       5.388  -4.303   2.650  0.00  0.00    +0.300 C 
ATOM      4  O   UNL     1       6.535  -3.996   2.913  0.00  0.00    -0.253 OA
ATOM      5  N   UNL     1       4.676  -5.054   3.513  0.00  0.00    -0.295 N 
ATOM      6  H   UNL     1       3.914  -4.136   1.285  0.00  0.00    +0.150 HD
ATOM      7  H   UNL     1       3.761  -5.298   3.303  0.00  0.00    +0.151 HD
BRANCH   5   8
ATOM      8  C   UNL     1       5.284  -5.501   4.769  0.00  0.00    +0.141 C 
BRANCH   8   9
ATOM      9  C   UNL     1       4.285  -6.318   5.548  0.00  0.00    -0.023 A 
ATOM     10  C   UNL     1       3.588  -5.753   6.571  0.00  0.00    +0.006 A 
ATOM     11  C   UNL     1       2.661  -6.493   7.302  0.00  0.00    +0.001 A 
ATOM     12  C   UNL     1       2.426  -7.802   7.014  0.00  0.00    +0.008 A 
ATOM     13  C   UNL     1       3.126  -8.420   5.965  0.00  0.00    -0.018 A 
ATOM     14  C   UNL     1       4.065  -7.666   5.217  0.00  0.00    -0.013 A 
ATOM     15  C   UNL     1       4.761  -8.283   4.164  0.00  0.00    +0.009 A 
ATOM     16  C   UNL     1       4.522  -9.590   3.872  0.00  0.00    +0.001 A 
ATOM     17  C   UNL     1       3.594 -10.330   4.603  0.00  0.00    +0.001 A 
ATOM     18  C   UNL     1       2.911  -9.770   5.639  0.00  0.00    +0.008 A 
ENDBRANCH   8   9
ENDBRANCH   5   8
ENDBRANCH   1   2
BRANCH   1  19
ATOM     19  C   UNL     1       4.767  -2.810  -0.698  0.00  0.00    -0.021 C 
BRANCH  19  29
ATOM     20  C   UNL     1       0.361   1.627   1.167  0.00  0.00    +0.129 C 
ATOM     21  N   UNL     1       0.199   0.249   0.697  0.00  0.00    -0.333 N 
ATOM     22  C   UNL     1      -1.139  -0.347   0.577  0.00  0.00    +0.105 C 
ATOM     23  C   UNL     1      -1.078  -1.761   1.169  0.00  0.00    +0.024 C 
ATOM     24  C   UNL     1      -0.112  -2.604   0.336  0.00  0.00    +0.038 C 
ATOM     25  C   UNL     1       1.206  -1.893   0.177  0.00  0.00    -0.026 A 
ATOM     26  C   UNL     1       1.315  -0.520   0.350  0.00  0.00    +0.033 A 
ATOM     27  C   UNL     1       2.545   0.108   0.185  0.00  0.00    +0.023 A 
ATOM     28  C   UNL     1       3.659  -0.633  -0.154  0.00  0.00    +0.004 A 
ATOM     29  C   UNL     1       3.551  -2.001  -0.329  0.00  0.00    -0.059 A 
ATOM     30  C   UNL     1       2.329  -2.630  -0.156  0.00  0.00    +0.007 A 
ENDBRANCH  19  29
BRANCH  19  31
ATOM     31  N   UNL     1       5.573  -2.066  -1.675  0.00  0.00    +0.382 N 
ATOM     32  C   UNL     1       6.813  -2.804  -1.951  0.00  0.00    -0.096 C 
ATOM     33  C   UNL     1       4.810  -1.907  -2.920  0.00  0.00    -0.096 C 
ATOM     34  H   UNL     1       5.799  -1.156  -1.301  0.00  0.00    -0.082 HD
ENDBRANCH  19  31
ENDBRANCH   1  19
TORSDOF 6
