REMARK  Name = ZINC38677350
REMARK  6 active torsions:
REMARK  status: ('A' for Active; 'I' for Inactive)
REMARK    1  A    between atoms: C_1  and  N_2
REMARK    2  A    between atoms: C_6  and  C_7
REMARK    3  A    between atoms: C_7  and  C_9
REMARK    4  A    between atoms: C_7  and  N_24
REMARK    5  A    between atoms: C_9  and  N_10
REMARK    6  A    between atoms: C_11  and  C_13
REMARK                            x       y       z     vdW  Elec       q    Type
REMARK                         _______ _______ _______ _____ _____    ______ ____
ROOT
ATOM      1  C   UNL     1       0.026  -0.396   2.518  0.00  0.00    -0.003 C 
ENDROOT
BRANCH   1   2
ATOM      2  N   UNL     1       0.173  -1.747   3.073  0.00  0.00    +0.386 N 
ATOM      3  C   UNL     1       0.009  -1.677   4.538  0.00  0.00    -0.078 C 
ATOM      4  C   UNL     1      -0.442  -3.030   5.029  0.00  0.00    -0.019 C 
ATOM      5  C   UNL     1       0.748  -3.875   5.524  0.00  0.00    -0.002 C 
ATOM      6  C   UNL     1       1.977  -3.725   4.605  0.00  0.00    -0.002 C 
ATOM      7  C   UNL     1       1.604  -3.720   3.144  0.00  0.00    -0.019 C 
ATOM      8  C   UNL     1       1.410  -2.261   2.679  0.00  0.00    -0.078 C 
ATOM      9  H   UNL     1      -0.556  -2.333   2.695  0.00  0.00    -0.081 HD
ENDBRANCH   1   2
BRANCH   1  15
ATOM     10  C   UNL     1      -0.037   1.991   0.539  0.00  0.00    +0.148 C 
ATOM     11  N   UNL     1      -0.115   0.579   0.158  0.00  0.00    -0.355 N 
ATOM     12  C   UNL     1      -0.221   0.105  -1.116  0.00  0.00    +0.085 A 
ATOM     13  C   UNL     1      -0.267  -1.242  -1.063  0.00  0.00    +0.019 A 
ATOM     14  C   UNL     1      -0.186  -1.613   0.294  0.00  0.00    +0.021 A 
ATOM     15  C   UNL     1      -0.088  -0.479   1.017  0.00  0.00    +0.006 A 
ENDBRANCH   1  15
BRANCH   1  16
ATOM     16  C   UNL     1       1.250   0.445   2.889  0.00  0.00    +0.095 C 
BRANCH  16  17
ATOM     17  N   UNL     1       1.318   0.591   4.346  0.00  0.00    -0.313 N 
ATOM     18  C   UNL     1       2.391   1.174   4.915  0.00  0.00    +0.257 C 
ATOM     19  O   UNL     1       3.301   1.578   4.222  0.00  0.00    -0.272 OA
ATOM     20  H   UNL     1       0.590   0.268   4.900  0.00  0.00    +0.149 HD
BRANCH  18  21
ATOM     21  C   UNL     1       2.460   1.325   6.413  0.00  0.00    +0.296 C 
ATOM     22  C   UNL     1       2.540  -0.060   7.069  0.00  0.00    +0.283 C 
ATOM     23  O   UNL     1       2.619   0.120   8.488  0.00  0.00    -0.484 OA
ATOM     24  C   UNL     1       3.498   1.056   8.937  0.00  0.00    +0.162 A 
ATOM     25  C   UNL     1       3.893   1.037  10.267  0.00  0.00    +0.049 A 
ATOM     26  C   UNL     1       4.782   1.983  10.739  0.00  0.00    +0.004 A 
ATOM     27  C   UNL     1       5.282   2.951   9.888  0.00  0.00    +0.004 A 
ATOM     28  C   UNL     1       4.894   2.975   8.562  0.00  0.00    +0.049 A 
ATOM     29  C   UNL     1       4.002   2.028   8.081  0.00  0.00    +0.163 A 
ATOM     30  O   UNL     1       3.636   2.060   6.770  0.00  0.00    -0.473 OA
ENDBRANCH  18  21
ENDBRANCH  16  17
ENDBRANCH   1  16
TORSDOF 5
