REMARK  Name = ZINC08846720
REMARK  7 active torsions:
REMARK  status: ('A' for Active; 'I' for Inactive)
REMARK    1  A    between atoms: C_1  and  C_2
REMARK    2  A    between atoms: C_3  and  C_14
REMARK    3  A    between atoms: N_5  and  C_7
REMARK    4  A    between atoms: C_19  and  C_29
REMARK    5  A    between atoms: C_21  and  C_25
REMARK    6  A    between atoms: C_25  and  O_27
REMARK    7  A    between atoms: O_27  and  C_28
REMARK                            x       y       z     vdW  Elec       q    Type
REMARK                         _______ _______ _______ _____ _____    ______ ____
ROOT
ATOM      1  C   UNL     1      -0.072  -0.035   0.038  0.00  0.00    +0.141 C 
ATOM      2  C   UNL     1      -0.715   1.302   0.326  0.00  0.00    +0.037 C 
ATOM      3  C   UNL     1      -0.084   2.485   0.379  0.00  0.00    +0.017 C 
ATOM      4  C   UNL     1      -0.870   3.763   0.632  0.00  0.00    +0.055 C 
ATOM      5  C   UNL     1      -2.046   3.472   1.563  0.00  0.00    +0.013 C 
ATOM      6  C   UNL     1      -2.939   2.432   0.876  0.00  0.00    +0.171 C 
ATOM      7  C   UNL     1      -2.109   1.225   0.557  0.00  0.00    +0.177 C 
ATOM      8  O   UNL     1      -2.654   0.141   0.493  0.00  0.00    -0.291 OA
ATOM      9  C   UNL     1      -2.840   4.756   1.811  0.00  0.00    +0.009 C 
ATOM     10  N   UNL     1       1.250   2.670   0.208  0.00  0.00    -0.316 N 
ATOM     11  C   UNL     1       2.002   2.113  -0.822  0.00  0.00    +0.052 A 
ATOM     12  C   UNL     1       2.655   2.888  -1.764  0.00  0.00    +0.025 A 
ATOM     13  C   UNL     1       3.450   2.272  -2.716  0.00  0.00    +0.002 A 
ATOM     14  C   UNL     1       3.587   0.896  -2.724  0.00  0.00    +0.002 A 
ATOM     15  C   UNL     1       2.916   0.119  -1.796  0.00  0.00    +0.025 A 
ATOM     16  C   UNL     1       2.105   0.731  -0.852  0.00  0.00    +0.049 A 
ATOM     17  N   UNL     1       1.375  -0.016   0.069  0.00  0.00    -0.331 N 
ATOM     18  H   UNL     1       1.713   3.230   0.851  0.00  0.00    +0.152 HD
ATOM     19  H   UNL     1       1.845  -0.534   0.742  0.00  0.00    +0.147 HD
ENDROOT
BRANCH   1  22
ATOM     20  C   UNL     1       0.521  -2.865  -1.253  0.00  0.00    +0.068 C 
ATOM     21  C   UNL     1      -0.255  -1.746  -1.898  0.00  0.00    +0.067 A 
ATOM     22  C   UNL     1      -0.516  -0.496  -1.326  0.00  0.00    +0.037 A 
ATOM     23  C   UNL     1      -1.243   0.225  -2.213  0.00  0.00    +0.138 A 
ATOM     24  N   UNL     1      -1.428  -0.546  -3.315  0.00  0.00    -0.221 N 
ATOM     25  N   UNL     1      -0.800  -1.778  -3.087  0.00  0.00    -0.170 NA
ATOM     26 CL   UNL     1      -1.829   1.843  -1.984  0.00  0.00    -0.062 Cl
BRANCH  24  27
ATOM     27  C   UNL     1      -2.128  -0.178  -4.473  0.00  0.00    +0.067 A 
ATOM     28  C   UNL     1      -3.249   0.635  -4.379  0.00  0.00    +0.028 A 
ATOM     29  C   UNL     1      -3.933   1.000  -5.522  0.00  0.00    +0.002 A 
ATOM     30  C   UNL     1      -3.509   0.548  -6.758  0.00  0.00    +0.000 A 
ATOM     31  C   UNL     1      -2.396  -0.267  -6.854  0.00  0.00    +0.002 A 
ATOM     32  C   UNL     1      -1.704  -0.631  -5.715  0.00  0.00    +0.028 A 
ENDBRANCH  24  27
ENDBRANCH   1  22
BRANCH   6  33
ATOM     33  C   UNL     1      -4.066   2.045   1.799  0.00  0.00    +0.318 C 
ATOM     34  O   UNL     1      -4.149   2.548   2.894  0.00  0.00    -0.250 OA
BRANCH  33  35
ATOM     35  O   UNL     1      -4.977   1.142   1.403  0.00  0.00    -0.467 OA
ATOM     36  C   UNL     1      -6.034   0.818   2.344  0.00  0.00    +0.280 C 
ENDBRANCH  33  35
ENDBRANCH   6  33
TORSDOF 4
