REMARK  Name = ZINC33810317
REMARK  10 active torsions:
REMARK  status: ('A' for Active; 'I' for Inactive)
REMARK    1  A    between atoms: C_1  and  C_2
REMARK    2  A    between atoms: C_2  and  O_3
REMARK    3  A    between atoms: O_3  and  C_4
REMARK    4  A    between atoms: C_6  and  C_11
REMARK    5  A    between atoms: C_9  and  O_10
REMARK    6  A    between atoms: C_16  and  S_20
REMARK    7  A    between atoms: S_20  and  C_21
REMARK    8  A    between atoms: C_21  and  C_22
REMARK    9  A    between atoms: C_30  and  C_32
REMARK   10  A    between atoms: C_30  and  C_33
REMARK                            x       y       z     vdW  Elec       q    Type
REMARK                         _______ _______ _______ _____ _____    ______ ____
ROOT
ATOM      1  C   UNL     1       3.686  -0.710  -0.054  0.00  0.00    +0.093 C 
ATOM      2  C   UNL     1       2.382   0.031  -0.025  0.00  0.00    +0.069 A 
ATOM      3  C   UNL     1       2.350   1.391  -0.013  0.00  0.00    +0.135 A 
ATOM      4  N   UNL     1       1.140   2.034   0.002  0.00  0.00    -0.208 NA
ATOM      5  C   UNL     1      -0.016   1.313   0.009  0.00  0.00    +0.171 A 
ATOM      6  N   UNL     1       0.002  -0.004   0.002  0.00  0.00    -0.302 N 
ATOM      7  C   UNL     1       1.162  -0.679  -0.014  0.00  0.00    +0.258 A 
ATOM      8  O   UNL     1       1.162  -1.901  -0.018  0.00  0.00    -0.267 OA
ATOM      9  N   UNL     1       3.522   2.111  -0.016  0.00  0.00    -0.302 N 
ATOM     10  C   UNL     1       4.703   1.524   0.351  0.00  0.00    +0.017 C 
ATOM     11  C   UNL     1       4.831   0.180   0.357  0.00  0.00    +0.024 C 
ATOM     12  C   UNL     1       6.036  -0.430   0.746  0.00  0.00    +0.162 C 
ATOM     13  O   UNL     1       6.122  -1.642   0.731  0.00  0.00    -0.292 OA
ATOM     14  C   UNL     1       7.221   0.388   1.181  0.00  0.00    +0.086 C 
ATOM     15  C   UNL     1       6.722   1.704   1.788  0.00  0.00    -0.023 C 
ATOM     16  C   UNL     1       5.852   2.417   0.750  0.00  0.00    +0.058 C 
ATOM     17  C   UNL     1       5.892   1.411   3.040  0.00  0.00    +0.011 C 
ATOM     18  C   UNL     1       7.916   2.588   2.152  0.00  0.00    +0.011 C 
ATOM     19  H   UNL     1       3.517   3.169  -0.316  0.00  0.00    +0.153 HD
ATOM     20  H   UNL     1      -0.943  -0.567   0.009  0.00  0.00    +0.171 HD
ENDROOT
BRANCH   1  23
ATOM     21  C   UNL     1       4.297  -3.043  -2.962  0.00  0.00    +0.162 A 
ATOM     22  C   UNL     1       4.074  -2.574  -1.677  0.00  0.00    +0.054 A 
ATOM     23  C   UNL     1       3.934  -1.218  -1.451  0.00  0.00    -0.032 A 
ATOM     24  C   UNL     1       4.026  -0.325  -2.503  0.00  0.00    +0.008 A 
ATOM     25  C   UNL     1       4.255  -0.786  -3.786  0.00  0.00    +0.049 A 
ATOM     26  C   UNL     1       4.391  -2.145  -4.021  0.00  0.00    +0.158 A 
BRANCH  26  27
ATOM     27  O   UNL     1       4.616  -2.599  -5.282  0.00  0.00    -0.503 OA
ATOM     28  H   UNL     1       4.689  -1.888  -6.118  0.00  0.00    +0.292 HD
ENDBRANCH  26  27
BRANCH  21  29
ATOM     29  O   UNL     1       4.431  -4.378  -3.187  0.00  0.00    -0.489 OA
BRANCH  29  31
ATOM     30  C   UNL     1       4.498  -6.693  -2.499  0.00  0.00    +0.048 C 
ATOM     31  C   UNL     1       4.323  -5.240  -2.053  0.00  0.00    +0.226 C 
ENDBRANCH  29  31
ENDBRANCH  21  29
ENDBRANCH   1  23
BRANCH   5  32
ATOM     32  S   UNL     1      -1.562   2.157   0.021  0.00  0.00    -0.084 S 
BRANCH  32  33
ATOM     33  C   UNL     1      -2.692   0.744   0.019  0.00  0.00    +0.104 C 
BRANCH  33  34
ATOM     34  C   UNL     1      -4.116   1.238   0.028  0.00  0.00    -0.023 C 
ATOM     35  C   UNL     1      -4.897   1.006  -0.998  0.00  0.00    +0.005 C 
ENDBRANCH  33  34
ENDBRANCH  32  33
ENDBRANCH   5  32
TORSDOF 7
