REMARK  Name = ZINC13123278
REMARK  3 active torsions:
REMARK  status: ('A' for Active; 'I' for Inactive)
REMARK    1  A    between atoms: C_1  and  C_2
REMARK    2  A    between atoms: C_4  and  C_21
REMARK    3  A    between atoms: C_12  and  C_14
REMARK                            x       y       z     vdW  Elec       q    Type
REMARK                         _______ _______ _______ _____ _____    ______ ____
ROOT
ATOM      1  C   UNL     1      -0.013   1.086   0.008  0.00  0.00    +0.061 C 
ATOM      2  C   UNL     1      -0.742   1.585  -1.213  0.00  0.00    +0.022 C 
ATOM      3  C   UNL     1      -0.877   3.068  -1.413  0.00  0.00    +0.082 C 
ATOM      4  C   UNL     1      -0.877   3.430  -2.902  0.00  0.00    +0.146 C 
ATOM      5  N   UNL     1      -1.703   2.449  -3.606  0.00  0.00    -0.220 N 
ATOM      6  C   UNL     1      -1.837   1.164  -3.178  0.00  0.00    +0.251 A 
ATOM      7  N   UNL     1      -2.620   0.542  -4.023  0.00  0.00    -0.176 NA
ATOM      8  C   UNL     1      -3.007   1.389  -4.984  0.00  0.00    +0.243 A 
ATOM      9  N   UNL     1      -2.467   2.571  -4.762  0.00  0.00    -0.131 NA
ATOM     10  N   UNL     1      -3.849   1.071  -6.053  0.00  0.00    -0.249 N 
ATOM     11  C   UNL     1      -4.341  -0.177  -6.175  0.00  0.00    +0.250 C 
ATOM     12  O   UNL     1      -4.053  -1.027  -5.355  0.00  0.00    -0.270 OA
ATOM     13  N   UNL     1      -1.218   0.719  -2.046  0.00  0.00    -0.220 NA
ATOM     14  H   UNL     1      -4.079   1.750  -6.707  0.00  0.00    +0.158 HD
ENDROOT
BRANCH   4  15
ATOM     15  C   UNL     1       0.532   3.388  -3.436  0.00  0.00    -0.023 A 
ATOM     16  C   UNL     1       1.254   2.211  -3.388  0.00  0.00    +0.007 A 
ATOM     17  C   UNL     1       2.546   2.172  -3.877  0.00  0.00    +0.020 A 
ATOM     18  C   UNL     1       3.116   3.312  -4.416  0.00  0.00    +0.041 A 
ATOM     19  C   UNL     1       2.392   4.490  -4.465  0.00  0.00    +0.020 A 
ATOM     20  C   UNL     1       1.098   4.526  -3.980  0.00  0.00    +0.007 A 
ATOM     21 CL   UNL     1       4.739   3.264  -5.031  0.00  0.00    -0.084 Cl
ENDBRANCH   4  15
BRANCH  11  22
ATOM     22  C   UNL     1      -5.232  -0.513  -7.306  0.00  0.00    +0.037 A 
ATOM     23  C   UNL     1      -5.560   0.459  -8.252  0.00  0.00    +0.013 A 
ATOM     24  C   UNL     1      -6.392   0.138  -9.305  0.00  0.00    +0.001 A 
ATOM     25  C   UNL     1      -6.900  -1.143  -9.424  0.00  0.00    +0.000 A 
ATOM     26  C   UNL     1      -6.579  -2.111  -8.489  0.00  0.00    +0.001 A 
ATOM     27  C   UNL     1      -5.744  -1.806  -7.435  0.00  0.00    +0.013 A 
ENDBRANCH  11  22
TORSDOF 2
