REMARK  Name = ZINC23293719
REMARK  4 active torsions:
REMARK  status: ('A' for Active; 'I' for Inactive)
REMARK    1  A    between atoms: C_1  and  C_2
REMARK    2  A    between atoms: C_2  and  C_16
REMARK    3  A    between atoms: N_5  and  C_9
REMARK    4  A    between atoms: C_9  and  C_10
REMARK                            x       y       z     vdW  Elec       q    Type
REMARK                         _______ _______ _______ _____ _____    ______ ____
ROOT
ATOM      1  C   UNL     1       4.105   2.490  -1.458  0.00  0.00    +0.047 C 
ATOM      2  C   UNL     1       3.675   2.178  -0.023  0.00  0.00    +0.135 C 
ATOM      3  C   UNL     1       3.541   3.453   0.786  0.00  0.00    +0.251 C 
ATOM      4  O   UNL     1       2.786   4.378   0.575  0.00  0.00    -0.272 OA
ATOM      5  N   UNL     1       4.436   3.346   1.787  0.00  0.00    -0.219 N 
ATOM      6  C   UNL     1       5.111   2.192   1.724  0.00  0.00    +0.310 C 
ATOM      7  O   UNL     1       5.971   1.869   2.519  0.00  0.00    -0.252 OA
ATOM      8  N   UNL     1       4.730   1.430   0.683  0.00  0.00    -0.281 N 
ATOM      9  H   UNL     1       5.045   0.443   0.314  0.00  0.00    +0.152 HD
ENDROOT
BRANCH   2  10
ATOM     10  C   UNL     1       2.381   1.406  -0.014  0.00  0.00    -0.012 A 
ATOM     11  C   UNL     1       1.175   2.082   0.002  0.00  0.00    +0.010 A 
ATOM     12  C   UNL     1      -0.017   1.380   0.010  0.00  0.00    +0.050 A 
ATOM     13  C   UNL     1       0.002  -0.004   0.002  0.00  0.00    +0.162 A 
ATOM     14  C   UNL     1       1.212  -0.683  -0.013  0.00  0.00    +0.162 A 
ATOM     15  C   UNL     1       2.403   0.023  -0.021  0.00  0.00    +0.055 A 
ATOM     16  O   UNL     1       1.220  -2.047  -0.019  0.00  0.00    -0.488 OA
ATOM     17  C   UNL     1       0.758  -2.681   1.175  0.00  0.00    +0.232 C 
ATOM     18  C   UNL     1      -0.758  -2.801   1.171  0.00  0.00    +0.082 C 
ATOM     19  C   UNL     1      -1.446  -1.445   1.201  0.00  0.00    +0.232 C 
ATOM     20  O   UNL     1      -1.167  -0.709   0.008  0.00  0.00    -0.488 OA
ENDBRANCH   2  10
BRANCH   5  21
ATOM     21  C   UNL     1       4.645   4.366   2.817  0.00  0.00    +0.160 C 
BRANCH  21  22
ATOM     22  C   UNL     1       5.702   5.337   2.357  0.00  0.00    +0.009 A 
ATOM     23  C   UNL     1       5.556   6.486   1.653  0.00  0.00    +0.014 A 
ATOM     24  C   UNL     1       6.681   7.226   1.338  0.00  0.00    +0.028 A 
ATOM     25  C   UNL     1       7.896   6.780   1.743  0.00  0.00    +0.078 A 
ATOM     26  S   UNL     1       7.469   5.275   2.603  0.00  0.00    -0.080 S 
ATOM     27 CL   UNL     1       9.460   7.492   1.496  0.00  0.00    -0.076 Cl
ENDBRANCH  21  22
ENDBRANCH   5  21
TORSDOF 3
