REMARK  Name = ZINC16043580
REMARK  8 active torsions:
REMARK  status: ('A' for Active; 'I' for Inactive)
REMARK    1  A    between atoms: C_9  and  O_11
REMARK    2  A    between atoms: O_11  and  C_12
REMARK    3  A    between atoms: C_12  and  C_13
REMARK    4  A    between atoms: C_16  and  C_19
REMARK    5  A    between atoms: N_21  and  N_22
REMARK    6  A    between atoms: N_22  and  C_23
REMARK    7  A    between atoms: C_23  and  N_25
REMARK    8  A    between atoms: N_25  and  C_26
REMARK                            x       y       z     vdW  Elec       q    Type
REMARK                         _______ _______ _______ _____ _____    ______ ____
ROOT
ATOM      1  C   UNL     1       4.956   3.716  -0.022  0.00  0.00    -0.010 A 
ATOM      2  C   UNL     1       5.498   4.132  -1.225  0.00  0.00    +0.008 A 
ATOM      3  C   UNL     1       6.541   5.035  -1.239  0.00  0.00    +0.013 A 
ATOM      4  C   UNL     1       7.056   5.521  -0.036  0.00  0.00    +0.038 A 
ATOM      5  C   UNL     1       6.508   5.093   1.174  0.00  0.00    +0.013 A 
ATOM      6  C   UNL     1       5.462   4.194   1.174  0.00  0.00    +0.008 A 
ENDROOT
BRANCH   4   7
ATOM      7  C   UNL     1       8.178   6.483  -0.044  0.00  0.00    +0.260 C 
ATOM      8  O   UNL     1       8.625   6.904   1.005  0.00  0.00    -0.269 OA
ATOM      9  N   UNL     1       8.705   6.895  -1.214  0.00  0.00    -0.231 N 
ATOM     10  H   UNL     1       8.348   6.559  -2.052  0.00  0.00    +0.173 HD
BRANCH   9  11
ATOM     11  N   UNL     1       9.768   7.807  -1.222  0.00  0.00    -0.246 N 
ATOM     12  H   UNL     1      10.125   8.143  -0.385  0.00  0.00    +0.172 HD
BRANCH  11  13
ATOM     13  C   UNL     1      10.295   8.218  -2.392  0.00  0.00    +0.147 C 
ATOM     14  S   UNL     1      11.594   9.333  -2.401  0.00  0.00    -0.017 S 
BRANCH  13  15
ATOM     15  N   UNL     1       9.800   7.752  -3.555  0.00  0.00    -0.322 N 
ATOM     16  H   UNL     1       9.063   7.120  -3.550  0.00  0.00    +0.148 HD
BRANCH  15  17
ATOM     17  C   UNL     1      10.372   8.199  -4.828  0.00  0.00    +0.075 C 
ATOM     18  C   UNL     1      10.041   7.191  -5.952  0.00  0.00    +0.026 C 
ATOM     19  C   UNL     1       9.206   8.010  -6.982  0.00  0.00    -0.009 C 
ATOM     20  C   UNL     1       7.844   8.265  -6.267  0.00  0.00    +0.004 C 
ATOM     21  C   UNL     1       8.175   9.273  -5.143  0.00  0.00    +0.005 C 
ATOM     22  C   UNL     1       9.706   9.532  -5.285  0.00  0.00    +0.010 C 
ATOM     23  C   UNL     1       9.876   9.422  -6.841  0.00  0.00    +0.009 C 
ENDBRANCH  15  17
ENDBRANCH  13  15
ENDBRANCH  11  13
ENDBRANCH   9  11
ENDBRANCH   4   7
BRANCH   1  24
ATOM     24  C   UNL     1       3.814   2.733  -0.014  0.00  0.00    +0.264 C 
BRANCH  24  25
ATOM     25  O   UNL     1       2.574   3.443  -0.047  0.00  0.00    -0.485 OA
BRANCH  25  34
ATOM     26  C   UNL     1       0.354   0.558  -0.009  0.00  0.00    +0.004 A 
ATOM     27  C   UNL     1      -0.879   1.135  -0.045  0.00  0.00    +0.010 A 
ATOM     28  C   UNL     1      -0.994   2.534  -0.075  0.00  0.00    +0.004 A 
ATOM     29  C   UNL     1      -2.251   3.166  -0.107  0.00  0.00    +0.011 A 
ATOM     30  C   UNL     1      -2.285   4.531  -0.140  0.00  0.00    +0.020 A 
ATOM     31  C   UNL     1      -1.096   5.256  -0.141  0.00  0.00    +0.111 A 
ATOM     32  N   UNL     1       0.073   4.664  -0.110  0.00  0.00    -0.251 NA
ATOM     33  C   UNL     1       0.177   3.332  -0.077  0.00  0.00    +0.112 A 
ATOM     34  C   UNL     1       1.437   2.700  -0.045  0.00  0.00    +0.147 A 
ATOM     35  C   UNL     1       1.508   1.337  -0.011  0.00  0.00    +0.048 A 
ENDBRANCH  25  34
ENDBRANCH  24  25
ENDBRANCH   1  24
TORSDOF 8
