REMARK  Name = ZINC15709018
REMARK  7 active torsions:
REMARK  status: ('A' for Active; 'I' for Inactive)
REMARK    1  A    between atoms: C_1  and  C_2
REMARK    2  A    between atoms: C_4  and  C_8
REMARK    3  A    between atoms: C_5  and  C_7
REMARK    4  A    between atoms: N_10  and  N_11
REMARK    5  A    between atoms: C_12  and  C_14
REMARK    6  A    between atoms: C_14  and  S_15
REMARK    7  A    between atoms: S_15  and  C_16
REMARK                            x       y       z     vdW  Elec       q    Type
REMARK                         _______ _______ _______ _____ _____    ______ ____
ROOT
ATOM      1  N   UNL     1       1.193   1.683  -0.000  0.00  0.00    -0.233 N 
ATOM      2  C   UNL     1       2.369   1.025  -0.015  0.00  0.00    +0.239 C 
ATOM      3  O   UNL     1       2.385  -0.188  -0.022  0.00  0.00    -0.273 OA
ATOM      4  H   UNL     1       1.179   2.653   0.005  0.00  0.00    +0.173 HD
ENDROOT
BRANCH   1   7
ATOM      5  C   UNL     1      -1.187   1.624   0.017  0.00  0.00    +0.263 C 
ATOM      6  O   UNL     1      -1.204   2.840   0.023  0.00  0.00    -0.269 OA
ATOM      7  N   UNL     1      -0.011   0.966   0.007  0.00  0.00    -0.230 N 
ATOM      8  H   UNL     1       0.002  -0.004   0.002  0.00  0.00    +0.173 HD
BRANCH   5  12
ATOM      9  C   UNL     1      -4.599  -2.169   0.011  0.00  0.00    +0.086 C 
ATOM     10  C   UNL     1      -3.941  -0.814   0.015  0.00  0.00    +0.103 A 
ATOM     11  C   UNL     1      -2.618  -0.591   0.005  0.00  0.00    +0.057 A 
ATOM     12  C   UNL     1      -2.454   0.870   0.018  0.00  0.00    +0.079 A 
ATOM     13  C   UNL     1      -3.718   1.381   0.027  0.00  0.00    +0.114 A 
ATOM     14  O   UNL     1      -4.585   0.364   0.025  0.00  0.00    -0.464 OA
ATOM     15  C   UNL     1      -4.077   2.845   0.038  0.00  0.00    +0.087 C 
ENDBRANCH   5  12
ENDBRANCH   1   7
BRANCH   2  16
ATOM     16  C   UNL     1       3.663   1.796  -0.023  0.00  0.00    +0.173 C 
BRANCH  16  17
ATOM     17  S   UNL     1       5.055   0.639  -0.043  0.00  0.00    -0.089 S 
BRANCH  17  18
ATOM     18  C   UNL     1       6.400   1.777  -0.050  0.00  0.00    +0.136 A 
ATOM     19  N   UNL     1       7.690   1.528  -0.063  0.00  0.00    -0.233 NA
ATOM     20  C   UNL     1       8.618   2.511  -0.068  0.00  0.00    +0.079 A 
ATOM     21  C   UNL     1      10.026   2.381  -0.082  0.00  0.00    +0.029 A 
ATOM     22  C   UNL     1      10.831   3.491  -0.086  0.00  0.00    +0.002 A 
ATOM     23  C   UNL     1      10.300   4.772  -0.074  0.00  0.00    +0.001 A 
ATOM     24  C   UNL     1       8.926   4.935  -0.059  0.00  0.00    +0.017 A 
ATOM     25  C   UNL     1       8.113   3.831  -0.056  0.00  0.00    +0.040 A 
ATOM     26  S   UNL     1       6.356   3.564  -0.047  0.00  0.00    -0.061 S 
ENDBRANCH  17  18
ENDBRANCH  16  17
ENDBRANCH   2  16
TORSDOF 5
