REMARK  Name = ZINC17440308
REMARK  8 active torsions:
REMARK  status: ('A' for Active; 'I' for Inactive)
REMARK    1  A    between atoms: C_1  and  C_2
REMARK    2  A    between atoms: C_2  and  C_3
REMARK    3  A    between atoms: C_3  and  C_4
REMARK    4  A    between atoms: C_8  and  N_21
REMARK    5  A    between atoms: C_9  and  C_13
REMARK    6  A    between atoms: C_13  and  C_15
REMARK    7  A    between atoms: C_23  and  C_26
REMARK    8  A    between atoms: C_23  and  C_27
REMARK                            x       y       z     vdW  Elec       q    Type
REMARK                         _______ _______ _______ _____ _____    ______ ____
ROOT
ATOM      1  C   UNL     1      -1.299  -2.045  -0.004  0.00  0.00    +0.051 A 
ATOM      2  C   UNL     1      -1.301  -2.717  -1.220  0.00  0.00    +0.004 A 
ATOM      3  C   UNL     1      -1.305  -4.094  -1.224  0.00  0.00    -0.023 A 
ATOM      4  C   UNL     1      -1.313  -4.759   0.005  0.00  0.00    +0.065 A 
ATOM      5  C   UNL     1      -1.323  -6.170   0.406  0.00  0.00    +0.084 A 
ATOM      6  C   UNL     1      -1.327  -6.163   1.789  0.00  0.00    +0.199 A 
ATOM      7  O   UNL     1      -1.320  -4.884   2.228  0.00  0.00    -0.432 OA
ATOM      8  C   UNL     1      -1.312  -4.015   1.199  0.00  0.00    +0.230 A 
ATOM      9  N   UNL     1      -1.299  -2.690   1.142  0.00  0.00    -0.217 NA
ATOM     10  C   UNL     1      -1.295  -4.879  -2.507  0.00  0.00    +0.070 C 
ATOM     11  C   UNL     1      -1.702  -3.972  -3.670  0.00  0.00    +0.068 C 
ATOM     12  O   UNL     1      -0.933  -2.766  -3.597  0.00  0.00    -0.369 OA
ATOM     13  C   UNL     1      -1.301  -1.928  -2.502  0.00  0.00    +0.197 C 
ATOM     14  C   UNL     1      -1.422  -4.681  -4.997  0.00  0.00    +0.041 C 
ATOM     15  C   UNL     1      -3.192  -3.639  -3.566  0.00  0.00    +0.041 C 
ENDROOT
BRANCH   5  16
ATOM     16  N   UNL     1      -1.327  -7.275  -0.426  0.00  0.00    -0.354 N 
ATOM     17  H   UNL     1      -1.324  -7.157  -1.389  0.00  0.00    +0.142 HD
ATOM     18  H   UNL     1      -1.334  -8.167  -0.046  0.00  0.00    +0.142 HD
ENDBRANCH   5  16
BRANCH   6  19
ATOM     19  C   UNL     1      -1.337  -7.312   2.613  0.00  0.00    +0.230 C 
ATOM     20  O   UNL     1      -1.440  -8.418   2.114  0.00  0.00    -0.283 OA
BRANCH  19  21
ATOM     21  C   UNL     1      -1.222  -7.170   4.081  0.00  0.00    +0.025 A 
ATOM     22  C   UNL     1      -1.240  -5.903   4.667  0.00  0.00    +0.012 A 
ATOM     23  C   UNL     1      -1.133  -5.778   6.036  0.00  0.00    +0.001 A 
ATOM     24  C   UNL     1      -1.007  -6.904   6.829  0.00  0.00    +0.000 A 
ATOM     25  C   UNL     1      -0.988  -8.163   6.255  0.00  0.00    +0.001 A 
ATOM     26  C   UNL     1      -1.101  -8.303   4.887  0.00  0.00    +0.012 A 
ENDBRANCH  19  21
ENDBRANCH   6  19
BRANCH   1  27
ATOM     27  C   UNL     1      -1.292  -0.537   0.001  0.00  0.00    +0.055 C 
BRANCH  27  29
ATOM     28  C   UNL     1       0.160   1.496   0.005  0.00  0.00    +0.004 C 
ATOM     29  C   UNL     1       0.153  -0.035  -0.001  0.00  0.00    +0.003 C 
ENDBRANCH  27  29
ENDBRANCH   1  27
TORSDOF 5
