REMARK  Name = ZINC44430132
REMARK  5 active torsions:
REMARK  status: ('A' for Active; 'I' for Inactive)
REMARK    1  A    between atoms: C_1  and  C_2
REMARK    2  A    between atoms: C_5  and  C_9
REMARK    3  A    between atoms: C_7  and  C_8
REMARK    4  A    between atoms: C_11  and  C_14
REMARK    5  A    between atoms: N_19  and  C_21
REMARK                            x       y       z     vdW  Elec       q    Type
REMARK                         _______ _______ _______ _____ _____    ______ ____
ROOT
ATOM      1  C   UNL     1       0.102  -7.476  -1.673  0.00  0.00    +0.086 C 
ATOM      2  C   UNL     1      -1.076  -8.435  -1.384  0.00  0.00    +0.109 C 
ATOM      3  C   UNL     1      -0.497  -9.813  -1.617  0.00  0.00    +0.217 C 
ATOM      4  O   UNL     1      -1.150 -10.824  -1.770  0.00  0.00    -0.276 OA
ATOM      5  N   UNL     1       0.846  -9.755  -1.630  0.00  0.00    -0.294 N 
ATOM      6  C   UNL     1       1.323  -8.384  -1.407  0.00  0.00    +0.120 C 
ENDROOT
BRANCH   5   7
ATOM      7  C   UNL     1       1.722 -10.910  -1.841  0.00  0.00    +0.107 C 
ATOM      8  C   UNL     1       1.458 -11.985  -0.765  0.00  0.00    +0.032 C 
ATOM      9  C   UNL     1       1.675 -13.298  -1.548  0.00  0.00    +0.037 C 
ATOM     10  C   UNL     1       1.371 -12.953  -2.990  0.00  0.00    -0.042 A 
ATOM     11  C   UNL     1       1.400 -11.580  -3.159  0.00  0.00    -0.024 A 
ATOM     12  C   UNL     1       1.152 -11.032  -4.407  0.00  0.00    +0.006 A 
ATOM     13  C   UNL     1       0.876 -11.852  -5.484  0.00  0.00    +0.000 A 
ATOM     14  C   UNL     1       0.849 -13.224  -5.317  0.00  0.00    +0.000 A 
ATOM     15  C   UNL     1       1.093 -13.775  -4.069  0.00  0.00    +0.004 A 
ENDBRANCH   5   7
BRANCH   1  18
ATOM     16  C   UNL     1       0.059  -4.251  -0.021  0.00  0.00    +0.258 A 
ATOM     17  N   UNL     1       0.069  -5.017  -1.089  0.00  0.00    -0.191 NA
ATOM     18  C   UNL     1       0.086  -6.302  -0.728  0.00  0.00    +0.177 A 
ATOM     19  N   UNL     1       0.087  -6.380   0.573  0.00  0.00    -0.061 NA
ATOM     20  O   UNL     1       0.075  -5.047   1.062  0.00  0.00    -0.333 OA
BRANCH  16  25
ATOM     21  C   UNL     1      -0.018   1.503   0.010  0.00  0.00    +0.044 C 
ATOM     22  C   UNL     1       0.002  -0.004   0.002  0.00  0.00    -0.047 A 
ATOM     23  C   UNL     1       0.006  -0.686  -1.202  0.00  0.00    +0.004 A 
ATOM     24  C   UNL     1       0.024  -2.066  -1.216  0.00  0.00    +0.013 A 
ATOM     25  C   UNL     1       0.040  -2.773  -0.013  0.00  0.00    +0.040 A 
ATOM     26  C   UNL     1       0.036  -2.079   1.197  0.00  0.00    +0.017 A 
ATOM     27  C   UNL     1       0.023  -0.699   1.198  0.00  0.00    -0.047 A 
ATOM     28  C   UNL     1       0.025   0.052   2.504  0.00  0.00    +0.044 C 
ENDBRANCH  16  25
ENDBRANCH   1  18
TORSDOF 3
