REMARK  Name = ZINC50990885
REMARK  8 active torsions:
REMARK  status: ('A' for Active; 'I' for Inactive)
REMARK    1  A    between atoms: C_1  and  C_2
REMARK    2  A    between atoms: C_2  and  C_3
REMARK    3  A    between atoms: C_2  and  N_12
REMARK    4  A    between atoms: C_13  and  C_15
REMARK    5  A    between atoms: C_15  and  C_16
REMARK    6  A    between atoms: C_15  and  N_17
REMARK    7  A    between atoms: C_20  and  N_23
REMARK    8  A    between atoms: C_24  and  C_26
REMARK                            x       y       z     vdW  Elec       q    Type
REMARK                         _______ _______ _______ _____ _____    ______ ____
ROOT
ATOM      1  N   UNL     1       0.411  -1.146   1.131  0.00  0.00    -0.307 N 
ATOM      2  C   UNL     1       0.032  -0.696   2.343  0.00  0.00    +0.200 C 
ATOM      3  O   UNL     1      -0.910   0.061   2.442  0.00  0.00    -0.278 OA
ATOM      4  H   UNL     1       1.165  -1.751   1.052  0.00  0.00    +0.149 HD
ENDROOT
BRANCH   1   6
ATOM      5  C   UNL     1       0.240   0.619  -0.554  0.00  0.00    +0.036 C 
ATOM      6  C   UNL     1      -0.316  -0.721  -0.068  0.00  0.00    +0.136 C 
BRANCH   6   7
ATOM      7  C   UNL     1      -0.149  -1.757  -1.150  0.00  0.00    +0.126 A 
ATOM      8  C   UNL     1      -1.116  -2.151  -1.990  0.00  0.00    +0.055 A 
ATOM      9  C   UNL     1      -0.510  -3.163  -2.865  0.00  0.00    +0.020 A 
ATOM     10  C   UNL     1      -0.976  -3.941  -3.923  0.00  0.00    +0.011 A 
ATOM     11  C   UNL     1      -0.129  -4.816  -4.545  0.00  0.00    +0.001 A 
ATOM     12  C   UNL     1       1.189  -4.934  -4.129  0.00  0.00    +0.004 A 
ATOM     13  C   UNL     1       1.667  -4.173  -3.084  0.00  0.00    +0.047 A 
ATOM     14  C   UNL     1       0.824  -3.277  -2.439  0.00  0.00    +0.135 A 
ATOM     15  O   UNL     1       0.993  -2.414  -1.417  0.00  0.00    -0.458 OA
ENDBRANCH   6   7
ENDBRANCH   1   6
BRANCH   2  16
ATOM     16  C   UNL     1       0.780  -1.133   3.576  0.00  0.00    +0.016 C 
ATOM     17  C   UNL     1       1.965  -0.194   3.813  0.00  0.00    -0.004 C 
BRANCH  16  18
ATOM     18  N   UNL     1      -0.120  -1.088   4.737  0.00  0.00    +0.387 N 
ATOM     19  C   UNL     1      -1.232  -2.023   4.528  0.00  0.00    -0.076 C 
ATOM     20  C   UNL     1      -2.215  -1.921   5.696  0.00  0.00    +0.004 C 
ATOM     21  C   UNL     1      -1.489  -2.271   6.999  0.00  0.00    +0.069 C 
ATOM     22  C   UNL     1      -0.288  -1.336   7.168  0.00  0.00    +0.004 C 
ATOM     23  C   UNL     1       0.624  -1.460   5.946  0.00  0.00    -0.076 C 
ATOM     24  H   UNL     1      -0.485  -0.153   4.842  0.00  0.00    -0.081 HD
BRANCH  21  25
ATOM     25  N   UNL     1      -2.405  -2.102   8.130  0.00  0.00    -0.313 N 
ATOM     26  C   UNL     1      -2.203  -2.793   9.269  0.00  0.00    +0.210 C 
ATOM     27  O   UNL     1      -1.264  -3.555   9.358  0.00  0.00    -0.276 OA
ATOM     28  C   UNL     1      -3.145  -2.619  10.433  0.00  0.00    +0.109 C 
ATOM     29  H   UNL     1      -3.156  -1.492   8.059  0.00  0.00    +0.149 HD
ENDBRANCH  21  25
ENDBRANCH  16  18
ENDBRANCH   2  16
TORSDOF 5
