REMARK  Name = ZINC21317098
REMARK  5 active torsions:
REMARK  status: ('A' for Active; 'I' for Inactive)
REMARK    1  A    between atoms: C_7  and  C_13
REMARK    2  A    between atoms: N_15  and  C_16
REMARK    3  A    between atoms: C_16  and  C_17
REMARK    4  A    between atoms: C_17  and  C_19
REMARK    5  A    between atoms: C_17  and  N_24
REMARK                            x       y       z     vdW  Elec       q    Type
REMARK                         _______ _______ _______ _____ _____    ______ ____
ROOT
ATOM      1  C   UNL     1       1.629  -0.627   1.426  0.00  0.00    +0.265 C 
ATOM      2  O   UNL     1       0.648  -0.725   0.715  0.00  0.00    -0.268 OA
ATOM      3  N   UNL     1       2.554   0.320   1.171  0.00  0.00    -0.311 N 
ATOM      4  H   UNL     1       3.442   0.410   1.815  0.00  0.00    +0.149 HD
ENDROOT
BRANCH   1  11
ATOM      5  C   UNL     1      -1.246  -3.737   2.428  0.00  0.00    +0.001 A 
ATOM      6  C   UNL     1      -1.018  -4.562   3.521  0.00  0.00    +0.001 A 
ATOM      7  C   UNL     1       0.111  -4.409   4.296  0.00  0.00    +0.014 A 
ATOM      8  C   UNL     1       1.029  -3.414   3.975  0.00  0.00    +0.050 A 
ATOM      9  C   UNL     1       0.794  -2.570   2.866  0.00  0.00    +0.020 A 
ATOM     10  C   UNL     1      -0.348  -2.745   2.093  0.00  0.00    +0.011 A 
ATOM     11  C   UNL     1       1.805  -1.540   2.572  0.00  0.00    +0.153 A 
ATOM     12  N   UNL     1       2.859  -1.440   3.345  0.00  0.00    -0.166 NA
ATOM     13  N   UNL     1       3.085  -2.192   4.356  0.00  0.00    -0.242 N 
ATOM     14  H   UNL     1       3.995  -2.046   4.957  0.00  0.00    +0.192 HD
ATOM     15  C   UNL     1       2.258  -3.182   4.747  0.00  0.00    +0.272 A 
ATOM     16  O   UNL     1       2.522  -3.867   5.718  0.00  0.00    -0.266 OA
ENDBRANCH   1  11
BRANCH   3  17
ATOM     17  C   UNL     1       2.377   1.231   0.037  0.00  0.00    +0.094 C 
BRANCH  17  18
ATOM     18  C   UNL     1       3.495   2.275   0.042  0.00  0.00    -0.013 C 
BRANCH  18  19
ATOM     19  N   UNL     1       3.248   3.262  -1.017  0.00  0.00    +0.386 N 
ATOM     20  C   UNL     1       1.943   3.942  -0.817  0.00  0.00    -0.078 C 
ATOM     21  C   UNL     1       2.090   5.242  -1.648  0.00  0.00    -0.020 C 
ATOM     22  C   UNL     1       3.567   5.636  -1.416  0.00  0.00    -0.020 C 
ATOM     23  C   UNL     1       4.269   4.332  -0.993  0.00  0.00    -0.078 C 
ATOM     24  H   UNL     1       3.276   2.700  -1.962  0.00  0.00    -0.081 HD
ENDBRANCH  18  19
BRANCH  18  25
ATOM     25  C   UNL     1       4.818   1.595  -0.203  0.00  0.00    -0.022 A 
ATOM     26  C   UNL     1       5.773   1.238   0.691  0.00  0.00    +0.009 A 
ATOM     27  C   UNL     1       6.920   0.617   0.234  0.00  0.00    +0.008 A 
ATOM     28  C   UNL     1       7.057   0.384  -1.094  0.00  0.00    +0.045 A 
ATOM     29  S   UNL     1       5.531   1.045  -1.744  0.00  0.00    -0.103 S 
ENDBRANCH  18  25
ENDBRANCH  17  18
ENDBRANCH   3  17
TORSDOF 5
