REMARK  Name = ZINC38971536
REMARK  5 active torsions:
REMARK  status: ('A' for Active; 'I' for Inactive)
REMARK    1  A    between atoms: C_2  and  C_3
REMARK    2  A    between atoms: C_3  and  N_4
REMARK    3  A    between atoms: N_4  and  C_5
REMARK    4  A    between atoms: N_8  and  S_9
REMARK    5  A    between atoms: S_9  and  C_12
REMARK                            x       y       z     vdW  Elec       q    Type
REMARK                         _______ _______ _______ _____ _____    ______ ____
ROOT
ATOM      1  C   UNL     1      -2.568  -2.473  -1.153  0.00  0.00    +0.219 C 
ATOM      2  C   UNL     1      -3.131  -2.394  -2.554  0.00  0.00    +0.188 C 
ATOM      3  N   UNL     1      -3.401  -1.242  -3.093  0.00  0.00    -0.110 NA
ATOM      4  N   UNL     1      -3.349  -3.531  -3.234  0.00  0.00    -0.226 NA
ATOM      5  C   UNL     1      -3.084  -4.710  -2.710  0.00  0.00    +0.089 A 
ATOM      6  C   UNL     1      -3.327  -5.891  -3.457  0.00  0.00    +0.030 A 
ATOM      7  C   UNL     1      -3.057  -7.103  -2.925  0.00  0.00    +0.002 A 
ATOM      8  C   UNL     1      -2.533  -7.265  -1.631  0.00  0.00    +0.002 A 
ATOM      9  C   UNL     1      -2.266  -6.207  -0.835  0.00  0.00    +0.027 A 
ATOM     10  C   UNL     1      -2.531  -4.852  -1.341  0.00  0.00    +0.063 A 
ATOM     11  N   UNL     1      -2.284  -3.807  -0.602  0.00  0.00    -0.362 N 
ATOM     12  H   UNL     1      -1.921  -3.907   0.292  0.00  0.00    +0.162 HD
ENDROOT
BRANCH   3  13
ATOM     13  S   UNL     1      -4.018  -1.169  -4.628  0.00  0.00    +0.100 S 
ATOM     14  O   UNL     1      -3.000  -1.647  -5.498  0.00  0.00    -0.146 OA
ATOM     15  O   UNL     1      -5.311  -1.756  -4.574  0.00  0.00    -0.146 OA
BRANCH  13  16
ATOM     16  C   UNL     1      -4.253   0.533  -5.016  0.00  0.00    +0.113 A 
ATOM     17  C   UNL     1      -5.454   1.150  -4.719  0.00  0.00    +0.032 A 
ATOM     18  C   UNL     1      -5.639   2.486  -5.022  0.00  0.00    +0.040 A 
ATOM     19  C   UNL     1      -4.621   3.206  -5.623  0.00  0.00    +0.124 A 
ATOM     20  C   UNL     1      -3.418   2.587  -5.920  0.00  0.00    +0.040 A 
ATOM     21  C   UNL     1      -3.233   1.253  -5.612  0.00  0.00    +0.032 A 
ATOM     22  F   UNL     1      -4.801   4.512  -5.920  0.00  0.00    -0.205 F 
ENDBRANCH  13  16
ENDBRANCH   3  13
BRANCH   1  23
ATOM     23  N   UNL     1      -1.318  -1.702  -1.129  0.00  0.00    -0.287 NA
ATOM     24  H   UNL     1      -1.179  -1.210  -1.999  0.00  0.00    +0.125 HD
BRANCH  23  25
ATOM     25  C   UNL     1      -1.293  -0.775   0.010  0.00  0.00    +0.110 C 
BRANCH  25  27
ATOM     26  C   UNL     1      -0.016   1.306   0.009  0.00  0.00    +0.005 C 
ATOM     27  C   UNL     1       0.002  -0.004   0.002  0.00  0.00    -0.019 C 
ENDBRANCH  25  27
ENDBRANCH  23  25
ENDBRANCH   1  23
TORSDOF 5
