REMARK  Name = ZINC43741010
REMARK  7 active torsions:
REMARK  status: ('A' for Active; 'I' for Inactive)
REMARK    1  A    between atoms: C_1  and  C_2
REMARK    2  A    between atoms: C_16  and  C_35
REMARK    3  A    between atoms: C_21  and  C_22
REMARK    4  A    between atoms: C_21  and  O_34
REMARK    5  A    between atoms: C_22  and  N_23
REMARK    6  A    between atoms: C_24  and  C_25
REMARK    7  A    between atoms: C_30  and  O_31
REMARK                            x       y       z     vdW  Elec       q    Type
REMARK                         _______ _______ _______ _____ _____    ______ ____
ROOT
ATOM      1  C   UNL     1       0.398   0.894   1.097  0.00  0.00    +0.016 C 
ATOM      2  C   UNL     1       0.198  -0.565   0.682  0.00  0.00    -0.008 C 
ATOM      3  C   UNL     1       1.093  -0.821  -0.536  0.00  0.00    +0.016 C 
ATOM      4  C   UNL     1       2.343  -1.599  -0.143  0.00  0.00    +0.066 C 
ATOM      5  C   UNL     1       3.012  -1.041   1.104  0.00  0.00    +0.174 C 
ATOM      6  C   UNL     1       2.088  -1.175   2.319  0.00  0.00    +0.096 C 
ATOM      7  C   UNL     1       0.685  -1.444   1.802  0.00  0.00    -0.062 C 
ATOM      8  C   UNL     1      -0.005  -2.397   2.336  0.00  0.00    -0.027 C 
ATOM      9  C   UNL     1      -1.406  -2.744   1.908  0.00  0.00    +0.031 C 
ATOM     10  C   UNL     1      -1.645  -2.274   0.480  0.00  0.00    +0.000 C 
ATOM     11  C   UNL     1      -1.255  -0.797   0.321  0.00  0.00    +0.003 C 
ATOM     12  C   UNL     1      -2.247   0.125   1.003  0.00  0.00    +0.005 C 
ATOM     13  C   UNL     1      -3.658  -0.072   0.405  0.00  0.00    +0.010 C 
ATOM     14  C   UNL     1      -4.079  -1.502   0.625  0.00  0.00    +0.001 C 
ATOM     15  C   UNL     1      -3.049  -2.456  -0.008  0.00  0.00    +0.001 C 
ATOM     16  C   UNL     1      -3.732  -3.816   0.182  0.00  0.00    +0.007 C 
ATOM     17  C   UNL     1      -5.213  -3.497  -0.173  0.00  0.00    +0.037 C 
ATOM     18  C   UNL     1      -5.354  -1.952  -0.121  0.00  0.00    +0.089 C 
ATOM     19  C   UNL     1      -4.343  -1.760   2.106  0.00  0.00    +0.014 C 
ATOM     20  O   UNL     1       3.348   0.343   0.904  0.00  0.00    -0.346 OA
ATOM     21  C   UNL     1       4.463   0.563   1.803  0.00  0.00    +0.191 C 
ATOM     22  C   UNL     1       5.242  -0.767   1.688  0.00  0.00    +0.191 C 
ATOM     23  O   UNL     1       4.234  -1.746   1.366  0.00  0.00    -0.346 OA
ENDROOT
BRANCH  18  24
ATOM     24  O   UNL     1      -5.384  -1.399  -1.431  0.00  0.00    -0.386 OA
ATOM     25  H   UNL     1      -6.164  -1.648  -1.946  0.00  0.00    +0.210 HD
ENDBRANCH  18  24
BRANCH  18  26
ATOM     26  C   UNL     1      -6.591  -1.553   0.679  0.00  0.00    +0.147 C 
BRANCH  26  27
ATOM     27  N   UNL     1      -7.789  -2.087   0.027  0.00  0.00    -0.387 N 
ATOM     28  C   UNL     1      -8.508  -2.981   0.626  0.00  0.00    +0.090 C 
ATOM     29  H   UNL     1      -8.043  -1.770  -0.854  0.00  0.00    +0.159 HD
BRANCH  28  30
ATOM     30  C   UNL     1      -9.624  -3.627  -0.087  0.00  0.00    +0.035 A 
ATOM     31  C   UNL     1     -10.477  -4.502   0.590  0.00  0.00    +0.033 A 
ATOM     32  C   UNL     1     -11.521  -5.104  -0.082  0.00  0.00    +0.043 A 
ATOM     33  C   UNL     1     -11.727  -4.844  -1.428  0.00  0.00    +0.043 A 
ATOM     34  C   UNL     1     -10.890  -3.980  -2.109  0.00  0.00    +0.084 A 
ATOM     35  C   UNL     1      -9.840  -3.362  -1.446  0.00  0.00    +0.144 A 
ATOM     36 CL   UNL     1     -11.159  -3.663  -3.794  0.00  0.00    -0.080 Cl
ATOM     37 CL   UNL     1     -12.579  -6.192   0.760  0.00  0.00    -0.083 Cl
BRANCH  35  38
ATOM     38  O   UNL     1      -9.021  -2.509  -2.112  0.00  0.00    -0.505 OA
ATOM     39  H   UNL     1      -8.256  -2.937  -2.521  0.00  0.00    +0.292 HD
ENDBRANCH  35  38
ENDBRANCH  28  30
ENDBRANCH  26  27
ENDBRANCH  18  26
TORSDOF 5
