REMARK  Name = ZINC25259618
REMARK  8 active torsions:
REMARK  status: ('A' for Active; 'I' for Inactive)
REMARK    1  A    between atoms: C_4  and  C_7
REMARK    2  A    between atoms: N_9  and  C_10
REMARK    3  A    between atoms: C_10  and  C_11
REMARK    4  A    between atoms: N_13  and  N_14
REMARK    5  A    between atoms: C_15  and  C_17
REMARK    6  A    between atoms: C_20  and  C_23
REMARK    7  A    between atoms: C_23  and  S_24
REMARK    8  A    between atoms: S_24  and  C_25
REMARK                            x       y       z     vdW  Elec       q    Type
REMARK                         _______ _______ _______ _____ _____    ______ ____
ROOT
ATOM      1  N   UNL     1      -0.011   0.966   0.007  0.00  0.00    -0.230 N 
ATOM      2  C   UNL     1      -1.187   1.624   0.017  0.00  0.00    +0.260 C 
ATOM      3  O   UNL     1      -1.204   2.839   0.023  0.00  0.00    -0.269 OA
ATOM      4  H   UNL     1       0.004  -0.134   0.006  0.00  0.00    +0.173 HD
ENDROOT
BRANCH   2   5
ATOM      5  C   UNL     1      -2.458   0.867   0.018  0.00  0.00    +0.038 A 
ATOM      6  C   UNL     1      -2.442  -0.528   0.005  0.00  0.00    +0.013 A 
ATOM      7  C   UNL     1      -3.631  -1.228   0.012  0.00  0.00    +0.005 A 
ATOM      8  C   UNL     1      -4.837  -0.550   0.021  0.00  0.00    -0.037 A 
ATOM      9  C   UNL     1      -4.859   0.834   0.029  0.00  0.00    +0.005 A 
ATOM     10  C   UNL     1      -3.677   1.546   0.028  0.00  0.00    +0.013 A 
BRANCH   8  11
ATOM     11  C   UNL     1      -6.131  -1.321   0.024  0.00  0.00    +0.111 C 
BRANCH  11  12
ATOM     12  S   UNL     1      -6.659  -1.620  -1.681  0.00  0.00    -0.094 S 
BRANCH  12  13
ATOM     13  C   UNL     1      -8.150  -2.511  -1.389  0.00  0.00    +0.136 A 
ATOM     14  N   UNL     1      -8.998  -3.009  -2.261  0.00  0.00    -0.233 NA
ATOM     15  C   UNL     1     -10.112  -3.676  -1.890  0.00  0.00    +0.079 A 
ATOM     16  C   UNL     1     -11.099  -4.258  -2.720  0.00  0.00    +0.029 A 
ATOM     17  C   UNL     1     -12.177  -4.906  -2.177  0.00  0.00    +0.002 A 
ATOM     18  C   UNL     1     -12.341  -5.016  -0.804  0.00  0.00    +0.001 A 
ATOM     19  C   UNL     1     -11.395  -4.459   0.038  0.00  0.00    +0.017 A 
ATOM     20  C   UNL     1     -10.312  -3.808  -0.497  0.00  0.00    +0.040 A 
ATOM     21  S   UNL     1      -8.891  -2.975   0.170  0.00  0.00    -0.061 S 
ENDBRANCH  12  13
ENDBRANCH  11  12
ENDBRANCH   8  11
ENDBRANCH   2   5
BRANCH   1  24
ATOM     22  C   UNL     1       2.369   1.025  -0.015  0.00  0.00    +0.246 C 
ATOM     23  O   UNL     1       2.385  -0.188  -0.022  0.00  0.00    -0.273 OA
ATOM     24  N   UNL     1       1.193   1.683  -0.000  0.00  0.00    -0.233 N 
ATOM     25  H   UNL     1       1.178   2.783   0.006  0.00  0.00    +0.173 HD
BRANCH  22  26
ATOM     26  C   UNL     1       3.663   1.796  -0.023  0.00  0.00    +0.202 C 
BRANCH  26  29
ATOM     27  C   UNL     1       6.054   1.326  -0.049  0.00  0.00    +0.244 C 
ATOM     28  O   UNL     1       6.260   2.524  -0.044  0.00  0.00    -0.270 OA
ATOM     29  N   UNL     1       4.790   0.859  -0.039  0.00  0.00    -0.303 N 
ATOM     30  H   UNL     1       4.603  -0.225  -0.043  0.00  0.00    +0.150 HD
BRANCH  27  34
ATOM     31  C   UNL     1       9.320  -1.390  -0.094  0.00  0.00    +0.000 A 
ATOM     32  C   UNL     1       9.557  -0.027  -0.089  0.00  0.00    +0.001 A 
ATOM     33  C   UNL     1       8.501   0.860  -0.074  0.00  0.00    +0.013 A 
ATOM     34  C   UNL     1       7.191   0.380  -0.065  0.00  0.00    +0.037 A 
ATOM     35  C   UNL     1       6.958  -0.996  -0.064  0.00  0.00    +0.013 A 
ATOM     36  C   UNL     1       8.023  -1.872  -0.084  0.00  0.00    +0.001 A 
ENDBRANCH  27  34
ENDBRANCH  26  29
ENDBRANCH  22  26
ENDBRANCH   1  24
TORSDOF 8
