REMARK  Name = ZINC39722788
REMARK  7 active torsions:
REMARK  status: ('A' for Active; 'I' for Inactive)
REMARK    1  A    between atoms: C_1  and  C_2
REMARK    2  A    between atoms: C_2  and  N_3
REMARK    3  A    between atoms: C_4  and  S_20
REMARK    4  A    between atoms: C_12  and  C_15
REMARK    5  A    between atoms: S_20  and  C_21
REMARK    6  A    between atoms: C_21  and  C_22
REMARK    7  A    between atoms: C_30  and  C_34
REMARK                            x       y       z     vdW  Elec       q    Type
REMARK                         _______ _______ _______ _____ _____    ______ ____
ROOT
ATOM      1  N   UNL     1       0.711  -0.489   1.189  0.00  0.00    -0.267 N 
ATOM      2  C   UNL     1       2.145  -0.689   1.084  0.00  0.00    +0.255 C 
ATOM      3  N   UNL     1       2.673  -1.717   1.986  0.00  0.00    -0.243 NA
ATOM      4  C   UNL     1       2.032  -1.994   3.069  0.00  0.00    +0.107 C 
ATOM      5  C   UNL     1       0.702  -1.411   3.410  0.00  0.00    +0.073 C 
ATOM      6  C   UNL     1      -0.016  -0.715   2.306  0.00  0.00    +0.252 C 
ATOM      7  O   UNL     1      -1.181  -0.374   2.401  0.00  0.00    -0.270 OA
ATOM      8  C   UNL     1       0.270  -1.565   4.691  0.00  0.00    -0.009 C 
ATOM      9  C   UNL     1       1.169  -2.356   5.624  0.00  0.00    +0.113 C 
ATOM     10  S   UNL     1       2.403  -3.046   4.442  0.00  0.00    -0.101 S 
ENDROOT
BRANCH   8  11
ATOM     11  C   UNL     1      -0.952  -1.019   5.130  0.00  0.00    +0.017 A 
ATOM     12  C   UNL     1      -2.100  -1.675   5.572  0.00  0.00    +0.016 A 
ATOM     13  C   UNL     1      -3.143  -0.863   5.939  0.00  0.00    +0.008 A 
ATOM     14  C   UNL     1      -2.994   0.484   5.851  0.00  0.00    +0.046 A 
ATOM     15  S   UNL     1      -1.431   0.692   5.273  0.00  0.00    -0.097 S 
ENDBRANCH   8  11
BRANCH   1  17
ATOM     16  C   UNL     1      -0.019   1.526   0.010  0.00  0.00    +0.024 C 
ATOM     17  C   UNL     1       0.002  -0.004   0.002  0.00  0.00    +0.107 C 
ENDBRANCH   1  17
BRANCH   2  18
ATOM     18  S   UNL     1       2.975   0.881   1.454  0.00  0.00    -0.107 S 
BRANCH  18  19
ATOM     19  C   UNL     1       2.449   1.267   3.147  0.00  0.00    +0.147 C 
BRANCH  19  20
ATOM     20  C   UNL     1       3.077   2.566   3.583  0.00  0.00    +0.120 A 
ATOM     21  N   UNL     1       2.806   3.024   4.833  0.00  0.00    -0.310 N 
ATOM     22  H   UNL     1       2.221   2.514   5.416  0.00  0.00    +0.170 HD
ATOM     23  C   UNL     1       3.344   4.185   5.274  0.00  0.00    +0.259 A 
ATOM     24  O   UNL     1       3.110   4.607   6.391  0.00  0.00    -0.267 OA
ATOM     25  C   UNL     1       4.225   4.918   4.348  0.00  0.00    +0.065 A 
ATOM     26  C   UNL     1       4.829   6.122   4.707  0.00  0.00    +0.016 A 
ATOM     27  C   UNL     1       5.639   6.768   3.818  0.00  0.00    +0.016 A 
ATOM     28  C   UNL     1       5.871   6.232   2.544  0.00  0.00    +0.065 A 
ATOM     29  C   UNL     1       5.278   5.032   2.167  0.00  0.00    +0.043 A 
ATOM     30  C   UNL     1       4.448   4.363   3.069  0.00  0.00    +0.079 A 
ATOM     31  N   UNL     1       3.852   3.187   2.748  0.00  0.00    -0.233 NA
BRANCH  28  32
ATOM     32  C   UNL     1       6.751   6.946   1.596  0.00  0.00    +0.387 C 
ATOM     33  O   UNL     1       7.274   8.002   1.923  0.00  0.00    -0.241 OA
ATOM     34  O   UNL     1       6.956   6.482   0.484  0.00  0.00    -0.241 OA
ENDBRANCH  28  32
ENDBRANCH  19  20
ENDBRANCH  18  19
ENDBRANCH   2  18
TORSDOF 6
