REMARK  Name = ZINC08211961
REMARK  5 active torsions:
REMARK  status: ('A' for Active; 'I' for Inactive)
REMARK    1  A    between atoms: C_6  and  N_7
REMARK    2  A    between atoms: C_8  and  C_10
REMARK    3  A    between atoms: C_10  and  S_11
REMARK    4  A    between atoms: S_11  and  C_12
REMARK    5  A    between atoms: N_18  and  C_19
REMARK                            x       y       z     vdW  Elec       q    Type
REMARK                         _______ _______ _______ _____ _____    ______ ____
ROOT
ATOM      1  C   UNL     1       4.391  -0.389  -1.625  0.00  0.00    +0.173 C 
ENDROOT
BRANCH   1   3
ATOM      2  N   UNL     1       6.044  -1.916  -2.652  0.00  0.00    -0.285 N 
ATOM      3  C   UNL     1       4.770  -1.697  -2.271  0.00  0.00    +0.227 C 
ATOM      4  O   UNL     1       3.929  -2.552  -2.447  0.00  0.00    -0.275 OA
ATOM      5  H   UNL     1       6.703  -1.208  -2.572  0.00  0.00    +0.155 HD
BRANCH   2  11
ATOM      6  C   UNL     1       7.681  -3.675  -2.897  0.00  0.00    +0.024 A 
ATOM      7  C   UNL     1       8.044  -4.911  -3.396  0.00  0.00    +0.017 A 
ATOM      8  C   UNL     1       7.154  -5.633  -4.171  0.00  0.00    +0.018 A 
ATOM      9  C   UNL     1       5.897  -5.124  -4.443  0.00  0.00    +0.017 A 
ATOM     10  C   UNL     1       5.526  -3.892  -3.940  0.00  0.00    +0.024 A 
ATOM     11  C   UNL     1       6.417  -3.164  -3.162  0.00  0.00    +0.033 A 
ATOM     12 BR   UNL     1       7.658  -7.321  -4.861  0.00  0.00    -0.050 Br
ENDBRANCH   2  11
ENDBRANCH   1   3
BRANCH   1  13
ATOM     13  S   UNL     1       2.625  -0.400  -1.231  0.00  0.00    -0.077 S 
BRANCH  13  14
ATOM     14  C   UNL     1       2.462   1.199  -0.509  0.00  0.00    +0.193 A 
ATOM     15  N   UNL     1       3.423   2.064  -0.356  0.00  0.00    -0.145 NA
ATOM     16  N   UNL     1       2.885   3.206   0.254  0.00  0.00    -0.226 N 
ATOM     17  H   UNL     1       3.369   4.013   0.490  0.00  0.00    +0.194 HD
ATOM     18  C   UNL     1       1.569   2.978   0.448  0.00  0.00    +0.345 A 
ATOM     19  O   UNL     1       0.772   3.750   0.952  0.00  0.00    -0.245 OA
ATOM     20  N   UNL     1       1.298   1.742  -0.014  0.00  0.00    -0.268 N 
BRANCH  20  21
ATOM     21  C   UNL     1      -0.013   1.089   0.003  0.00  0.00    +0.094 C 
ATOM     22  C   UNL     1      -1.136   1.778   0.781  0.00  0.00    +0.027 C 
ATOM     23  C   UNL     1      -1.155   1.776  -0.750  0.00  0.00    +0.027 C 
ENDBRANCH  20  21
ENDBRANCH  13  14
ENDBRANCH   1  13
TORSDOF 5
