REMARK  Name = ZINC39664808
REMARK  11 active torsions:
REMARK  status: ('A' for Active; 'I' for Inactive)
REMARK    1  A    between atoms: C_1  and  N_2
REMARK    2  A    between atoms: N_2  and  C_3
REMARK    3  A    between atoms: N_2  and  C_4
REMARK    4  A    between atoms: C_4  and  C_5
REMARK    5  A    between atoms: C_5  and  C_7
REMARK    6  A    between atoms: C_5  and  N_13
REMARK    7  A    between atoms: C_14  and  C_16
REMARK    8  A    between atoms: C_27  and  C_29
REMARK    9  A    between atoms: C_29  and  C_30
REMARK   10  A    between atoms: C_30  and  C_31
REMARK   11  A    between atoms: C_31  and  C_32
REMARK                            x       y       z     vdW  Elec       q    Type
REMARK                         _______ _______ _______ _____ _____    ______ ____
ROOT
ATOM      1  C   UNL     1      -4.021   0.042   2.130  0.00  0.00    +0.100 C 
ATOM      2  C   UNL     1      -4.314  -1.284   1.393  0.00  0.00    +0.121 C 
ATOM      3  N   UNL     1      -5.611  -1.056   0.714  0.00  0.00    -0.300 N 
ATOM      4  C   UNL     1      -5.531   0.342   0.227  0.00  0.00    +0.115 C 
ATOM      5  C   UNL     1      -4.820   1.107   1.361  0.00  0.00    -0.004 C 
ATOM      6  C   UNL     1      -3.879   2.157   0.780  0.00  0.00    -0.010 C 
ATOM      7  C   UNL     1      -4.701   3.236   0.070  0.00  0.00    -0.082 C 
ATOM      8  N   UNL     1      -5.628   3.856   1.024  0.00  0.00    +0.379 N 
ATOM      9  C   UNL     1      -6.589   2.858   1.508  0.00  0.00    -0.082 C 
ATOM     10  C   UNL     1      -5.847   1.763   2.280  0.00  0.00    -0.010 C 
ATOM     11  C   UNL     1      -6.633  -1.923   0.572  0.00  0.00    +0.216 C 
ATOM     12  O   UNL     1      -7.638  -1.584  -0.016  0.00  0.00    -0.276 OA
ATOM     13  H   UNL     1      -5.107   4.225   1.806  0.00  0.00    -0.086 HD
ATOM     14  H   UNL     1      -6.125   4.607   0.570  0.00  0.00    -0.086 HD
ENDROOT
BRANCH   1  16
ATOM     15  N   UNL     1      -1.958   0.987   3.115  0.00  0.00    -0.310 N 
ATOM     16  C   UNL     1      -2.547   0.355   2.081  0.00  0.00    +0.219 C 
ATOM     17  O   UNL     1      -1.892   0.038   1.111  0.00  0.00    -0.275 OA
ATOM     18  H   UNL     1      -2.464   1.175   3.921  0.00  0.00    +0.149 HD
BRANCH  15  19
ATOM     19  C   UNL     1      -0.552   1.391   3.022  0.00  0.00    +0.087 C 
BRANCH  19  20
ATOM     20  C   UNL     1      -0.453   2.892   3.114  0.00  0.00    -0.029 A 
ATOM     21  C   UNL     1      -1.250   3.584   4.006  0.00  0.00    +0.005 A 
ATOM     22  C   UNL     1      -1.159   4.960   4.091  0.00  0.00    +0.000 A 
ATOM     23  C   UNL     1      -0.271   5.645   3.282  0.00  0.00    +0.000 A 
ATOM     24  C   UNL     1       0.526   4.953   2.390  0.00  0.00    +0.000 A 
ATOM     25  C   UNL     1       0.439   3.576   2.309  0.00  0.00    +0.005 A 
ENDBRANCH  19  20
BRANCH  19  26
ATOM     26  C   UNL     1       0.237   0.756   4.168  0.00  0.00    -0.052 C 
BRANCH  26  28
ATOM     27  C   UNL     1       0.719  -1.248   2.942  0.00  0.00    -0.097 C 
ATOM     28  N   UNL     1       0.061  -0.702   4.137  0.00  0.00    +0.377 N 
ATOM     29  C   UNL     1       0.661  -1.294   5.340  0.00  0.00    -0.097 C 
ATOM     30  H   UNL     1      -0.923  -0.921   4.109  0.00  0.00    -0.083 HD
ENDBRANCH  26  28
ENDBRANCH  19  26
ENDBRANCH  15  19
ENDBRANCH   1  16
BRANCH  11  31
ATOM     31  C   UNL     1      -6.526  -3.313   1.143  0.00  0.00    +0.096 C 
BRANCH  31  32
ATOM     32  C   UNL     1      -7.812  -4.087   0.845  0.00  0.00    +0.014 C 
BRANCH  32  33
ATOM     33  C   UNL     1      -7.704  -5.499   1.425  0.00  0.00    +0.035 C 
BRANCH  33  34
ATOM     34  C   UNL     1      -8.970  -6.261   1.131  0.00  0.00    -0.047 A 
ATOM     35  C   UNL     1     -10.025  -6.219   2.024  0.00  0.00    +0.003 A 
ATOM     36  C   UNL     1     -11.187  -6.918   1.754  0.00  0.00    +0.000 A 
ATOM     37  C   UNL     1     -11.294  -7.659   0.592  0.00  0.00    +0.000 A 
ATOM     38  C   UNL     1     -10.239  -7.700  -0.301  0.00  0.00    +0.000 A 
ATOM     39  C   UNL     1      -9.079  -6.997  -0.033  0.00  0.00    +0.003 A 
ENDBRANCH  33  34
ENDBRANCH  32  33
ENDBRANCH  31  32
ENDBRANCH  11  31
TORSDOF 9
