REMARK  Name = ZINC38848089
REMARK  13 active torsions:
REMARK  status: ('A' for Active; 'I' for Inactive)
REMARK    1  A    between atoms: C_1  and  C_2
REMARK    2  A    between atoms: N_11  and  C_12
REMARK    3  A    between atoms: C_12  and  C_13
REMARK    4  A    between atoms: C_13  and  C_14
REMARK    5  A    between atoms: C_14  and  N_15
REMARK    6  A    between atoms: C_20  and  C_22
REMARK    7  A    between atoms: C_23  and  C_24
REMARK    8  A    between atoms: C_26  and  O_34
REMARK    9  A    between atoms: C_27  and  O_32
REMARK   10  A    between atoms: C_28  and  O_30
REMARK   11  A    between atoms: O_30  and  C_31
REMARK   12  A    between atoms: O_32  and  C_33
REMARK   13  A    between atoms: O_34  and  C_35
REMARK                            x       y       z     vdW  Elec       q    Type
REMARK                         _______ _______ _______ _____ _____    ______ ____
ROOT
ATOM      1  C   UNL     1       1.531   1.963   0.260  0.00  0.00    +0.047 C 
ATOM      2  C   UNL     1       1.716   0.470   0.161  0.00  0.00    -0.006 A 
ATOM      3  C   UNL     1       2.079  -0.090  -1.037  0.00  0.00    +0.046 A 
ATOM      4  C   UNL     1       2.261  -1.460  -1.170  0.00  0.00    +0.021 A 
ATOM      5  C   UNL     1       2.072  -2.279  -0.071  0.00  0.00    +0.019 A 
ATOM      6  C   UNL     1       1.709  -1.726   1.131  0.00  0.00    +0.041 A 
ATOM      7  C   UNL     1       1.520  -0.336   1.306  0.00  0.00    +0.085 A 
ATOM      8  N   UNL     1       1.170   0.055   2.550  0.00  0.00    -0.224 NA
ATOM      9  C   UNL     1       1.016  -0.795   3.540  0.00  0.00    +0.168 A 
ATOM     10  S   UNL     1       1.368  -2.361   2.755  0.00  0.00    -0.052 S 
ATOM     11  N   UNL     1       0.664  -0.543   4.854  0.00  0.00    -0.247 N 
ATOM     12  C   UNL     1       0.262   0.691   5.219  0.00  0.00    +0.245 C 
ATOM     13  O   UNL     1       0.066   0.945   6.393  0.00  0.00    -0.270 OA
ATOM     14 CL   UNL     1       2.316   0.935  -2.417  0.00  0.00    -0.083 Cl
ENDROOT
BRANCH  12  15
ATOM     15  C   UNL     1       0.060   1.724   4.204  0.00  0.00    +0.068 C 
ATOM     16  C   UNL     1      -0.191   2.997   4.578  0.00  0.00    +0.013 C 
BRANCH  16  17
ATOM     17  C   UNL     1      -0.622   3.985   3.578  0.00  0.00    -0.018 A 
ATOM     18  C   UNL     1      -0.933   3.575   2.276  0.00  0.00    +0.057 A 
ATOM     19  C   UNL     1      -1.339   4.506   1.339  0.00  0.00    +0.166 A 
ATOM     20  C   UNL     1      -1.437   5.851   1.689  0.00  0.00    +0.204 A 
ATOM     21  C   UNL     1      -1.127   6.262   2.983  0.00  0.00    +0.166 A 
ATOM     22  C   UNL     1      -0.727   5.336   3.927  0.00  0.00    +0.057 A 
BRANCH  21  23
ATOM     23  O   UNL     1      -1.224   7.576   3.320  0.00  0.00    -0.491 OA
ATOM     24  C   UNL     1      -0.892   7.928   4.664  0.00  0.00    +0.277 C 
ENDBRANCH  21  23
BRANCH  20  25
ATOM     25  O   UNL     1      -1.835   6.764   0.765  0.00  0.00    -0.488 OA
ATOM     26  C   UNL     1      -3.237   7.022   0.669  0.00  0.00    +0.277 C 
ENDBRANCH  20  25
BRANCH  19  27
ATOM     27  O   UNL     1      -1.641   4.110   0.074  0.00  0.00    -0.491 OA
ATOM     28  C   UNL     1      -1.636   2.704  -0.183  0.00  0.00    +0.277 C 
ENDBRANCH  19  27
ENDBRANCH  16  17
ENDBRANCH  12  15
BRANCH  11  29
ATOM     29  C   UNL     1       0.729  -1.616   5.848  0.00  0.00    +0.117 C 
BRANCH  29  30
ATOM     30  C   UNL     1       2.116  -1.632   6.492  0.00  0.00    +0.041 C 
BRANCH  30  31
ATOM     31  C   UNL     1       2.184  -2.754   7.531  0.00  0.00    +0.124 C 
BRANCH  31  32
ATOM     32  N   UNL     1       3.513  -2.769   8.148  0.00  0.00    -0.338 N 
ATOM     33  C   UNL     1       4.603  -3.471   7.710  0.00  0.00    +0.104 A 
ATOM     34  C   UNL     1       5.609  -3.200   8.562  0.00  0.00    +0.101 A 
ATOM     35  N   UNL     1       5.146  -2.355   9.496  0.00  0.00    -0.352 N 
ATOM     36  C   UNL     1       3.892  -2.089   9.251  0.00  0.00    +0.173 A 
ATOM     37  H   UNL     1       5.662  -1.996  10.234  0.00  0.00    +0.166 HD
ENDBRANCH  31  32
ENDBRANCH  30  31
ENDBRANCH  29  30
ENDBRANCH  11  29
TORSDOF 9
