REMARK  Name = ZINC12112588
REMARK  5 active torsions:
REMARK  status: ('A' for Active; 'I' for Inactive)
REMARK    1  A    between atoms: C_4  and  C_7
REMARK    2  A    between atoms: C_9  and  C_31
REMARK    3  A    between atoms: C_13  and  N_30
REMARK    4  A    between atoms: C_14  and  C_16
REMARK    5  A    between atoms: N_21  and  C_24
REMARK                            x       y       z     vdW  Elec       q    Type
REMARK                         _______ _______ _______ _____ _____    ______ ____
ROOT
ATOM      1  C   UNL     1       3.396   2.153  -0.129  0.00  0.00    -0.004 A 
ATOM      2  C   UNL     1       4.328   1.237   0.328  0.00  0.00    +0.037 A 
ATOM      3  C   UNL     1       5.633   1.261  -0.165  0.00  0.00    +0.073 A 
ATOM      4  N   UNL     1       5.990   2.160  -1.074  0.00  0.00    -0.239 NA
ATOM      5  C   UNL     1       5.140   3.049  -1.537  0.00  0.00    +0.112 A 
ATOM      6  C   UNL     1       3.793   3.111  -1.111  0.00  0.00    +0.037 A 
ATOM      7  C   UNL     1       2.999   4.161  -1.724  0.00  0.00    +0.054 A 
ATOM      8  C   UNL     1       3.603   4.981  -2.654  0.00  0.00    +0.097 A 
ATOM      9  S   UNL     1       5.274   4.364  -2.724  0.00  0.00    -0.062 S 
ENDROOT
BRANCH   8  10
ATOM     10  C   UNL     1       3.033   6.056  -3.379  0.00  0.00    +0.255 C 
ATOM     11  O   UNL     1       1.872   5.998  -3.742  0.00  0.00    -0.269 OA
ATOM     12  N   UNL     1       3.775   7.144  -3.666  0.00  0.00    -0.294 N 
ATOM     13  C   UNL     1       3.250   8.208  -4.535  0.00  0.00    +0.127 C 
ATOM     14  C   UNL     1       3.431   9.553  -3.813  0.00  0.00    +0.124 C 
ATOM     15  N   UNL     1       4.839   9.708  -3.424  0.00  0.00    -0.327 N 
ATOM     16  C   UNL     1       5.244   8.673  -2.463  0.00  0.00    +0.124 C 
ATOM     17  C   UNL     1       5.134   7.295  -3.124  0.00  0.00    +0.127 C 
BRANCH  15  18
ATOM     18  C   UNL     1       5.080  10.986  -2.915  0.00  0.00    +0.030 A 
ATOM     19  C   UNL     1       5.629  11.139  -1.648  0.00  0.00    +0.023 A 
ATOM     20  C   UNL     1       5.870  12.404  -1.149  0.00  0.00    +0.002 A 
ATOM     21  C   UNL     1       5.557  13.518  -1.906  0.00  0.00    +0.000 A 
ATOM     22  C   UNL     1       5.006  13.370  -3.165  0.00  0.00    +0.002 A 
ATOM     23  C   UNL     1       4.767  12.108  -3.672  0.00  0.00    +0.023 A 
ENDBRANCH  15  18
ENDBRANCH   8  10
BRANCH   1  27
ATOM     24  C   UNL     1      -0.587   2.104   1.354  0.00  0.00    +0.000 A 
ATOM     25  C   UNL     1       0.473   2.247   2.232  0.00  0.00    +0.001 A 
ATOM     26  C   UNL     1       1.768   2.264   1.756  0.00  0.00    +0.008 A 
ATOM     27  C   UNL     1       2.007   2.136   0.388  0.00  0.00    -0.017 A 
ATOM     28  C   UNL     1       0.934   1.993  -0.491  0.00  0.00    +0.008 A 
ATOM     29  C   UNL     1      -0.356   1.977  -0.004  0.00  0.00    +0.001 A 
ENDBRANCH   1  27
BRANCH   3  30
ATOM     30  C   UNL     1       6.626   0.277   0.329  0.00  0.00    +0.000 A 
ATOM     31  C   UNL     1       6.259  -0.666   1.288  0.00  0.00    +0.010 A 
ATOM     32  C   UNL     1       7.187  -1.583   1.740  0.00  0.00    +0.001 A 
ATOM     33  C   UNL     1       8.481  -1.560   1.252  0.00  0.00    +0.000 A 
ATOM     34  C   UNL     1       8.852  -0.623   0.304  0.00  0.00    +0.001 A 
ATOM     35  C   UNL     1       7.931   0.295  -0.160  0.00  0.00    +0.010 A 
ENDBRANCH   3  30
BRANCH   7  36
ATOM     36  N   UNL     1       1.663   4.331  -1.387  0.00  0.00    -0.356 N 
ATOM     37  H   UNL     1       1.030   4.637  -2.054  0.00  0.00    +0.142 HD
ATOM     38  H   UNL     1       1.363   4.143  -0.484  0.00  0.00    +0.142 HD
ENDBRANCH   7  36
TORSDOF 5
