REMARK  Name = ZINC22049708
REMARK  12 active torsions:
REMARK  status: ('A' for Active; 'I' for Inactive)
REMARK    1  A    between atoms: C_1  and  C_2
REMARK    2  A    between atoms: C_2  and  C_3
REMARK    3  A    between atoms: C_3  and  N_4
REMARK    4  A    between atoms: C_5  and  C_7
REMARK    5  A    between atoms: C_7  and  C_8
REMARK    6  A    between atoms: C_8  and  C_9
REMARK    7  A    between atoms: C_9  and  C_11
REMARK    8  A    between atoms: C_9  and  C_12
REMARK    9  A    between atoms: C_18  and  C_41
REMARK   10  A    between atoms: C_19  and  O_40
REMARK   11  A    between atoms: C_30  and  C_37
REMARK   12  A    between atoms: C_33  and  O_36
REMARK                            x       y       z     vdW  Elec       q    Type
REMARK                         _______ _______ _______ _____ _____    ______ ____
ROOT
ATOM      1  C   UNL     1      -2.929   8.939   5.281  0.00  0.00    +0.001 C 
ATOM      2  C   UNL     1      -1.449   9.388   5.369  0.00  0.00    +0.005 C 
ATOM      3  C   UNL     1      -1.321  10.223   6.672  0.00  0.00    +0.005 C 
ATOM      4  C   UNL     1      -2.752  10.720   6.905  0.00  0.00    +0.005 C 
ATOM      5  C   UNL     1      -3.579   9.445   6.562  0.00  0.00    +0.000 C 
ATOM      6  C   UNL     1      -5.041   9.818   6.507  0.00  0.00    +0.121 C 
ATOM      7  C   UNL     1      -5.474  10.325   7.899  0.00  0.00    +0.036 C 
ATOM      8  C   UNL     1      -4.584  11.475   8.333  0.00  0.00    +0.005 C 
ATOM      9  C   UNL     1      -3.104  11.075   8.335  0.00  0.00    +0.050 C 
ATOM     10  C   UNL     1      -2.301  12.235   8.894  0.00  0.00    +0.195 C 
ATOM     11  C   UNL     1      -2.614  12.564  10.352  0.00  0.00    +0.062 C 
ATOM     12  C   UNL     1      -3.965  11.951  10.736  0.00  0.00    +0.002 C 
ATOM     13  C   UNL     1      -4.998  12.125   9.633  0.00  0.00    -0.026 C 
ATOM     14  C   UNL     1      -6.347  11.550  10.078  0.00  0.00    +0.010 C 
ATOM     15  C   UNL     1      -6.817  12.250  11.353  0.00  0.00    +0.032 C 
ATOM     16  C   UNL     1      -5.784  12.022  12.459  0.00  0.00    +0.115 C 
ATOM     17  C   UNL     1      -4.448  12.625  12.025  0.00  0.00    +0.035 C 
ATOM     18  C   UNL     1      -5.176  13.622   9.370  0.00  0.00    +0.012 C 
ATOM     19  N   UNL     1      -1.855  13.301   8.007  0.00  0.00    -0.158 NA
ATOM     20  N   UNL     1      -0.969  12.512   8.374  0.00  0.00    -0.158 NA
ATOM     21  C   UNL     1      -3.398   8.407   7.672  0.00  0.00    +0.014 C 
ENDROOT
BRANCH   1  22
ATOM     22  C   UNL     1      -3.017   7.413   5.209  0.00  0.00    -0.010 C 
ATOM     23  C   UNL     1      -4.486   6.988   5.160  0.00  0.00    +0.008 C 
BRANCH  22  24
ATOM     24  C   UNL     1      -2.300   6.920   3.951  0.00  0.00    +0.013 C 
BRANCH  24  25
ATOM     25  C   UNL     1      -2.280   5.390   3.942  0.00  0.00    +0.096 C 
BRANCH  25  27
ATOM     26  N   UNL     1      -1.435   3.582   2.481  0.00  0.00    -0.315 N 
ATOM     27  C   UNL     1      -1.574   4.904   2.702  0.00  0.00    +0.213 C 
ATOM     28  O   UNL     1      -1.132   5.702   1.904  0.00  0.00    -0.276 OA
ATOM     29  H   UNL     1      -1.837   2.857   3.205  0.00  0.00    +0.149 HD
BRANCH  26  30
ATOM     30  C   UNL     1      -0.750   3.109   1.275  0.00  0.00    +0.104 C 
BRANCH  30  32
ATOM     31  C   UNL     1      -0.013   1.086   0.008  0.00  0.00    +0.005 C 
ATOM     32  C   UNL     1      -0.729   1.579   1.267  0.00  0.00    +0.015 C 
ENDBRANCH  30  32
ENDBRANCH  26  30
ENDBRANCH  25  27
ENDBRANCH  24  25
ENDBRANCH  22  24
ENDBRANCH   1  22
BRANCH  16  33
ATOM     33  O   UNL     1      -5.624  10.620  12.685  0.00  0.00    -0.392 OA
ATOM     34  H   UNL     1      -4.918  10.263  13.449  0.00  0.00    +0.210 HD
ENDBRANCH  16  33
BRANCH   6  35
ATOM     35  O   UNL     1      -5.226  10.851   5.538  0.00  0.00    -0.391 OA
ATOM     36  H   UNL     1      -6.231  11.258   5.352  0.00  0.00    +0.210 HD
ENDBRANCH   6  35
TORSDOF 8
