REMARK  Name = ZINC01309919
REMARK  7 active torsions:
REMARK  status: ('A' for Active; 'I' for Inactive)
REMARK    1  A    between atoms: C_1  and  O_2
REMARK    2  A    between atoms: O_2  and  C_3
REMARK    3  A    between atoms: C_6  and  C_21
REMARK    4  A    between atoms: C_8  and  C_9
REMARK    5  A    between atoms: C_9  and  N_10
REMARK    6  A    between atoms: N_32  and  C_33
REMARK    7  A    between atoms: C_33  and  C_34
REMARK                            x       y       z     vdW  Elec       q    Type
REMARK                         _______ _______ _______ _____ _____    ______ ____
ROOT
ATOM      1  C   UNL     1      -1.200  -0.637   0.010  0.00  0.00    +0.125 A 
ATOM      2  C   UNL     1      -2.375   0.101   0.019  0.00  0.00    +0.046 A 
ATOM      3  C   UNL     1      -3.596  -0.545   0.027  0.00  0.00    +0.010 A 
ATOM      4  C   UNL     1      -3.648  -1.927   0.026  0.00  0.00    -0.009 A 
ATOM      5  C   UNL     1      -2.479  -2.665   0.017  0.00  0.00    +0.016 A 
ATOM      6  C   UNL     1      -1.255  -2.023   0.003  0.00  0.00    +0.012 A 
ENDROOT
BRANCH   4   7
ATOM      7  C   UNL     1      -4.981  -2.629   0.034  0.00  0.00    +0.193 C 
ATOM      8  N   UNL     1      -4.845  -3.922   0.717  0.00  0.00    -0.321 N 
ATOM      9  C   UNL     1      -4.762  -3.934   2.104  0.00  0.00    +0.041 A 
ATOM     10  C   UNL     1      -4.064  -4.915   2.788  0.00  0.00    +0.024 A 
ATOM     11  C   UNL     1      -4.009  -4.878   4.168  0.00  0.00    +0.002 A 
ATOM     12  C   UNL     1      -4.646  -3.868   4.872  0.00  0.00    +0.001 A 
ATOM     13  C   UNL     1      -5.346  -2.884   4.207  0.00  0.00    +0.015 A 
ATOM     14  C   UNL     1      -5.412  -2.910   2.816  0.00  0.00    +0.058 A 
ATOM     15  C   UNL     1      -6.153  -1.888   2.054  0.00  0.00    +0.250 C 
ATOM     16  O   UNL     1      -6.926  -1.139   2.621  0.00  0.00    -0.270 OA
ATOM     17  N   UNL     1      -5.964  -1.795   0.725  0.00  0.00    -0.268 N 
ATOM     18  H   UNL     1      -4.814  -4.749   0.211  0.00  0.00    +0.148 HD
BRANCH  17  19
ATOM     19  C   UNL     1      -6.760  -0.835  -0.043  0.00  0.00    +0.184 C 
BRANCH  19  20
ATOM     20  C   UNL     1      -8.026  -1.499  -0.519  0.00  0.00    +0.122 A 
ATOM     21  C   UNL     1      -9.195  -1.529   0.144  0.00  0.00    +0.046 A 
ATOM     22  C   UNL     1     -10.105  -2.252  -0.662  0.00  0.00    +0.041 A 
ATOM     23  C   UNL     1      -9.436  -2.619  -1.770  0.00  0.00    +0.195 A 
ATOM     24  O   UNL     1      -8.179  -2.155  -1.681  0.00  0.00    -0.466 OA
ENDBRANCH  19  20
ENDBRANCH  17  19
ENDBRANCH   4   7
BRANCH   1  26
ATOM     25  C   UNL     1      -0.017   1.425   0.010  0.00  0.00    +0.277 C 
ATOM     26  O   UNL     1       0.002  -0.004   0.002  0.00  0.00    -0.495 OA
ENDBRANCH   1  26
BRANCH   6  27
ATOM     27  C   UNL     1       0.018  -2.829  -0.013  0.00  0.00    +0.155 C 
BRANCH  27  28
ATOM     28  N   UNL     1       0.610  -2.780  -1.352  0.00  0.00    -0.230 N 
ATOM     29  C   UNL     1       0.338  -3.656  -2.337  0.00  0.00    +0.254 C 
ATOM     30  O   UNL     1      -0.425  -4.598  -2.257  0.00  0.00    -0.270 OA
ATOM     31  C   UNL     1       1.122  -3.280  -3.531  0.00  0.00    +0.049 A 
ATOM     32  C   UNL     1       1.247  -3.800  -4.810  0.00  0.00    +0.014 A 
ATOM     33  C   UNL     1       2.096  -3.189  -5.720  0.00  0.00    +0.001 A 
ATOM     34  C   UNL     1       2.818  -2.067  -5.361  0.00  0.00    +0.001 A 
ATOM     35  C   UNL     1       2.703  -1.536  -4.085  0.00  0.00    +0.014 A 
ATOM     36  C   UNL     1       1.858  -2.135  -3.165  0.00  0.00    +0.049 A 
ATOM     37  C   UNL     1       1.492  -1.851  -1.762  0.00  0.00    +0.254 C 
ATOM     38  O   UNL     1       1.919  -0.934  -1.089  0.00  0.00    -0.270 OA
ENDBRANCH  27  28
ENDBRANCH   6  27
TORSDOF 6
