REMARK  Name = ZINC23714478
REMARK  9 active torsions:
REMARK  status: ('A' for Active; 'I' for Inactive)
REMARK    1  A    between atoms: C_1  and  N_2
REMARK    2  A    between atoms: C_3  and  C_5
REMARK    3  A    between atoms: C_9  and  N_10
REMARK    4  A    between atoms: C_11  and  C_13
REMARK    5  A    between atoms: C_16  and  S_19
REMARK    6  A    between atoms: S_19  and  N_22
REMARK    7  A    between atoms: N_22  and  C_23
REMARK    8  A    between atoms: N_22  and  C_24
REMARK    9  A    between atoms: N_31  and  C_34
REMARK                            x       y       z     vdW  Elec       q    Type
REMARK                         _______ _______ _______ _____ _____    ______ ____
ROOT
ATOM      1  N   UNL     1      -0.011   0.966   0.007  0.00  0.00    -0.275 N 
ATOM      2  C   UNL     1      -1.187   1.624   0.017  0.00  0.00    +0.249 C 
ATOM      3  O   UNL     1      -1.204   2.839   0.023  0.00  0.00    -0.270 OA
ATOM      4  H   UNL     1       0.004  -0.134   0.006  0.00  0.00    +0.156 HD
ENDROOT
BRANCH   1   9
ATOM      5  C   UNL     1       2.478   1.181  -0.015  0.00  0.00    +0.068 A 
ATOM      6  C   UNL     1       3.560   2.147  -0.021  0.00  0.00    -0.027 A 
ATOM      7  C   UNL     1       3.177   3.444  -0.009  0.00  0.00    -0.021 A 
ATOM      8  S   UNL     1       1.409   3.393  -0.001  0.00  0.00    -0.079 S 
ATOM      9  C   UNL     1       1.179   1.675  -0.000  0.00  0.00    +0.085 A 
ATOM     10  C   UNL     1       4.081   4.637  -0.009  0.00  0.00    -0.036 C 
ATOM     11  N   UNL     1       5.441   4.185   0.336  0.00  0.00    +0.381 N 
ATOM     12  C   UNL     1       5.827   3.025  -0.480  0.00  0.00    -0.074 C 
ATOM     13  C   UNL     1       5.041   1.787  -0.041  0.00  0.00    +0.018 C 
ATOM     14  C   UNL     1       6.412   5.277   0.191  0.00  0.00    -0.096 C 
ATOM     15  H   UNL     1       5.445   3.873   1.391  0.00  0.00    -0.082 HD
BRANCH   5  18
ATOM     16  C   UNL     1       3.143  -2.370   1.126  0.00  0.00    +0.128 C 
ATOM     17  N   UNL     1       2.877  -0.929   1.137  0.00  0.00    -0.314 N 
ATOM     18  C   UNL     1       2.744  -0.261  -0.026  0.00  0.00    +0.246 C 
ATOM     19  O   UNL     1       2.844  -0.853  -1.084  0.00  0.00    -0.270 OA
ATOM     20  H   UNL     1       2.787  -0.394   2.093  0.00  0.00    +0.149 HD
ENDBRANCH   5  18
ENDBRANCH   1   9
BRANCH   2  21
ATOM     21  C   UNL     1      -2.457   0.868   0.018  0.00  0.00    +0.037 A 
ATOM     22  C   UNL     1      -2.442  -0.528   0.005  0.00  0.00    +0.015 A 
ATOM     23  C   UNL     1      -3.631  -1.228   0.012  0.00  0.00    +0.029 A 
ATOM     24  C   UNL     1      -4.836  -0.550   0.022  0.00  0.00    +0.106 A 
ATOM     25  C   UNL     1      -4.859   0.834   0.030  0.00  0.00    +0.029 A 
ATOM     26  C   UNL     1      -3.677   1.546   0.028  0.00  0.00    +0.015 A 
BRANCH  24  27
ATOM     27  S   UNL     1      -6.350  -1.451   0.024  0.00  0.00    +0.061 S 
ATOM     28  O   UNL     1      -6.059  -2.732   0.567  0.00  0.00    -0.153 OA
ATOM     29  O   UNL     1      -7.334  -0.592   0.585  0.00  0.00    -0.153 OA
BRANCH  27  30
ATOM     30  N   UNL     1      -6.778  -1.693  -1.557  0.00  0.00    -0.177 NA
ATOM     31  C   UNL     1      -6.319  -2.890  -2.265  0.00  0.00    +0.132 C 
BRANCH  30  32
ATOM     32  C   UNL     1      -7.617  -0.710  -2.247  0.00  0.00    +0.080 C 
ATOM     33  C   UNL     1      -8.909  -1.382  -2.716  0.00  0.00    +0.020 C 
ATOM     34  C   UNL     1      -9.785  -0.355  -3.437  0.00  0.00    +0.002 C 
ATOM     35  C   UNL     1      -9.031   0.199  -4.647  0.00  0.00    +0.000 C 
ATOM     36  C   UNL     1      -7.738   0.870  -4.179  0.00  0.00    +0.002 C 
ATOM     37  C   UNL     1      -6.862  -0.157  -3.458  0.00  0.00    +0.020 C 
ENDBRANCH  30  32
ENDBRANCH  27  30
ENDBRANCH  24  27
ENDBRANCH   2  21
TORSDOF 6
