REMARK  Name = ZINC12346810
REMARK  3 active torsions:
REMARK  status: ('A' for Active; 'I' for Inactive)
REMARK    1  A    between atoms: C_3  and  C_6
REMARK    2  A    between atoms: N_11  and  C_14
REMARK    3  A    between atoms: C_14  and  C_15
REMARK                            x       y       z     vdW  Elec       q    Type
REMARK                         _______ _______ _______ _____ _____    ______ ____
ROOT
ATOM      1  C   UNL     1      -2.779   2.954  -1.665  0.00  0.00    +0.148 C 
ATOM      2  C   UNL     1      -1.825   2.309  -0.681  0.00  0.00    +0.058 C 
ATOM      3  C   UNL     1      -0.787   1.608  -1.181  0.00  0.00    +0.039 C 
ATOM      4  C   UNL     1      -0.013   1.086   0.008  0.00  0.00    +0.159 C 
ATOM      5  N   UNL     1      -0.743   1.581   1.184  0.00  0.00    -0.290 N 
ATOM      6  C   UNL     1      -1.795   2.289   0.728  0.00  0.00    +0.247 C 
ATOM      7  O   UNL     1      -2.613   2.842   1.441  0.00  0.00    -0.270 OA
ATOM      8  N   UNL     1      -0.601   1.483  -2.529  0.00  0.00    -0.271 N 
ATOM      9  C   UNL     1      -1.412   2.031  -3.443  0.00  0.00    +0.304 C 
ATOM     10  O   UNL     1      -1.167   1.867  -4.622  0.00  0.00    -0.252 OA
ATOM     11  N   UNL     1      -2.492   2.761  -3.097  0.00  0.00    -0.288 N 
ATOM     12  H   UNL     1       0.160   0.969  -2.841  0.00  0.00    +0.156 HD
ATOM     13  H   UNL     1      -3.066   3.149  -3.775  0.00  0.00    +0.151 HD
ENDROOT
BRANCH   1  16
ATOM     14  C   UNL     1      -3.461   6.513  -0.492  0.00  0.00    +0.008 A 
ATOM     15  C   UNL     1      -3.633   5.146  -0.594  0.00  0.00    +0.013 A 
ATOM     16  C   UNL     1      -2.797   4.436  -1.391  0.00  0.00    +0.015 A 
ATOM     17  S   UNL     1      -1.719   5.710  -2.025  0.00  0.00    -0.099 S 
ATOM     18  C   UNL     1      -2.461   7.104  -1.192  0.00  0.00    +0.045 A 
ENDBRANCH   1  16
BRANCH   5  19
ATOM     19  C   UNL     1      -0.393   1.347   2.587  0.00  0.00    +0.140 C 
BRANCH  19  20
ATOM     20  C   UNL     1       0.537   2.460   3.074  0.00  0.00    +0.136 C 
ATOM     21  C   UNL     1       0.918   2.219   4.547  0.00  0.00    +0.035 C 
ATOM     22  C   UNL     1       2.463   2.126   4.529  0.00  0.00    +0.031 C 
ATOM     23  C   UNL     1       2.816   2.848   3.204  0.00  0.00    +0.160 C 
ATOM     24  O   UNL     1       1.753   2.452   2.308  0.00  0.00    -0.375 OA
ENDBRANCH  19  20
ENDBRANCH   5  19
TORSDOF 3
