REMARK  Name = ZINC19753953
REMARK  5 active torsions:
REMARK  status: ('A' for Active; 'I' for Inactive)
REMARK    1  A    between atoms: C_1  and  C_2
REMARK    2  A    between atoms: C_2  and  C_4
REMARK    3  A    between atoms: C_2  and  O_14
REMARK    4  A    between atoms: C_10  and  N_13
REMARK    5  A    between atoms: O_14  and  C_15
REMARK                            x       y       z     vdW  Elec       q    Type
REMARK                         _______ _______ _______ _____ _____    ______ ____
ROOT
ATOM      1  C   UNL     1      -0.188   1.483   0.185  0.00  0.00    +0.178 A 
ATOM      2  N   UNL     1      -1.331   2.099   0.348  0.00  0.00    -0.130 NA
ATOM      3  N   UNL     1      -1.140   3.365   0.484  0.00  0.00    -0.129 NA
ATOM      4  C   UNL     1       0.156   3.626   0.407  0.00  0.00    +0.161 A 
ATOM      5  N   UNL     1       0.793   2.426   0.214  0.00  0.00    -0.282 N 
ATOM      6  C   UNL     1       2.152   2.373   0.094  0.00  0.00    +0.117 A 
ATOM      7  C   UNL     1       2.891   3.508   0.164  0.00  0.00    +0.041 A 
ATOM      8  C   UNL     1       2.262   4.753   0.362  0.00  0.00    +0.028 A 
ATOM      9  C   UNL     1       0.909   4.813   0.482  0.00  0.00    +0.050 A 
ENDROOT
BRANCH   7  10
ATOM     10  N   UNL     1       4.285   3.442   0.040  0.00  0.00    -0.357 N 
ATOM     11  H   UNL     1       4.887   4.361   0.097  0.00  0.00    +0.142 HD
ATOM     12  H   UNL     1       4.778   2.470  -0.114  0.00  0.00    +0.142 HD
ENDBRANCH   7  10
BRANCH   1  14
ATOM     13  C   UNL     1      -0.182  -0.714   1.335  0.00  0.00    +0.060 C 
ATOM     14  C   UNL     1       0.006   0.001  -0.005  0.00  0.00    +0.238 C 
BRANCH  14  15
ATOM     15  O   UNL     1      -0.953  -0.488  -0.944  0.00  0.00    -0.480 OA
BRANCH  15  16
ATOM     16  C   UNL     1      -0.630  -1.621  -1.622  0.00  0.00    +0.140 A 
ATOM     17  C   UNL     1       0.531  -2.311  -1.309  0.00  0.00    +0.048 A 
ATOM     18  C   UNL     1       0.856  -3.465  -1.996  0.00  0.00    +0.023 A 
ATOM     19  C   UNL     1       0.027  -3.928  -3.003  0.00  0.00    +0.043 A 
ATOM     20  C   UNL     1      -1.129  -3.239  -3.321  0.00  0.00    +0.043 A 
ATOM     21  C   UNL     1      -1.460  -2.087  -2.633  0.00  0.00    +0.084 A 
ATOM     22 CL   UNL     1      -2.912  -1.223  -3.032  0.00  0.00    -0.080 Cl
ATOM     23 CL   UNL     1       0.441  -5.375  -3.869  0.00  0.00    -0.083 Cl
ENDBRANCH  15  16
ENDBRANCH  14  15
ENDBRANCH   1  14
TORSDOF 4
