REMARK  Name = ZINC35564766
REMARK  5 active torsions:
REMARK  status: ('A' for Active; 'I' for Inactive)
REMARK    1  A    between atoms: C_4  and  S_7
REMARK    2  A    between atoms: S_7  and  N_10
REMARK    3  A    between atoms: C_22  and  C_24
REMARK    4  A    between atoms: C_24  and  N_25
REMARK    5  A    between atoms: N_28  and  C_31
REMARK                            x       y       z     vdW  Elec       q    Type
REMARK                         _______ _______ _______ _____ _____    ______ ____
ROOT
ATOM      1  N   UNL     1       2.383   0.014   2.268  0.00  0.00    -0.174 NA
ATOM      2  C   UNL     1       1.980  -1.208   2.976  0.00  0.00    +0.128 C 
ATOM      3  C   UNL     1       3.236  -1.894   3.526  0.00  0.00    +0.125 C 
ATOM      4  N   UNL     1       4.042  -0.895   4.242  0.00  0.00    -0.299 N 
ATOM      5  C   UNL     1       4.446   0.328   3.534  0.00  0.00    +0.125 C 
ATOM      6  C   UNL     1       3.193   1.011   2.982  0.00  0.00    +0.128 C 
ATOM      7  C   UNL     1       4.409  -1.099   5.545  0.00  0.00    +0.198 A 
ATOM      8  N   UNL     1       3.934  -2.186   6.210  0.00  0.00    -0.295 N 
ATOM      9  H   UNL     1       3.341  -2.810   5.763  0.00  0.00    +0.172 HD
ATOM     10  C   UNL     1       4.292  -2.395   7.496  0.00  0.00    +0.253 A 
ATOM     11  O   UNL     1       3.877  -3.365   8.107  0.00  0.00    -0.268 OA
ATOM     12  C   UNL     1       5.153  -1.472   8.116  0.00  0.00    +0.091 A 
ATOM     13  C   UNL     1       5.597  -0.399   7.398  0.00  0.00    +0.034 A 
ATOM     14  N   UNL     1       5.220  -0.241   6.131  0.00  0.00    -0.223 NA
ENDROOT
BRANCH   1  15
ATOM     15  S   UNL     1       1.940   0.261   0.692  0.00  0.00    +0.061 S 
ATOM     16  O   UNL     1       1.971   1.665   0.476  0.00  0.00    -0.153 OA
ATOM     17  O   UNL     1       0.771  -0.517   0.473  0.00  0.00    -0.153 OA
BRANCH  15  21
ATOM     18  C   UNL     1       5.187  -1.520  -1.910  0.00  0.00    +0.000 A 
ATOM     19  C   UNL     1       4.115  -2.297  -1.514  0.00  0.00    +0.002 A 
ATOM     20  C   UNL     1       3.123  -1.753  -0.719  0.00  0.00    +0.028 A 
ATOM     21  C   UNL     1       3.204  -0.432  -0.320  0.00  0.00    +0.105 A 
ATOM     22  C   UNL     1       4.277   0.345  -0.715  0.00  0.00    +0.028 A 
ATOM     23  C   UNL     1       5.268  -0.199  -1.511  0.00  0.00    +0.002 A 
ENDBRANCH  15  21
ENDBRANCH   1  15
BRANCH  13  24
ATOM     24  C   UNL     1       6.521   0.604   8.039  0.00  0.00    -0.022 C 
BRANCH  24  25
ATOM     25  N   UNL     1       7.825   0.569   7.364  0.00  0.00    +0.385 N 
ATOM     26  C   UNL     1       7.666   1.007   5.972  0.00  0.00    -0.059 C 
ATOM     27  C   UNL     1       9.003   0.862   5.236  0.00  0.00    +0.086 C 
ATOM     28  N   UNL     1      10.031   1.596   5.989  0.00  0.00    -0.331 N 
ATOM     29  C   UNL     1      10.151   1.337   7.432  0.00  0.00    +0.086 C 
ATOM     30  C   UNL     1       8.760   1.460   8.064  0.00  0.00    -0.059 C 
ATOM     31  H   UNL     1       8.185  -0.373   7.379  0.00  0.00    -0.081 HD
BRANCH  28  32
ATOM     32  C   UNL     1      10.872   2.514   5.351  0.00  0.00    +0.065 A 
ATOM     33  C   UNL     1      10.503   3.849   5.262  0.00  0.00    +0.026 A 
ATOM     34  C   UNL     1      11.336   4.754   4.631  0.00  0.00    +0.002 A 
ATOM     35  C   UNL     1      12.535   4.331   4.089  0.00  0.00    +0.003 A 
ATOM     36  C   UNL     1      12.907   3.002   4.175  0.00  0.00    +0.040 A 
ATOM     37  C   UNL     1      12.081   2.092   4.810  0.00  0.00    +0.144 A 
ATOM     38  F   UNL     1      12.447   0.794   4.899  0.00  0.00    -0.204 F 
ENDBRANCH  28  32
ENDBRANCH  24  25
ENDBRANCH  13  24
TORSDOF 5
