REMARK  Name = ZINC39663982
REMARK  9 active torsions:
REMARK  status: ('A' for Active; 'I' for Inactive)
REMARK    1  A    between atoms: C_1  and  C_2
REMARK    2  A    between atoms: C_5  and  C_8
REMARK    3  A    between atoms: C_12  and  C_21
REMARK    4  A    between atoms: N_23  and  C_24
REMARK    5  A    between atoms: C_24  and  C_25
REMARK    6  A    between atoms: C_25  and  C_27
REMARK    7  A    between atoms: C_25  and  N_35
REMARK    8  A    between atoms: C_30  and  O_33
REMARK    9  A    between atoms: O_33  and  C_34
REMARK                            x       y       z     vdW  Elec       q    Type
REMARK                         _______ _______ _______ _____ _____    ______ ____
ROOT
ATOM      1  C   UNL     1      -0.038  -4.394  -0.112  0.00  0.00    +0.247 C 
ATOM      2  O   UNL     1      -0.082  -5.120  -1.085  0.00  0.00    -0.270 OA
ATOM      3  N   UNL     1       0.151  -4.922   1.114  0.00  0.00    -0.296 N 
ATOM      4  C   UNL     1       0.110  -4.223   2.420  0.00  0.00    +0.121 C 
ATOM      5  C   UNL     1      -0.598  -5.214   3.371  0.00  0.00    +0.100 C 
ATOM      6  C   UNL     1      -0.370  -6.596   2.737  0.00  0.00    -0.004 C 
ATOM      7  C   UNL     1       0.442  -6.333   1.461  0.00  0.00    +0.115 C 
ATOM      8  C   UNL     1      -1.707  -7.240   2.381  0.00  0.00    -0.010 C 
ATOM      9  C   UNL     1      -1.457  -8.637   1.804  0.00  0.00    -0.082 C 
ATOM     10  N   UNL     1      -0.744  -9.456   2.792  0.00  0.00    +0.379 N 
ATOM     11  C   UNL     1       0.579  -8.879   3.060  0.00  0.00    -0.082 C 
ATOM     12  C   UNL     1       0.415  -7.492   3.689  0.00  0.00    -0.010 C 
ATOM     13  H   UNL     1      -1.276  -9.486   3.649  0.00  0.00    -0.086 HD
ATOM     14  H   UNL     1      -0.635 -10.393   2.435  0.00  0.00    -0.086 HD
ENDROOT
BRANCH   1  19
ATOM     15  C   UNL     1      -0.639   1.295  -0.733  0.00  0.00    +0.044 C 
ATOM     16  C   UNL     1      -0.481  -0.195  -0.571  0.00  0.00    -0.050 A 
ATOM     17  C   UNL     1      -0.888  -1.045  -1.584  0.00  0.00    +0.004 A 
ATOM     18  C   UNL     1      -0.746  -2.410  -1.441  0.00  0.00    +0.013 A 
ATOM     19  C   UNL     1      -0.192  -2.932  -0.271  0.00  0.00    +0.037 A 
ATOM     20  C   UNL     1       0.216  -2.069   0.747  0.00  0.00    +0.013 A 
ATOM     21  C   UNL     1       0.074  -0.706   0.589  0.00  0.00    +0.004 A 
ENDBRANCH   1  19
BRANCH   5  22
ATOM     22  C   UNL     1      -2.071  -4.906   3.449  0.00  0.00    +0.218 C 
ATOM     23  O   UNL     1      -2.651  -4.469   2.477  0.00  0.00    -0.275 OA
ATOM     24  N   UNL     1      -2.743  -5.115   4.598  0.00  0.00    -0.316 N 
ATOM     25  H   UNL     1      -2.297  -5.530   5.353  0.00  0.00    +0.149 HD
BRANCH  24  26
ATOM     26  C   UNL     1      -4.149  -4.716   4.707  0.00  0.00    +0.093 C 
BRANCH  26  27
ATOM     27  C   UNL     1      -4.637  -4.954   6.138  0.00  0.00    -0.020 C 
BRANCH  27  28
ATOM     28  C   UNL     1      -4.641  -6.433   6.427  0.00  0.00    -0.059 A 
ATOM     29  C   UNL     1      -5.681  -7.223   5.971  0.00  0.00    +0.005 A 
ATOM     30  C   UNL     1      -5.688  -8.579   6.235  0.00  0.00    +0.046 A 
ATOM     31  C   UNL     1      -4.650  -9.148   6.957  0.00  0.00    +0.120 A 
ATOM     32  C   UNL     1      -3.607  -8.354   7.413  0.00  0.00    +0.046 A 
ATOM     33  C   UNL     1      -3.603  -7.000   7.142  0.00  0.00    +0.005 A 
BRANCH  31  34
ATOM     34  O   UNL     1      -4.654 -10.482   7.219  0.00  0.00    -0.495 OA
ATOM     35  C   UNL     1      -3.553 -11.000   7.968  0.00  0.00    +0.277 C 
ENDBRANCH  31  34
ENDBRANCH  27  28
BRANCH  27  36
ATOM     36  N   UNL     1      -5.998  -4.422   6.286  0.00  0.00    +0.385 N 
ATOM     37  C   UNL     1      -6.435  -4.520   7.702  0.00  0.00    -0.078 C 
ATOM     38  C   UNL     1      -7.562  -3.461   7.799  0.00  0.00    -0.020 C 
ATOM     39  C   UNL     1      -7.040  -2.317   6.900  0.00  0.00    -0.020 C 
ATOM     40  C   UNL     1      -6.021  -2.981   5.955  0.00  0.00    -0.078 C 
ATOM     41  H   UNL     1      -6.636  -4.927   5.688  0.00  0.00    -0.081 HD
ENDBRANCH  27  36
ENDBRANCH  26  27
ENDBRANCH  24  26
ENDBRANCH   5  22
TORSDOF 7
