REMARK  Name = ZINC08756393
REMARK  11 active torsions:
REMARK  status: ('A' for Active; 'I' for Inactive)
REMARK    1  A    between atoms: C_1  and  C_2
REMARK    2  A    between atoms: C_2  and  O_3
REMARK    3  A    between atoms: O_3  and  C_4
REMARK    4  A    between atoms: C_4  and  C_6
REMARK    5  A    between atoms: C_7  and  C_19
REMARK    6  A    between atoms: C_12  and  C_14
REMARK    7  A    between atoms: C_19  and  S_20
REMARK    8  A    between atoms: S_20  and  C_21
REMARK    9  A    between atoms: N_26  and  C_27
REMARK   10  A    between atoms: C_30  and  O_33
REMARK   11  A    between atoms: O_33  and  C_34
REMARK                            x       y       z     vdW  Elec       q    Type
REMARK                         _______ _______ _______ _____ _____    ______ ____
ROOT
ATOM      1  C   UNL     1       9.453  -3.135   7.172  0.00  0.00    +0.082 C 
ATOM      2  C   UNL     1       8.363  -2.992   7.956  0.00  0.00    +0.034 C 
ATOM      3  N   UNL     1       8.362  -3.431   9.249  0.00  0.00    -0.272 N 
ATOM      4  C   UNL     1       9.407  -4.034   9.829  0.00  0.00    +0.304 C 
ATOM      5  O   UNL     1       9.310  -4.395  10.986  0.00  0.00    -0.252 OA
ATOM      6  N   UNL     1      10.566  -4.247   9.175  0.00  0.00    -0.285 N 
ATOM      7  C   UNL     1      10.672  -3.804   7.775  0.00  0.00    +0.179 C 
ATOM      8  H   UNL     1       7.557  -3.304   9.775  0.00  0.00    +0.156 HD
ATOM      9  H   UNL     1      11.312  -4.682   9.616  0.00  0.00    +0.151 HD
ENDROOT
BRANCH   7  10
ATOM     10  C   UNL     1      11.006  -5.008   6.931  0.00  0.00    +0.130 A 
ATOM     11  C   UNL     1      11.961  -5.065   5.986  0.00  0.00    +0.047 A 
ATOM     12  C   UNL     1      11.930  -6.374   5.451  0.00  0.00    +0.041 A 
ATOM     13  C   UNL     1      10.953  -7.035   6.096  0.00  0.00    +0.195 A 
ATOM     14  O   UNL     1      10.396  -6.203   6.992  0.00  0.00    -0.466 OA
ENDBRANCH   7  10
BRANCH   1  15
ATOM     15  C   UNL     1       9.457  -2.676   5.834  0.00  0.00    +0.339 C 
ATOM     16  O   UNL     1      10.006  -1.627   5.553  0.00  0.00    -0.245 OA
BRANCH  15  17
ATOM     17  O   UNL     1       8.853  -3.401   4.870  0.00  0.00    -0.462 OA
BRANCH  17  19
ATOM     18  C   UNL     1       8.165  -3.831   2.594  0.00  0.00    +0.048 C 
ATOM     19  C   UNL     1       8.896  -2.878   3.541  0.00  0.00    +0.229 C 
ENDBRANCH  17  19
ENDBRANCH  15  17
ENDBRANCH   1  15
BRANCH   2  20
ATOM     20  C   UNL     1       7.129  -2.332   7.396  0.00  0.00    +0.127 C 
BRANCH  20  21
ATOM     21  S   UNL     1       5.878  -3.592   7.043  0.00  0.00    -0.091 S 
BRANCH  21  22
ATOM     22  C   UNL     1       4.584  -2.571   6.420  0.00  0.00    +0.158 A 
ATOM     23  N   UNL     1       4.353  -2.200   5.188  0.00  0.00    -0.158 NA
ATOM     24  N   UNL     1       3.281  -1.391   4.888  0.00  0.00    -0.253 N 
ATOM     25  H   UNL     1       3.106  -1.114   3.975  0.00  0.00    +0.191 HD
ATOM     26  C   UNL     1       2.466  -0.988   5.916  0.00  0.00    +0.190 A 
ATOM     27  N   UNL     1       1.391  -0.221   5.883  0.00  0.00    -0.223 NA
ATOM     28  S   UNL     1       3.258  -1.774   7.311  0.00  0.00    -0.022 S 
BRANCH  27  29
ATOM     29  C   UNL     1       0.889   0.203   4.683  0.00  0.00    +0.067 A 
ATOM     30  C   UNL     1       1.259   1.448   4.169  0.00  0.00    +0.031 A 
ATOM     31  C   UNL     1       0.749   1.871   2.959  0.00  0.00    +0.048 A 
ATOM     32  C   UNL     1      -0.129   1.062   2.252  0.00  0.00    +0.120 A 
ATOM     33  C   UNL     1      -0.503  -0.174   2.761  0.00  0.00    +0.048 A 
ATOM     34  C   UNL     1       0.005  -0.608   3.967  0.00  0.00    +0.031 A 
BRANCH  32  35
ATOM     35  O   UNL     1      -0.628   1.483   1.059  0.00  0.00    -0.495 OA
ATOM     36  C   UNL     1      -1.527   0.601   0.384  0.00  0.00    +0.277 C 
ENDBRANCH  32  35
ENDBRANCH  27  29
ENDBRANCH  21  22
ENDBRANCH  20  21
ENDBRANCH   2  20
TORSDOF 9
