REMARK  Name = ZINC09716189
REMARK  6 active torsions:
REMARK  status: ('A' for Active; 'I' for Inactive)
REMARK    1  A    between atoms: C_4  and  C_7
REMARK    2  A    between atoms: N_9  and  C_10
REMARK    3  A    between atoms: C_10  and  C_12
REMARK    4  A    between atoms: C_10  and  C_24
REMARK    5  A    between atoms: N_26  and  N_27
REMARK    6  A    between atoms: C_28  and  C_29
REMARK                            x       y       z     vdW  Elec       q    Type
REMARK                         _______ _______ _______ _____ _____    ______ ____
ROOT
ATOM      1  C   UNL     1       1.565  10.088   0.038  0.00  0.00    +0.212 C 
ENDROOT
BRANCH   1   2
ATOM      2  C   UNL     1       0.798  10.526  -1.182  0.00  0.00    +0.099 A 
ATOM      3  C   UNL     1      -0.665  10.521  -1.168  0.00  0.00    +0.013 A 
ATOM      4  C   UNL     1      -1.389  10.128  -0.041  0.00  0.00    +0.010 A 
ATOM      5  C   UNL     1      -2.755  10.146  -0.075  0.00  0.00    +0.001 A 
ATOM      6  C   UNL     1      -3.436  10.555  -1.215  0.00  0.00    +0.001 A 
ATOM      7  C   UNL     1      -2.747  10.953  -2.340  0.00  0.00    +0.014 A 
ATOM      8  C   UNL     1      -1.353  10.943  -2.328  0.00  0.00    +0.050 A 
ATOM      9  C   UNL     1      -0.562  11.355  -3.494  0.00  0.00    +0.272 A 
ATOM     10  O   UNL     1      -1.111  11.722  -4.518  0.00  0.00    -0.266 OA
ATOM     11  N   UNL     1       0.784  11.320  -3.410  0.00  0.00    -0.242 N 
ATOM     12  H   UNL     1       1.397  11.625  -4.271  0.00  0.00    +0.192 HD
ATOM     13  N   UNL     1       1.437  10.904  -2.250  0.00  0.00    -0.173 NA
ENDBRANCH   1   2
BRANCH   1  16
ATOM     14  C   UNL     1       3.063  11.946   0.526  0.00  0.00    +0.245 C 
ATOM     15  O   UNL     1       2.114  12.553   0.984  0.00  0.00    -0.270 OA
ATOM     16  N   UNL     1       2.894  10.706   0.029  0.00  0.00    -0.295 N 
ATOM     17  H   UNL     1       3.752  10.157  -0.385  0.00  0.00    +0.150 HD
BRANCH  14  21
ATOM     18  C   UNL     1       6.915  13.738   0.498  0.00  0.00    +0.000 A 
ATOM     19  C   UNL     1       5.837  14.431   1.020  0.00  0.00    +0.001 A 
ATOM     20  C   UNL     1       4.583  13.855   1.031  0.00  0.00    +0.013 A 
ATOM     21  C   UNL     1       4.404  12.570   0.517  0.00  0.00    +0.037 A 
ATOM     22  C   UNL     1       5.497  11.874  -0.002  0.00  0.00    +0.013 A 
ATOM     23  C   UNL     1       6.744  12.463  -0.013  0.00  0.00    +0.001 A 
ENDBRANCH  14  21
ENDBRANCH   1  16
BRANCH   1  24
ATOM     24  C   UNL     1       1.709   8.588   0.030  0.00  0.00    +0.259 C 
ATOM     25  O   UNL     1       2.813   8.084   0.016  0.00  0.00    -0.272 OA
ATOM     26  N   UNL     1       0.611   7.806   0.036  0.00  0.00    -0.205 N 
ATOM     27  H   UNL     1      -0.389   8.262   0.048  0.00  0.00    +0.177 HD
BRANCH  26  28
ATOM     28  N   UNL     1       0.745   6.411   0.028  0.00  0.00    -0.187 NA
ATOM     29  C   UNL     1      -0.312   5.657   0.035  0.00  0.00    +0.145 C 
BRANCH  29  30
ATOM     30  C   UNL     1      -0.172   4.191   0.026  0.00  0.00    +0.077 A 
ATOM     31  C   UNL     1      -1.272   3.386   0.032  0.00  0.00    +0.209 A 
ATOM     32  O   UNL     1      -1.187   2.055   0.019  0.00  0.00    -0.462 OA
ATOM     33  C   UNL     1      -0.017   1.387   0.010  0.00  0.00    +0.138 A 
ATOM     34  C   UNL     1       0.002  -0.004   0.002  0.00  0.00    +0.047 A 
ATOM     35  C   UNL     1       1.205  -0.677  -0.013  0.00  0.00    +0.004 A 
ATOM     36  C   UNL     1       2.406   0.017  -0.021  0.00  0.00    +0.001 A 
ATOM     37  C   UNL     1       2.411   1.395  -0.013  0.00  0.00    +0.015 A 
ATOM     38  C   UNL     1       1.200   2.087   0.002  0.00  0.00    +0.065 A 
ATOM     39  C   UNL     1       1.162   3.562   0.010  0.00  0.00    +0.201 A 
ATOM     40  O   UNL     1       2.182   4.228   0.004  0.00  0.00    -0.286 OA
ENDBRANCH  29  30
ENDBRANCH  26  28
ENDBRANCH   1  24
TORSDOF 6
