REMARK  Name = ZINC09517083
REMARK  5 active torsions:
REMARK  status: ('A' for Active; 'I' for Inactive)
REMARK    1  A    between atoms: C_1  and  C_2
REMARK    2  A    between atoms: C_2  and  C_4
REMARK    3  A    between atoms: C_2  and  N_41
REMARK    4  A    between atoms: C_12  and  C_13
REMARK    5  A    between atoms: C_12  and  N_41
REMARK                            x       y       z     vdW  Elec       q    Type
REMARK                         _______ _______ _______ _____ _____    ______ ____
ROOT
ATOM      1  C   UNL     1      -0.135   2.481  -6.809  0.00  0.00    -0.006 C 
ENDROOT
BRANCH   1   2
ATOM      2  C   UNL     1      -0.261   2.234  -5.328  0.00  0.00    +0.094 A 
ATOM      3  N   UNL     1       0.793   1.715  -4.647  0.00  0.00    -0.312 N 
ATOM      4  H   UNL     1       1.613   1.509  -5.125  0.00  0.00    +0.170 HD
ATOM      5  C   UNL     1       0.724   1.479  -3.323  0.00  0.00    +0.260 A 
ATOM      6  O   UNL     1       1.678   1.012  -2.725  0.00  0.00    -0.267 OA
ATOM      7  C   UNL     1      -0.492   1.786  -2.631  0.00  0.00    +0.075 A 
ATOM      8  C   UNL     1      -0.791   1.612  -1.202  0.00  0.00    -0.023 A 
ATOM      9  C   UNL     1      -2.016   1.978  -0.788  0.00  0.00    -0.004 A 
ATOM     10  S   UNL     1      -2.837   2.567  -2.251  0.00  0.00    -0.073 S 
ATOM     11  C   UNL     1      -1.523   2.318  -3.416  0.00  0.00    +0.116 A 
ATOM     12  N   UNL     1      -1.381   2.524  -4.723  0.00  0.00    -0.229 NA
ATOM     13  C   UNL     1      -2.207   1.760   0.689  0.00  0.00    +0.043 C 
ATOM     14  C   UNL     1      -0.772   1.602   1.246  0.00  0.00    +0.010 C 
ATOM     15  C   UNL     1      -0.013   1.086   0.008  0.00  0.00    +0.037 C 
ENDBRANCH   1   2
BRANCH   1  16
ATOM     16  N   UNL     1      -1.401   3.044  -7.315  0.00  0.00    +0.388 N 
ATOM     17  H   UNL     1      -2.163   2.379  -7.135  0.00  0.00    -0.084 HD
ATOM     18  H   UNL     1      -1.597   3.927  -6.829  0.00  0.00    -0.084 HD
BRANCH  16  20
ATOM     19  C   UNL     1      -0.674   4.668  -9.005  0.00  0.00    -0.009 C 
ATOM     20  C   UNL     1      -1.307   3.296  -8.765  0.00  0.00    -0.043 C 
BRANCH  20  21
ATOM     21  C   UNL     1      -2.690   3.270  -9.363  0.00  0.00    -0.059 A 
ATOM     22  C   UNL     1      -3.750   3.834  -8.677  0.00  0.00    +0.005 A 
ATOM     23  C   UNL     1      -5.018   3.816  -9.225  0.00  0.00    +0.041 A 
ATOM     24  C   UNL     1      -5.231   3.222 -10.457  0.00  0.00    +0.158 A 
ATOM     25  C   UNL     1      -4.170   2.651 -11.142  0.00  0.00    +0.159 A 
ATOM     26  C   UNL     1      -2.899   2.676 -10.593  0.00  0.00    +0.043 A 
ATOM     27  F   UNL     1      -4.375   2.071 -12.345  0.00  0.00    -0.202 F 
ATOM     28  F   UNL     1      -6.472   3.198 -10.991  0.00  0.00    -0.202 F 
ENDBRANCH  20  21
ENDBRANCH  16  20
ENDBRANCH   1  16
TORSDOF 4
