REMARK  Name = ZINC09837356
REMARK  5 active torsions:
REMARK  status: ('A' for Active; 'I' for Inactive)
REMARK    1  A    between atoms: C_5  and  C_7
REMARK    2  A    between atoms: C_10  and  S_13
REMARK    3  A    between atoms: S_13  and  C_14
REMARK    4  A    between atoms: C_14  and  C_15
REMARK    5  A    between atoms: N_17  and  C_18
REMARK                            x       y       z     vdW  Elec       q    Type
REMARK                         _______ _______ _______ _____ _____    ______ ____
ROOT
ATOM      1  C   UNL     1       3.590   6.110   0.676  0.00  0.00    +0.228 C 
ATOM      2  O   UNL     1       4.634   5.553   0.413  0.00  0.00    -0.275 OA
ATOM      3  N   UNL     1       2.426   5.437   0.586  0.00  0.00    -0.284 N 
ATOM      4  H   UNL     1       1.586   5.900   0.732  0.00  0.00    +0.155 HD
ENDROOT
BRANCH   3   5
ATOM      5  C   UNL     1       2.429   4.080   0.285  0.00  0.00    +0.045 A 
ATOM      6  C   UNL     1       3.382   3.557  -0.589  0.00  0.00    +0.024 A 
ATOM      7  C   UNL     1       3.389   2.212  -0.891  0.00  0.00    +0.003 A 
ATOM      8  C   UNL     1       2.449   1.358  -0.332  0.00  0.00    +0.012 A 
ATOM      9  C   UNL     1       1.491   1.857   0.542  0.00  0.00    +0.035 A 
ATOM     10  C   UNL     1       1.476   3.230   0.856  0.00  0.00    +0.054 A 
ATOM     11  C   UNL     1       0.457   3.759   1.781  0.00  0.00    +0.196 C 
ATOM     12  O   UNL     1       0.575   4.872   2.255  0.00  0.00    -0.287 OA
ATOM     13  C   UNL     1      -0.711   2.918   2.127  0.00  0.00    +0.033 A 
ATOM     14  C   UNL     1      -1.820   3.472   2.756  0.00  0.00    +0.012 A 
ATOM     15  C   UNL     1      -2.914   2.671   3.054  0.00  0.00    +0.001 A 
ATOM     16  C   UNL     1      -2.900   1.322   2.747  0.00  0.00    +0.001 A 
ATOM     17  C   UNL     1      -1.801   0.755   2.127  0.00  0.00    +0.012 A 
ATOM     18  C   UNL     1      -0.701   1.546   1.809  0.00  0.00    +0.033 A 
ATOM     19  C   UNL     1       0.483   0.958   1.145  0.00  0.00    +0.195 C 
ATOM     20  O   UNL     1       0.623  -0.247   1.092  0.00  0.00    -0.287 OA
ENDBRANCH   3   5
BRANCH   1  21
ATOM     21  C   UNL     1       3.594   7.555   1.105  0.00  0.00    +0.173 C 
BRANCH  21  22
ATOM     22  S   UNL     1       5.295   8.173   1.128  0.00  0.00    -0.077 S 
BRANCH  22  26
ATOM     23  C   UNL     1       5.274  11.918   2.241  0.00  0.00    +0.165 A 
ATOM     24  N   UNL     1       5.961  10.794   1.844  0.00  0.00    -0.316 N 
ATOM     25  H   UNL     1       6.919  10.703   1.727  0.00  0.00    +0.169 HD
ATOM     26  C   UNL     1       5.011   9.832   1.648  0.00  0.00    +0.190 A 
ATOM     27  N   UNL     1       3.845  10.377   1.913  0.00  0.00    -0.122 NA
ATOM     28  N   UNL     1       4.000  11.603   2.267  0.00  0.00    -0.128 NA
BRANCH  23  33
ATOM     29  C   UNL     1       5.590  15.514   3.277  0.00  0.00    +0.001 A 
ATOM     30  C   UNL     1       6.960  15.698   3.204  0.00  0.00    +0.003 A 
ATOM     31  C   UNL     1       7.784  14.657   2.817  0.00  0.00    +0.039 A 
ATOM     32  C   UNL     1       7.244  13.423   2.508  0.00  0.00    +0.134 A 
ATOM     33  C   UNL     1       5.861  13.233   2.576  0.00  0.00    +0.054 A 
ATOM     34  C   UNL     1       5.037  14.290   2.967  0.00  0.00    +0.014 A 
ATOM     35  F   UNL     1       8.050  12.405   2.137  0.00  0.00    -0.205 F 
ENDBRANCH  23  33
ENDBRANCH  22  26
ENDBRANCH  21  22
ENDBRANCH   1  21
TORSDOF 5
