REMARK  Name = ZINC10761436
REMARK  9 active torsions:
REMARK  status: ('A' for Active; 'I' for Inactive)
REMARK    1  A    between atoms: C_1  and  C_2
REMARK    2  A    between atoms: C_5  and  C_21
REMARK    3  A    between atoms: C_6  and  O_8
REMARK    4  A    between atoms: O_8  and  S_9
REMARK    5  A    between atoms: S_9  and  C_12
REMARK    6  A    between atoms: C_13  and  C_20
REMARK    7  A    between atoms: C_15  and  C_19
REMARK    8  A    between atoms: C_17  and  C_18
REMARK    9  A    between atoms: C_21  and  C_23
REMARK                            x       y       z     vdW  Elec       q    Type
REMARK                         _______ _______ _______ _____ _____    ______ ____
ROOT
ATOM      1  S   UNL     1       1.103  -2.746   2.638  0.00  0.00    +0.151 S 
ATOM      2  O   UNL     1       0.505  -3.525   3.665  0.00  0.00    -0.131 OA
ATOM      3  O   UNL     1       2.022  -3.295   1.704  0.00  0.00    -0.131 OA
ENDROOT
BRANCH   1   4
ATOM      4  C   UNL     1       1.933  -1.412   3.436  0.00  0.00    +0.134 A 
ATOM      5  C   UNL     1       1.462  -0.928   4.643  0.00  0.00    -0.022 A 
ATOM      6  C   UNL     1       2.113   0.119   5.269  0.00  0.00    +0.008 A 
ATOM      7  C   UNL     1       3.234   0.681   4.689  0.00  0.00    -0.050 A 
ATOM      8  C   UNL     1       3.706   0.197   3.483  0.00  0.00    +0.008 A 
ATOM      9  C   UNL     1       3.058  -0.853   2.859  0.00  0.00    -0.022 A 
ATOM     10  C   UNL     1       3.574  -1.384   1.547  0.00  0.00    +0.046 C 
ATOM     11  C   UNL     1       3.943   1.823   5.371  0.00  0.00    +0.044 C 
ATOM     12  C   UNL     1       0.239  -1.541   5.275  0.00  0.00    +0.046 C 
ENDBRANCH   1   4
BRANCH   1  13
ATOM     13  O   UNL     1      -0.036  -2.146   1.827  0.00  0.00    -0.342 OA
BRANCH  13  19
ATOM     14  C   UNL     1       1.432   1.922  -0.423  0.00  0.00    +0.044 C 
ATOM     15  C   UNL     1       1.088   0.455  -0.451  0.00  0.00    -0.047 A 
ATOM     16  C   UNL     1       1.183  -0.251  -1.640  0.00  0.00    +0.004 A 
ATOM     17  C   UNL     1       0.871  -1.592  -1.679  0.00  0.00    +0.015 A 
ATOM     18  C   UNL     1       0.457  -2.246  -0.512  0.00  0.00    +0.062 A 
ATOM     19  C   UNL     1       0.363  -1.526   0.690  0.00  0.00    +0.167 A 
ATOM     20  C   UNL     1       0.687  -0.177   0.709  0.00  0.00    +0.052 A 
BRANCH  18  21
ATOM     21  C   UNL     1       0.122  -3.675  -0.545  0.00  0.00    +0.164 C 
ATOM     22  O   UNL     1      -0.236  -4.237   0.468  0.00  0.00    -0.292 OA
ATOM     23  C   UNL     1       0.224  -4.443  -1.838  0.00  0.00    +0.092 C 
ENDBRANCH  18  21
ENDBRANCH  13  19
ENDBRANCH   1  13
TORSDOF 4
