REMARK  Name = ZINC14141026
REMARK  7 active torsions:
REMARK  status: ('A' for Active; 'I' for Inactive)
REMARK    1  A    between atoms: C_1  and  C_2
REMARK    2  A    between atoms: N_5  and  C_9
REMARK    3  A    between atoms: C_9  and  N_10
REMARK    4  A    between atoms: C_14  and  C_17
REMARK    5  A    between atoms: C_17  and  C_18
REMARK    6  A    between atoms: C_17  and  C_19
REMARK    7  A    between atoms: C_17  and  C_20
REMARK                            x       y       z     vdW  Elec       q    Type
REMARK                         _______ _______ _______ _____ _____    ______ ____
ROOT
ATOM      1  N   UNL     1      -0.780   3.557   0.045  0.00  0.00    -0.226 N 
ATOM      2  C   UNL     1      -1.219   2.352   0.466  0.00  0.00    +0.177 A 
ATOM      3  S   UNL     1      -2.773   2.018   1.101  0.00  0.00    -0.011 S 
ATOM      4  N   UNL     1      -0.227   1.461   0.303  0.00  0.00    -0.321 N 
ATOM      5  C   UNL     1       0.824   2.049  -0.204  0.00  0.00    +0.135 A 
ATOM      6  N   UNL     1       0.544   3.366  -0.386  0.00  0.00    -0.154 NA
ATOM      7  H   UNL     1      -0.380   0.409   0.588  0.00  0.00    +0.169 HD
ENDROOT
BRANCH   5   8
ATOM      8  C   UNL     1       2.131   1.376  -0.535  0.00  0.00    +0.022 C 
ATOM      9  C   UNL     1       3.179   1.756   0.513  0.00  0.00    +0.019 C 
ATOM     10  C   UNL     1       1.938  -0.142  -0.537  0.00  0.00    +0.019 C 
ATOM     11  C   UNL     1       2.604   1.832  -1.917  0.00  0.00    +0.019 C 
ENDBRANCH   5   8
BRANCH   1  12
ATOM     12  C   UNL     1      -1.532   4.814   0.041  0.00  0.00    +0.233 C 
BRANCH  12  16
ATOM     13  C   UNL     1      -3.846   7.887   3.112  0.00  0.00    +0.039 C 
ATOM     14  C   UNL     1      -2.767   6.809   2.988  0.00  0.00    +0.129 C 
ATOM     15  C   UNL     1      -2.692   6.326   1.537  0.00  0.00    +0.117 C 
ATOM     16  N   UNL     1      -1.603   5.346   1.409  0.00  0.00    -0.279 NA
ATOM     17  C   UNL     1      -0.319   5.939   1.810  0.00  0.00    +0.114 C 
ATOM     18  C   UNL     1      -0.418   6.426   3.258  0.00  0.00    +0.175 C 
ATOM     19  O   UNL     1      -1.502   7.353   3.371  0.00  0.00    -0.374 OA
ENDBRANCH  12  16
ENDBRANCH   1  12
TORSDOF 3
