REMARK  Name = ZINC64079217
REMARK  4 active torsions:
REMARK  status: ('A' for Active; 'I' for Inactive)
REMARK    1  A    between atoms: C_1  and  C_2
REMARK    2  A    between atoms: C_2  and  C_3
REMARK    3  A    between atoms: C_2  and  C_4
REMARK    4  A    between atoms: C_9  and  N_14
REMARK                            x       y       z     vdW  Elec       q    Type
REMARK                         _______ _______ _______ _____ _____    ______ ____
ROOT
ATOM      1  C   UNL     1      -2.379  -0.433  -0.245  0.00  0.00    +0.263 C 
ATOM      2  N   UNL     1      -2.732  -1.859  -0.207  0.00  0.00    -0.306 N 
ATOM      3  C   UNL     1      -2.808  -2.208   1.149  0.00  0.00    +0.074 A 
ATOM      4  C   UNL     1      -3.104  -3.418   1.762  0.00  0.00    +0.053 A 
ATOM      5  C   UNL     1      -3.117  -3.509   3.146  0.00  0.00    +0.054 A 
ATOM      6  C   UNL     1      -2.834  -2.389   3.916  0.00  0.00    +0.030 A 
ATOM      7  C   UNL     1      -2.540  -1.185   3.307  0.00  0.00    +0.049 A 
ATOM      8  C   UNL     1      -2.525  -1.086   1.921  0.00  0.00    +0.144 A 
ATOM      9  O   UNL     1      -2.267  -0.016   1.118  0.00  0.00    -0.469 OA
ATOM     10  H   UNL     1      -2.882  -2.441  -0.968  0.00  0.00    +0.150 HD
ENDROOT
BRANCH   5  11
ATOM     11  N   UNL     1      -3.416  -4.731   3.766  0.00  0.00    -0.256 N 
ATOM     12  C   UNL     1      -4.700  -5.026   4.064  0.00  0.00    +0.267 A 
ATOM     13  O   UNL     1      -5.596  -4.247   3.800  0.00  0.00    -0.267 OA
ATOM     14  C   UNL     1      -4.987  -6.316   4.715  0.00  0.00    +0.063 A 
ATOM     15  C   UNL     1      -6.285  -6.694   5.053  0.00  0.00    +0.015 A 
ATOM     16  C   UNL     1      -6.501  -7.913   5.661  0.00  0.00    +0.001 A 
ATOM     17  C   UNL     1      -5.437  -8.759   5.935  0.00  0.00    +0.002 A 
ATOM     18  C   UNL     1      -4.146  -8.396   5.606  0.00  0.00    +0.026 A 
ATOM     19  C   UNL     1      -3.909  -7.175   4.994  0.00  0.00    +0.054 A 
ATOM     20  N   UNL     1      -2.629  -6.773   4.646  0.00  0.00    -0.334 N 
ATOM     21  H   UNL     1      -1.875  -7.355   4.832  0.00  0.00    +0.168 HD
ATOM     22  C   UNL     1      -2.422  -5.587   4.048  0.00  0.00    +0.166 A 
ATOM     23  S   UNL     1      -0.820  -5.146   3.635  0.00  0.00    -0.012 S 
ENDBRANCH   5  11
BRANCH   1  25
ATOM     24  C   UNL     1      -0.618   1.226  -0.868  0.00  0.00    +0.012 C 
ATOM     25  C   UNL     1      -1.044  -0.240  -0.967  0.00  0.00    +0.042 C 
ATOM     26  C   UNL     1       0.021  -1.125  -0.315  0.00  0.00    +0.012 C 
ENDBRANCH   1  25
TORSDOF 2
