REMARK  Name = ZINC20029304
REMARK  8 active torsions:
REMARK  status: ('A' for Active; 'I' for Inactive)
REMARK    1  A    between atoms: C_1  and  C_2
REMARK    2  A    between atoms: N_13  and  C_18
REMARK    3  A    between atoms: C_15  and  C_16
REMARK    4  A    between atoms: C_18  and  C_19
REMARK    5  A    between atoms: C_19  and  C_21
REMARK    6  A    between atoms: C_19  and  O_34
REMARK    7  A    between atoms: C_21  and  N_22
REMARK    8  A    between atoms: N_25  and  C_28
REMARK                            x       y       z     vdW  Elec       q    Type
REMARK                         _______ _______ _______ _____ _____    ______ ____
ROOT
ATOM      1  C   UNL     1       1.864   9.162   0.034  0.00  0.00    +0.045 C 
ATOM      2  C   UNL     1       1.286   7.771   0.031  0.00  0.00    -0.024 A 
ATOM      3  C   UNL     1      -0.066   7.584   0.043  0.00  0.00    +0.075 A 
ATOM      4  C   UNL     1      -0.591   6.286   0.041  0.00  0.00    +0.258 A 
ATOM      5  O   UNL     1      -1.801   6.126   0.052  0.00  0.00    -0.267 OA
ATOM      6  N   UNL     1       0.221   5.210   0.028  0.00  0.00    -0.260 N 
ATOM      7  C   UNL     1      -0.064   3.845   0.023  0.00  0.00    +0.075 A 
ATOM      8  C   UNL     1      -1.252   3.129   0.031  0.00  0.00    +0.028 A 
ATOM      9  C   UNL     1      -1.223   1.749   0.017  0.00  0.00    +0.002 A 
ATOM     10  C   UNL     1      -0.013   1.076   0.008  0.00  0.00    +0.002 A 
ATOM     11  C   UNL     1       1.175   1.779   0.000  0.00  0.00    +0.028 A 
ATOM     12  C   UNL     1       1.156   3.168   0.008  0.00  0.00    +0.068 A 
ATOM     13  N   UNL     1       2.159   4.128   0.003  0.00  0.00    -0.322 N 
ATOM     14  C   UNL     1       1.572   5.361   0.015  0.00  0.00    +0.140 A 
ATOM     15  C   UNL     1       2.133   6.646   0.017  0.00  0.00    +0.096 A 
ENDROOT
BRANCH  15  16
ATOM     16  C   UNL     1       3.555   6.814   0.004  0.00  0.00    +0.103 C 
ATOM     17  N   UNL     1       4.683   6.947  -0.006  0.00  0.00    -0.191 NA
ENDBRANCH  15  16
BRANCH  13  18
ATOM     18  C   UNL     1       3.600   3.864  -0.013  0.00  0.00    +0.156 C 
BRANCH  18  19
ATOM     19  C   UNL     1       4.087   3.780  -1.461  0.00  0.00    +0.148 C 
BRANCH  19  20
ATOM     20  O   UNL     1       3.929   5.052  -2.092  0.00  0.00    -0.389 OA
ATOM     21  H   UNL     1       4.226   5.186  -3.142  0.00  0.00    +0.210 HD
ENDBRANCH  19  20
BRANCH  19  22
ATOM     22  C   UNL     1       5.564   3.381  -1.480  0.00  0.00    +0.117 C 
BRANCH  22  23
ATOM     23  N   UNL     1       6.031   3.300  -2.870  0.00  0.00    -0.297 NA
ATOM     24  C   UNL     1       5.367   2.202  -3.586  0.00  0.00    +0.103 C 
ATOM     25  C   UNL     1       5.821   2.201  -5.048  0.00  0.00    +0.120 C 
ATOM     26  N   UNL     1       7.282   2.055  -5.104  0.00  0.00    -0.327 N 
ATOM     27  C   UNL     1       7.946   3.153  -4.389  0.00  0.00    +0.120 C 
ATOM     28  C   UNL     1       7.492   3.154  -2.927  0.00  0.00    +0.103 C 
BRANCH  26  29
ATOM     29  C   UNL     1       7.726   1.978  -6.426  0.00  0.00    +0.030 A 
ATOM     30  C   UNL     1       8.672   2.879  -6.896  0.00  0.00    +0.023 A 
ATOM     31  C   UNL     1       9.113   2.797  -8.203  0.00  0.00    +0.002 A 
ATOM     32  C   UNL     1       8.606   1.825  -9.045  0.00  0.00    +0.000 A 
ATOM     33  C   UNL     1       7.660   0.929  -8.582  0.00  0.00    +0.002 A 
ATOM     34  C   UNL     1       7.219   1.002  -7.275  0.00  0.00    +0.023 A 
ENDBRANCH  26  29
ENDBRANCH  22  23
ENDBRANCH  19  22
ENDBRANCH  18  19
ENDBRANCH  13  18
TORSDOF 7
