REMARK  Name = ZINC39459717
REMARK  6 active torsions:
REMARK  status: ('A' for Active; 'I' for Inactive)
REMARK    1  A    between atoms: C_1  and  O_2
REMARK    2  A    between atoms: O_2  and  C_3
REMARK    3  A    between atoms: C_5  and  C_19
REMARK    4  A    between atoms: C_9  and  C_12
REMARK    5  A    between atoms: C_17  and  O_18
REMARK    6  A    between atoms: C_24  and  O_25
REMARK                            x       y       z     vdW  Elec       q    Type
REMARK                         _______ _______ _______ _____ _____    ______ ____
ROOT
ATOM      1  C   UNL     1      -1.194  -0.672  -0.426  0.00  0.00    +0.202 A 
ATOM      2  C   UNL     1      -2.335   0.044  -0.578  0.00  0.00    +0.074 A 
ATOM      3  C   UNL     1      -3.590  -0.598  -0.492  0.00  0.00    -0.006 A 
ATOM      4  C   UNL     1      -3.640  -1.961  -0.251  0.00  0.00    +0.055 A 
ATOM      5  C   UNL     1      -2.441  -2.675  -0.098  0.00  0.00    +0.141 A 
ATOM      6  N   UNL     1      -1.239  -2.018  -0.194  0.00  0.00    -0.263 N 
ATOM      7  C   UNL     1      -0.251  -2.963  -0.011  0.00  0.00    +0.080 A 
ATOM      8  C   UNL     1      -0.879  -4.159   0.183  0.00  0.00    +0.140 A 
ATOM      9  N   UNL     1      -2.194  -3.960   0.136  0.00  0.00    -0.235 NA
ENDROOT
BRANCH   7  10
ATOM     10  C   UNL     1       1.207  -2.726  -0.025  0.00  0.00    +0.042 A 
ATOM     11  C   UNL     1       1.760  -1.709   0.755  0.00  0.00    +0.013 A 
ATOM     12  C   UNL     1       3.122  -1.492   0.738  0.00  0.00    +0.001 A 
ATOM     13  C   UNL     1       3.944  -2.280  -0.049  0.00  0.00    +0.004 A 
ATOM     14  C   UNL     1       3.407  -3.292  -0.826  0.00  0.00    +0.046 A 
ATOM     15  C   UNL     1       2.043  -3.525  -0.816  0.00  0.00    +0.126 A 
BRANCH  15  16
ATOM     16  O   UNL     1       1.516  -4.522  -1.574  0.00  0.00    -0.506 OA
ATOM     17  H   UNL     1       1.265  -4.247  -2.466  0.00  0.00    +0.292 HD
ENDBRANCH  15  16
ENDBRANCH   7  10
BRANCH   3  18
ATOM     18  C   UNL     1      -4.840   0.179  -0.656  0.00  0.00    +0.024 A 
ATOM     19  C   UNL     1      -5.286   1.013   0.368  0.00  0.00    +0.012 A 
ATOM     20  C   UNL     1      -6.452   1.734   0.209  0.00  0.00    +0.001 A 
ATOM     21  C   UNL     1      -7.181   1.632  -0.963  0.00  0.00    +0.004 A 
ATOM     22  C   UNL     1      -6.749   0.808  -1.984  0.00  0.00    +0.046 A 
ATOM     23  C   UNL     1      -5.577   0.083  -1.842  0.00  0.00    +0.125 A 
BRANCH  23  24
ATOM     24  O   UNL     1      -5.147  -0.723  -2.848  0.00  0.00    -0.506 OA
ATOM     25  H   UNL     1      -5.485  -1.628  -2.798  0.00  0.00    +0.292 HD
ENDBRANCH  23  24
ENDBRANCH   3  18
BRANCH   1  27
ATOM     26  C   UNL     1      -0.014   1.361  -0.755  0.00  0.00    +0.279 C 
ATOM     27  O   UNL     1       0.004  -0.047  -0.511  0.00  0.00    -0.480 OA
ENDBRANCH   1  27
TORSDOF 5
