REMARK  Name = ZINC34788833
REMARK  7 active torsions:
REMARK  status: ('A' for Active; 'I' for Inactive)
REMARK    1  A    between atoms: C_1  and  C_2
REMARK    2  A    between atoms: C_2  and  C_3
REMARK    3  A    between atoms: C_2  and  C_4
REMARK    4  A    between atoms: C_2  and  N_5
REMARK    5  A    between atoms: C_14  and  C_16
REMARK    6  A    between atoms: C_16  and  N_17
REMARK    7  A    between atoms: C_25  and  C_27
REMARK                            x       y       z     vdW  Elec       q    Type
REMARK                         _______ _______ _______ _____ _____    ______ ____
ROOT
ATOM      1  C   UNL     1       5.697  -0.844  -6.289  0.00  0.00    +0.181 C 
ENDROOT
BRANCH   1  11
ATOM      2  N   UNL     1       0.689  -0.480  -1.201  0.00  0.00    -0.294 N 
ATOM      3  C   UNL     1       1.972  -0.132  -1.427  0.00  0.00    +0.303 C 
ATOM      4  O   UNL     1       2.531   0.646  -0.679  0.00  0.00    -0.253 OA
ATOM      5  N   UNL     1       2.633  -0.647  -2.482  0.00  0.00    -0.283 N 
ATOM      6  C   UNL     1       1.937  -1.494  -3.461  0.00  0.00    +0.128 C 
ATOM      7  C   UNL     1       2.138  -0.894  -4.858  0.00  0.00    +0.127 C 
ATOM      8  N   UNL     1       3.568  -0.619  -5.050  0.00  0.00    -0.297 N 
ATOM      9  C   UNL     1       4.265   0.228  -4.071  0.00  0.00    +0.127 C 
ATOM     10  C   UNL     1       4.063  -0.368  -2.677  0.00  0.00    +0.128 C 
ATOM     11  C   UNL     1       4.230  -1.134  -6.105  0.00  0.00    +0.230 C 
ATOM     12  O   UNL     1       3.645  -1.831  -6.907  0.00  0.00    -0.274 OA
ATOM     13  H   UNL     1       0.221  -1.044  -1.835  0.00  0.00    +0.151 HD
BRANCH   2  15
ATOM     14  C   UNL     1      -0.022   1.524   0.008  0.00  0.00    +0.031 C 
ATOM     15  C   UNL     1       0.003  -0.006   0.004  0.00  0.00    +0.028 C 
ATOM     16  C   UNL     1       0.747  -0.506   1.244  0.00  0.00    +0.031 C 
ATOM     17  C   UNL     1      -1.430  -0.540   0.018  0.00  0.00    +0.031 C 
ENDBRANCH   2  15
ENDBRANCH   1  11
BRANCH   1  18
ATOM     18  N   UNL     1       6.181  -1.515  -7.503  0.00  0.00    -0.283 NA
ATOM     19  C   UNL     1       6.099  -2.976  -7.365  0.00  0.00    +0.091 C 
ATOM     20  C   UNL     1       6.213  -3.612  -8.761  0.00  0.00    +0.058 C 
ATOM     21  C   UNL     1       7.357  -2.960  -9.467  0.00  0.00    -0.004 A 
ATOM     22  C   UNL     1       7.994  -1.814  -9.097  0.00  0.00    -0.016 A 
ATOM     23  C   UNL     1       9.043  -1.395  -9.912  0.00  0.00    +0.013 A 
ATOM     24  C   UNL     1       9.379  -2.116 -11.007  0.00  0.00    +0.046 A 
ATOM     25  S   UNL     1       8.202  -3.458 -10.940  0.00  0.00    -0.101 S 
ATOM     26  C   UNL     1       7.537  -1.068  -7.847  0.00  0.00    +0.118 C 
BRANCH  26  27
ATOM     27  C   UNL     1       7.528   0.414  -8.117  0.00  0.00    -0.023 A 
ATOM     28  C   UNL     1       6.476   0.984  -8.811  0.00  0.00    +0.006 A 
ATOM     29  C   UNL     1       6.467   2.344  -9.059  0.00  0.00    +0.003 A 
ATOM     30  C   UNL     1       7.509   3.135  -8.615  0.00  0.00    +0.038 A 
ATOM     31  C   UNL     1       8.562   2.566  -7.920  0.00  0.00    +0.124 A 
ATOM     32  C   UNL     1       8.568   1.205  -7.667  0.00  0.00    +0.043 A 
ATOM     33  F   UNL     1       9.582   3.339  -7.486  0.00  0.00    -0.205 F 
ENDBRANCH  26  27
ENDBRANCH   1  18
TORSDOF 4
