REMARK  Name = ZINC30921086
REMARK  11 active torsions:
REMARK  status: ('A' for Active; 'I' for Inactive)
REMARK    1  A    between atoms: C_1  and  C_2
REMARK    2  A    between atoms: C_7  and  C_9
REMARK    3  A    between atoms: C_7  and  C_10
REMARK    4  A    between atoms: N_13  and  C_17
REMARK    5  A    between atoms: C_17  and  C_18
REMARK    6  A    between atoms: N_20  and  C_21
REMARK    7  A    between atoms: C_21  and  C_23
REMARK    8  A    between atoms: C_21  and  C_34
REMARK    9  A    between atoms: C_23  and  C_24
REMARK   10  A    between atoms: C_34  and  O_36
REMARK   11  A    between atoms: O_36  and  C_37
REMARK                            x       y       z     vdW  Elec       q    Type
REMARK                         _______ _______ _______ _____ _____    ______ ____
ROOT
ATOM      1  C   UNL     1       0.970  -4.657  -4.537  0.00  0.00    +0.232 C 
ATOM      2  O   UNL     1       1.179  -5.175  -3.461  0.00  0.00    -0.274 OA
ATOM      3  N   UNL     1       1.197  -5.348  -5.673  0.00  0.00    -0.301 N 
ATOM      4  H   UNL     1       1.030  -4.933  -6.534  0.00  0.00    +0.150 HD
ENDROOT
BRANCH   1   5
ATOM      5  C   UNL     1       0.458  -3.241  -4.606  0.00  0.00    +0.213 C 
BRANCH   5  17
ATOM      6  C   UNL     1      -0.061   1.649   0.498  0.00  0.00    +0.007 C 
ATOM      7  C   UNL     1      -0.046   0.132   0.299  0.00  0.00    -0.011 C 
ATOM      8  C   UNL     1       0.612  -0.200  -1.042  0.00  0.00    +0.038 C 
ATOM      9  C   UNL     1       0.646  -1.713  -1.232  0.00  0.00    +0.113 C 
ATOM     10  C   UNL     1       1.417  -2.381  -0.099  0.00  0.00    +0.041 C 
ATOM     11  C   UNL     1       0.756  -2.041   1.240  0.00  0.00    -0.032 C 
ATOM     12  C   UNL     1       0.748  -0.523   1.431  0.00  0.00    +0.009 C 
ATOM     13  C   UNL     1      -0.682  -2.564   1.246  0.00  0.00    +0.011 C 
ATOM     14  C   UNL     1       1.542  -2.695   2.378  0.00  0.00    +0.011 C 
ATOM     15  C   UNL     1       1.261  -2.063  -2.567  0.00  0.00    +0.247 C 
ATOM     16  O   UNL     1       2.385  -1.813  -2.946  0.00  0.00    -0.273 OA
ATOM     17  N   UNL     1       0.296  -2.715  -3.249  0.00  0.00    -0.215 N 
ATOM     18  C   UNL     1      -0.829  -2.819  -2.531  0.00  0.00    +0.310 C 
ATOM     19  O   UNL     1      -1.838  -3.366  -2.931  0.00  0.00    -0.252 OA
ATOM     20  N   UNL     1      -0.717  -2.252  -1.315  0.00  0.00    -0.285 N 
ATOM     21  H   UNL     1      -1.402  -2.208  -0.629  0.00  0.00    +0.151 HD
ENDBRANCH   5  17
ENDBRANCH   1   5
BRANCH   3  22
ATOM     22  C   UNL     1       1.694  -6.724  -5.606  0.00  0.00    +0.186 C 
BRANCH  22  23
ATOM     23  C   UNL     1       0.534  -7.670  -5.433  0.00  0.00    +0.328 C 
ATOM     24  O   UNL     1      -0.593  -7.239  -5.371  0.00  0.00    -0.249 OA
BRANCH  23  25
ATOM     25  O   UNL     1       0.753  -8.991  -5.347  0.00  0.00    -0.467 OA
ATOM     26  C   UNL     1      -0.393  -9.829  -5.183  0.00  0.00    +0.280 C 
ENDBRANCH  23  25
ENDBRANCH  22  23
BRANCH  22  27
ATOM     27  C   UNL     1       2.438  -7.061  -6.900  0.00  0.00    +0.071 C 
BRANCH  27  28
ATOM     28  C   UNL     1       3.668  -6.197  -7.012  0.00  0.00    -0.020 A 
ATOM     29  C   UNL     1       3.768  -5.031  -7.671  0.00  0.00    +0.087 A 
ATOM     30  N   UNL     1       5.037  -4.535  -7.552  0.00  0.00    -0.360 N 
ATOM     31  H   UNL     1       5.350  -3.705  -7.943  0.00  0.00    +0.165 HD
ATOM     32  C   UNL     1       5.805  -5.391  -6.794  0.00  0.00    +0.047 A 
ATOM     33  C   UNL     1       4.979  -6.466  -6.418  0.00  0.00    +0.003 A 
ATOM     34  C   UNL     1       5.494  -7.498  -5.630  0.00  0.00    +0.010 A 
ATOM     35  C   UNL     1       6.798  -7.456  -5.225  0.00  0.00    +0.001 A 
ATOM     36  C   UNL     1       7.616  -6.395  -5.590  0.00  0.00    +0.002 A 
ATOM     37  C   UNL     1       7.131  -5.372  -6.375  0.00  0.00    +0.026 A 
ENDBRANCH  27  28
ENDBRANCH  22  27
ENDBRANCH   3  22
TORSDOF 7
