REMARK  Name = ZINC39446379
REMARK  6 active torsions:
REMARK  status: ('A' for Active; 'I' for Inactive)
REMARK    1  A    between atoms: C_1  and  N_2
REMARK    2  A    between atoms: N_2  and  C_3
REMARK    3  A    between atoms: N_2  and  C_17
REMARK    4  A    between atoms: C_3  and  C_4
REMARK    5  A    between atoms: C_17  and  C_18
REMARK    6  A    between atoms: N_20  and  C_21
REMARK                            x       y       z     vdW  Elec       q    Type
REMARK                         _______ _______ _______ _____ _____    ______ ____
ROOT
ATOM      1  C   UNL     1      -0.129   1.499  -0.159  0.00  0.00    -0.095 C 
ATOM      2  N   UNL     1      -0.134   0.035  -0.270  0.00  0.00    +0.389 N 
ATOM      3  H   UNL     1       0.413  -0.361   0.480  0.00  0.00    -0.081 HD
ENDROOT
BRANCH   2   4
ATOM      4  C   UNL     1      -1.515  -0.458  -0.181  0.00  0.00    +0.019 C 
BRANCH   4   5
ATOM      5  C   UNL     1      -2.067  -0.160   1.190  0.00  0.00    +0.201 C 
ATOM      6  O   UNL     1      -1.378   0.408   2.011  0.00  0.00    -0.278 OA
ATOM      7  N   UNL     1      -3.327  -0.523   1.502  0.00  0.00    -0.287 N 
ATOM      8  C   UNL     1      -3.550  -1.294   2.549  0.00  0.00    +0.035 C 
ATOM      9  C   UNL     1      -2.442  -1.667   3.435  0.00  0.00    +0.025 C 
ATOM     10  C   UNL     1      -2.662  -2.454   4.506  0.00  0.00    +0.032 C 
ATOM     11  C   UNL     1      -4.014  -2.943   4.794  0.00  0.00    +0.095 C 
ATOM     12  N   UNL     1      -4.536  -3.706   5.735  0.00  0.00    -0.190 NA
ATOM     13  C   UNL     1      -5.855  -3.840   5.517  0.00  0.00    +0.369 C 
ATOM     14  O   UNL     1      -6.689  -4.562   6.303  0.00  0.00    -0.243 OA
ATOM     15  N   UNL     1      -6.235  -3.182   4.446  0.00  0.00    -0.190 NA
ATOM     16  C   UNL     1      -5.137  -2.575   3.909  0.00  0.00    +0.097 C 
ATOM     17  C   UNL     1      -4.919  -1.778   2.833  0.00  0.00    +0.053 C 
ATOM     18  H   UNL     1      -4.069  -0.217   0.958  0.00  0.00    +0.155 HD
ENDBRANCH   4   5
ENDBRANCH   2   4
BRANCH   2  19
ATOM     19  C   UNL     1       0.445  -0.361  -1.561  0.00  0.00    +0.019 C 
BRANCH  19  20
ATOM     20  C   UNL     1       1.898   0.036  -1.603  0.00  0.00    +0.201 C 
ATOM     21  O   UNL     1       2.402   0.594  -0.651  0.00  0.00    -0.278 OA
ATOM     22  N   UNL     1       2.637  -0.229  -2.698  0.00  0.00    -0.285 N 
ATOM     23  H   UNL     1       2.217  -0.603  -3.488  0.00  0.00    +0.155 HD
BRANCH  22  24
ATOM     24  C   UNL     1       4.013   0.037  -2.696  0.00  0.00    +0.072 A 
ATOM     25  C   UNL     1       4.711   0.076  -1.496  0.00  0.00    +0.029 A 
ATOM     26  C   UNL     1       6.067   0.339  -1.494  0.00  0.00    +0.043 A 
ATOM     27  C   UNL     1       6.733   0.562  -2.687  0.00  0.00    +0.161 A 
ATOM     28  C   UNL     1       6.040   0.524  -3.888  0.00  0.00    +0.195 A 
ATOM     29  C   UNL     1       4.682   0.256  -3.894  0.00  0.00    +0.182 A 
ATOM     30  F   UNL     1       4.007   0.212  -5.064  0.00  0.00    -0.200 F 
ATOM     31  F   UNL     1       6.692   0.743  -5.051  0.00  0.00    -0.199 F 
ATOM     32  F   UNL     1       8.060   0.818  -2.682  0.00  0.00    -0.202 F 
ENDBRANCH  22  24
ENDBRANCH  19  20
ENDBRANCH   2  19
TORSDOF 5
