REMARK  Name = ZINC16645913
REMARK  10 active torsions:
REMARK  status: ('A' for Active; 'I' for Inactive)
REMARK    1  A    between atoms: C_1  and  S_2
REMARK    2  A    between atoms: S_2  and  C_3
REMARK    3  A    between atoms: C_3  and  C_4
REMARK    4  A    between atoms: C_4  and  C_5
REMARK    5  A    between atoms: C_5  and  C_7
REMARK    6  A    between atoms: C_5  and  N_17
REMARK    7  A    between atoms: C_18  and  C_20
REMARK    8  A    between atoms: C_23  and  S_26
REMARK    9  A    between atoms: S_26  and  N_29
REMARK   10  A    between atoms: N_29  and  C_30
REMARK                            x       y       z     vdW  Elec       q    Type
REMARK                         _______ _______ _______ _____ _____    ______ ____
ROOT
ATOM      1  N   UNL     1       8.392  -0.279   0.718  0.00  0.00    -0.302 N 
ATOM      2  C   UNL     1       7.804  -1.439   1.071  0.00  0.00    +0.245 C 
ATOM      3  O   UNL     1       8.380  -2.210   1.813  0.00  0.00    -0.270 OA
ATOM      4  H   UNL     1       7.933   0.337   0.125  0.00  0.00    +0.150 HD
ENDROOT
BRANCH   2   5
ATOM      5  C   UNL     1       6.460  -1.773   0.555  0.00  0.00    +0.037 A 
ATOM      6  C   UNL     1       5.848  -2.974   0.919  0.00  0.00    +0.015 A 
ATOM      7  C   UNL     1       4.593  -3.280   0.434  0.00  0.00    +0.029 A 
ATOM      8  C   UNL     1       3.941  -2.399  -0.411  0.00  0.00    +0.109 A 
ATOM      9  C   UNL     1       4.544  -1.210  -0.780  0.00  0.00    +0.029 A 
ATOM     10  C   UNL     1       5.797  -0.889  -0.298  0.00  0.00    +0.015 A 
BRANCH   8  11
ATOM     11  S   UNL     1       2.339  -2.797  -1.026  0.00  0.00    +0.072 S 
ATOM     12  O   UNL     1       2.179  -4.200  -0.863  0.00  0.00    -0.150 OA
ATOM     13  O   UNL     1       2.218  -2.159  -2.290  0.00  0.00    -0.150 OA
BRANCH  11  14
ATOM     14  N   UNL     1       1.236  -2.076  -0.024  0.00  0.00    -0.216 N 
ATOM     15  H   UNL     1       0.628  -1.406  -0.374  0.00  0.00    +0.174 HD
BRANCH  14  16
ATOM     16  C   UNL     1       1.182  -2.431   1.327  0.00  0.00    +0.048 A 
ATOM     17  C   UNL     1       1.110  -1.446   2.303  0.00  0.00    +0.027 A 
ATOM     18  C   UNL     1       1.057  -1.799   3.638  0.00  0.00    +0.040 A 
ATOM     19  C   UNL     1       1.075  -3.135   4.002  0.00  0.00    +0.124 A 
ATOM     20  C   UNL     1       1.147  -4.119   3.031  0.00  0.00    +0.040 A 
ATOM     21  C   UNL     1       1.200  -3.770   1.695  0.00  0.00    +0.027 A 
ATOM     22  F   UNL     1       1.023  -3.478   5.308  0.00  0.00    -0.205 F 
ENDBRANCH  14  16
ENDBRANCH  11  14
ENDBRANCH   8  11
ENDBRANCH   2   5
BRANCH   1  23
ATOM     23  C   UNL     1       9.725   0.052   1.229  0.00  0.00    +0.140 C 
BRANCH  23  24
ATOM     24  C   UNL     1       9.905   1.549   1.230  0.00  0.00    +0.129 A 
ATOM     25  N   UNL     1       8.938   2.450   0.909  0.00  0.00    -0.340 N 
ATOM     26  H   UNL     1       7.999   2.240   0.636  0.00  0.00    +0.167 HD
ATOM     27  C   UNL     1       9.493   3.708   1.031  0.00  0.00    +0.066 A 
ATOM     28  C   UNL     1       9.015   4.998   0.843  0.00  0.00    +0.028 A 
ATOM     29  C   UNL     1       9.851   6.074   1.056  0.00  0.00    +0.002 A 
ATOM     30  C   UNL     1      11.165   5.875   1.455  0.00  0.00    +0.002 A 
ATOM     31  C   UNL     1      11.653   4.613   1.644  0.00  0.00    +0.030 A 
ATOM     32  C   UNL     1      10.824   3.508   1.435  0.00  0.00    +0.089 A 
ATOM     33  N   UNL     1      11.007   2.167   1.542  0.00  0.00    -0.231 NA
ENDBRANCH  23  24
BRANCH  23  34
ATOM     34  C   UNL     1      10.788  -0.589   0.335  0.00  0.00    +0.041 C 
BRANCH  34  35
ATOM     35  C   UNL     1      10.684  -2.112   0.431  0.00  0.00    +0.071 C 
BRANCH  35  37
ATOM     36  C   UNL     1      11.691  -4.654  -0.404  0.00  0.00    +0.084 C 
ATOM     37  S   UNL     1      11.945  -2.873  -0.629  0.00  0.00    -0.164 S 
ENDBRANCH  35  37
ENDBRANCH  34  35
ENDBRANCH  23  34
ENDBRANCH   1  23
TORSDOF 9
