REMARK  Name = ZINC08921516
REMARK  8 active torsions:
REMARK  status: ('A' for Active; 'I' for Inactive)
REMARK    1  A    between atoms: C_4  and  C_7
REMARK    2  A    between atoms: C_7  and  S_8
REMARK    3  A    between atoms: S_8  and  N_11
REMARK    4  A    between atoms: C_17  and  C_19
REMARK    5  A    between atoms: C_19  and  N_58
REMARK    6  A    between atoms: C_20  and  C_22
REMARK    7  A    between atoms: C_20  and  C_29
REMARK    8  A    between atoms: C_20  and  N_58
REMARK                            x       y       z     vdW  Elec       q    Type
REMARK                         _______ _______ _______ _____ _____    ______ ____
ROOT
ATOM      1  N   UNL     1       1.522  -2.628   7.056  0.00  0.00    -0.178 NA
ATOM      2  C   UNL     1       0.587  -3.593   6.460  0.00  0.00    +0.128 C 
ATOM      3  C   UNL     1       1.306  -4.337   5.327  0.00  0.00    +0.125 C 
ATOM      4  N   UNL     1       1.955  -3.348   4.454  0.00  0.00    -0.300 N 
ATOM      5  C   UNL     1       2.894  -2.387   5.049  0.00  0.00    +0.125 C 
ATOM      6  C   UNL     1       2.171  -1.640   6.183  0.00  0.00    +0.128 C 
ATOM      7  C   UNL     1       1.698  -3.327   3.131  0.00  0.00    +0.199 C 
ATOM      8  O   UNL     1       0.925  -4.129   2.651  0.00  0.00    -0.278 OA
ENDROOT
BRANCH   1   9
ATOM      9  S   UNL     1       1.838  -2.654   8.681  0.00  0.00    +0.036 S 
ATOM     10  O   UNL     1       2.225  -1.323   8.996  0.00  0.00    -0.158 OA
ATOM     11  O   UNL     1       0.678  -3.229   9.267  0.00  0.00    -0.158 OA
BRANCH   9  12
ATOM     12  C   UNL     1       3.252  -3.775   8.863  0.00  0.00    +0.220 C 
BRANCH  12  16
ATOM     13  C   UNL     1       4.323  -4.058  12.989  0.00  0.00    +0.000 A 
ATOM     14  C   UNL     1       3.400  -4.936  12.453  0.00  0.00    +0.000 A 
ATOM     15  C   UNL     1       3.054  -4.845  11.117  0.00  0.00    +0.005 A 
ATOM     16  C   UNL     1       3.630  -3.875  10.319  0.00  0.00    -0.025 A 
ATOM     17  C   UNL     1       4.557  -3.000  10.854  0.00  0.00    +0.005 A 
ATOM     18  C   UNL     1       4.900  -3.088  12.190  0.00  0.00    +0.000 A 
ENDBRANCH  12  16
ENDBRANCH   9  12
ENDBRANCH   1   9
BRANCH   7  19
ATOM     19  C   UNL     1       2.371  -2.308   2.249  0.00  0.00    +0.016 C 
BRANCH  19  20
ATOM     20  N   UNL     1       1.921  -2.500   0.858  0.00  0.00    +0.392 N 
ATOM     21  H   UNL     1       0.901  -2.382   0.812  0.00  0.00    -0.084 HD
ATOM     22  H   UNL     1       2.170  -3.447   0.549  0.00  0.00    -0.084 HD
BRANCH  20  23
ATOM     23  C   UNL     1       2.565  -1.514  -0.030  0.00  0.00    -0.003 C 
BRANCH  23  24
ATOM     24  C   UNL     1       2.606  -2.064  -1.433  0.00  0.00    -0.056 A 
ATOM     25  C   UNL     1       1.527  -2.771  -1.929  0.00  0.00    +0.005 A 
ATOM     26  C   UNL     1       1.561  -3.271  -3.217  0.00  0.00    +0.038 A 
ATOM     27  C   UNL     1       2.682  -3.073  -4.006  0.00  0.00    +0.123 A 
ATOM     28  C   UNL     1       3.764  -2.369  -3.506  0.00  0.00    +0.038 A 
ATOM     29  C   UNL     1       3.725  -1.865  -2.220  0.00  0.00    +0.005 A 
ATOM     30  F   UNL     1       2.718  -3.566  -5.264  0.00  0.00    -0.205 F 
ENDBRANCH  23  24
BRANCH  23  31
ATOM     31  C   UNL     1       1.773  -0.232  -0.016  0.00  0.00    -0.020 A 
ATOM     32  C   UNL     1       2.220   1.048  -0.013  0.00  0.00    +0.010 A 
ATOM     33  C   UNL     1       1.300   2.079   0.001  0.00  0.00    +0.008 A 
ATOM     34  C   UNL     1      -0.022   1.781   0.012  0.00  0.00    +0.045 A 
ATOM     35  S   UNL     1       0.002  -0.004   0.002  0.00  0.00    -0.103 S 
ENDBRANCH  23  31
ENDBRANCH  20  23
ENDBRANCH  19  20
ENDBRANCH   7  19
TORSDOF 8
