REMARK  Name = ZINC39436821
REMARK  8 active torsions:
REMARK  status: ('A' for Active; 'I' for Inactive)
REMARK    1  A    between atoms: C_1  and  C_2
REMARK    2  A    between atoms: C_2  and  C_3
REMARK    3  A    between atoms: C_2  and  C_4
REMARK    4  A    between atoms: C_2  and  C_12
REMARK    5  A    between atoms: C_4  and  N_5
REMARK    6  A    between atoms: N_8  and  C_11
REMARK    7  A    between atoms: N_21  and  C_22
REMARK    8  A    between atoms: C_22  and  C_23
REMARK                            x       y       z     vdW  Elec       q    Type
REMARK                         _______ _______ _______ _____ _____    ______ ____
ROOT
ATOM      1  C   UNL     1      -0.083  -0.358  -2.056  0.00  0.00    +0.181 C 
ATOM      2  N   UNL     1       1.126   0.155  -2.761  0.00  0.00    -0.270 NA
ATOM      3  C   UNL     1       2.077  -0.939  -2.519  0.00  0.00    +0.211 C 
ATOM      4  C   UNL     1       1.193  -2.185  -2.476  0.00  0.00    +0.093 C 
ATOM      5  N   UNL     1      -0.005  -1.824  -2.166  0.00  0.00    -0.264 NA
ATOM      6  C   UNL     1       2.109  -3.226  -2.946  0.00  0.00    +0.156 C 
ATOM      7  N   UNL     1       3.038  -2.661  -3.667  0.00  0.00    -0.189 NA
ATOM      8  N   UNL     1       2.965  -1.240  -3.645  0.00  0.00    -0.228 N 
ATOM      9  H   UNL     1       0.948   0.268  -3.747  0.00  0.00    +0.126 HD
ENDROOT
BRANCH   1  11
ATOM     10  C   UNL     1       0.006   1.591  -0.496  0.00  0.00    +0.015 C 
ATOM     11  C   UNL     1      -0.059   0.065  -0.586  0.00  0.00    +0.013 C 
ATOM     12  C   UNL     1       1.168  -0.539   0.099  0.00  0.00    +0.015 C 
BRANCH  11  13
ATOM     13  C   UNL     1      -1.328  -0.433   0.108  0.00  0.00    +0.094 C 
BRANCH  13  14
ATOM     14  N   UNL     1      -1.413  -1.894  -0.016  0.00  0.00    -0.305 NA
ATOM     15  C   UNL     1      -2.813  -2.337  -0.080  0.00  0.00    +0.066 C 
ATOM     16  C   UNL     1      -2.856  -3.856  -0.268  0.00  0.00    -0.064 C 
ATOM     17  N   UNL     1      -2.168  -4.508   0.854  0.00  0.00    +0.379 N 
ATOM     18  C   UNL     1      -0.765  -4.075   0.890  0.00  0.00    -0.064 C 
ATOM     19  C   UNL     1      -0.705  -2.558   1.088  0.00  0.00    +0.066 C 
ATOM     20  C   UNL     1      -2.226  -5.966   0.682  0.00  0.00    -0.096 C 
ATOM     21  H   UNL     1      -2.621  -4.254   1.719  0.00  0.00    -0.082 HD
ENDBRANCH  13  14
ENDBRANCH  11  13
ENDBRANCH   1  11
BRANCH   8  22
ATOM     22  C   UNL     1       3.616  -0.286  -4.546  0.00  0.00    +0.164 C 
BRANCH  22  23
ATOM     23  C   UNL     1       4.960   0.098  -3.985  0.00  0.00    -0.010 A 
ATOM     24  C   UNL     1       5.109   1.290  -3.300  0.00  0.00    +0.006 A 
ATOM     25  C   UNL     1       6.343   1.642  -2.785  0.00  0.00    +0.000 A 
ATOM     26  C   UNL     1       7.428   0.803  -2.955  0.00  0.00    +0.001 A 
ATOM     27  C   UNL     1       7.281  -0.388  -3.640  0.00  0.00    +0.020 A 
ATOM     28  C   UNL     1       6.045  -0.744  -4.150  0.00  0.00    +0.046 A 
ATOM     29 CL   UNL     1       5.858  -2.244  -5.005  0.00  0.00    -0.083 Cl
ENDBRANCH  22  23
ENDBRANCH   8  22
TORSDOF 5
