REMARK  Name = ZINC42014393
REMARK  4 active torsions:
REMARK  status: ('A' for Active; 'I' for Inactive)
REMARK    1  A    between atoms: C_6  and  C_7
REMARK    2  A    between atoms: C_7  and  N_8
REMARK    3  A    between atoms: C_9  and  C_13
REMARK    4  A    between atoms: C_18  and  N_19
REMARK                            x       y       z     vdW  Elec       q    Type
REMARK                         _______ _______ _______ _____ _____    ______ ____
ROOT
ATOM      1  N   UNL     1      -1.648  -0.967  -1.398  0.00  0.00    -0.221 N 
ATOM      2  C   UNL     1      -2.311  -0.101  -2.205  0.00  0.00    +0.184 A 
ATOM      3  N   UNL     1      -2.364  -0.652  -3.400  0.00  0.00    -0.108 NA
ATOM      4  N   UNL     1      -1.784  -1.797  -3.393  0.00  0.00    -0.023 NA
ATOM      5  N   UNL     1      -1.318  -2.058  -2.220  0.00  0.00    -0.043 NA
ENDROOT
BRANCH   2   6
ATOM      6  C   UNL     1      -2.867   1.213  -1.817  0.00  0.00    +0.043 A 
ATOM      7  C   UNL     1      -2.619   1.731  -0.546  0.00  0.00    +0.033 A 
ATOM      8  C   UNL     1      -3.141   2.958  -0.189  0.00  0.00    +0.042 A 
ATOM      9  C   UNL     1      -3.912   3.678  -1.088  0.00  0.00    +0.022 A 
ATOM     10  C   UNL     1      -4.164   3.175  -2.349  0.00  0.00    +0.025 A 
ATOM     11  C   UNL     1      -3.642   1.946  -2.726  0.00  0.00    +0.035 A 
ATOM     12 CL   UNL     1      -2.832   3.601   1.393  0.00  0.00    -0.084 Cl
BRANCH  11  13
ATOM     13  N   UNL     1      -3.890   1.440  -4.000  0.00  0.00    -0.357 N 
ATOM     14  H   UNL     1      -3.527   0.579  -4.260  0.00  0.00    +0.142 HD
ATOM     15  H   UNL     1      -4.427   1.950  -4.628  0.00  0.00    +0.142 HD
ENDBRANCH  11  13
ENDBRANCH   2   6
BRANCH   1  16
ATOM     16  C   UNL     1      -1.337  -0.798   0.024  0.00  0.00    +0.182 C 
BRANCH  16  22
ATOM     17  C   UNL     1       0.683  -2.223   0.411  0.00  0.00    +0.007 A 
ATOM     18  C   UNL     1       1.286  -3.370   0.891  0.00  0.00    +0.020 A 
ATOM     19  C   UNL     1       0.523  -4.346   1.507  0.00  0.00    +0.041 A 
ATOM     20  C   UNL     1      -0.843  -4.172   1.643  0.00  0.00    +0.020 A 
ATOM     21  C   UNL     1      -1.445  -3.024   1.162  0.00  0.00    +0.007 A 
ATOM     22  C   UNL     1      -0.681  -2.050   0.547  0.00  0.00    -0.026 A 
ATOM     23 CL   UNL     1       1.278  -5.788   2.110  0.00  0.00    -0.084 Cl
ENDBRANCH  16  22
ENDBRANCH   1  16
TORSDOF 4
