REMARK  Name = ZINC16667986
REMARK  9 active torsions:
REMARK  status: ('A' for Active; 'I' for Inactive)
REMARK    1  A    between atoms: C_1  and  C_2
REMARK    2  A    between atoms: C_2  and  O_3
REMARK    3  A    between atoms: O_3  and  C_4
REMARK    4  A    between atoms: C_7  and  N_8
REMARK    5  A    between atoms: N_8  and  N_9
REMARK    6  A    between atoms: C_10  and  C_12
REMARK    7  A    between atoms: C_12  and  N_13
REMARK    8  A    between atoms: N_13  and  C_14
REMARK    9  A    between atoms: C_19  and  C_20
REMARK                            x       y       z     vdW  Elec       q    Type
REMARK                         _______ _______ _______ _____ _____    ______ ____
ROOT
ATOM      1  N   UNL     1       0.383  -6.236   0.078  0.00  0.00    -0.271 N 
ATOM      2  H   UNL     1      -0.508  -6.619   0.080  0.00  0.00    +0.169 HD
ENDROOT
BRANCH   1   6
ATOM      3  C   UNL     1      -1.625  -1.939  -0.092  0.00  0.00    +0.169 C 
ATOM      4  C   UNL     1      -0.547  -2.733   0.146  0.00  0.00    +0.060 C 
ATOM      5  C   UNL     1      -0.565  -4.087  -0.261  0.00  0.00    +0.009 C 
ATOM      6  C   UNL     1       0.541  -4.906  -0.018  0.00  0.00    +0.096 C 
ATOM      7  C   UNL     1      -1.703  -4.610  -0.915  0.00  0.00    +0.044 C 
ATOM      8  C   UNL     1      -2.779  -3.812  -1.151  0.00  0.00    +0.083 C 
ATOM      9  C   UNL     1      -2.762  -2.467  -0.740  0.00  0.00    +0.235 C 
ATOM     10  O   UNL     1      -3.734  -1.752  -0.950  0.00  0.00    -0.283 OA
ATOM     11 BR   UNL     1      -4.301  -4.513  -2.026  0.00  0.00    -0.045 Br
ATOM     12 BR   UNL     1      -1.731  -6.420  -1.462  0.00  0.00    -0.048 Br
BRANCH   3  13
ATOM     13  O   UNL     1      -1.609  -0.636   0.300  0.00  0.00    -0.488 OA
BRANCH  13  15
ATOM     14  C   UNL     1      -0.593   1.309   1.314  0.00  0.00    +0.048 C 
ATOM     15  C   UNL     1      -0.425  -0.168   0.950  0.00  0.00    +0.226 C 
ENDBRANCH  13  15
ENDBRANCH   3  13
ENDBRANCH   1   6
BRANCH   1  16
ATOM     16  N   UNL     1       1.505  -7.069   0.175  0.00  0.00    -0.236 N 
ATOM     17  C   UNL     1       1.346  -8.404   0.271  0.00  0.00    +0.246 C 
ATOM     18  O   UNL     1       0.232  -8.884   0.274  0.00  0.00    -0.273 OA
ATOM     19  H   UNL     1       2.396  -6.685   0.172  0.00  0.00    +0.173 HD
BRANCH  17  20
ATOM     20  C   UNL     1       2.553  -9.301   0.375  0.00  0.00    +0.199 C 
BRANCH  20  21
ATOM     21  N   UNL     1       2.118 -10.697   0.467  0.00  0.00    -0.335 N 
ATOM     22  H   UNL     1       1.172 -10.912   0.455  0.00  0.00    +0.147 HD
BRANCH  21  23
ATOM     23  C   UNL     1       3.065 -11.718   0.573  0.00  0.00    +0.030 A 
ATOM     24  C   UNL     1       4.420 -11.411   0.596  0.00  0.00    +0.023 A 
ATOM     25  C   UNL     1       5.353 -12.423   0.701  0.00  0.00    +0.002 A 
ATOM     26  C   UNL     1       4.941 -13.741   0.782  0.00  0.00    +0.000 A 
ATOM     27  C   UNL     1       3.594 -14.049   0.759  0.00  0.00    +0.005 A 
ATOM     28  C   UNL     1       2.654 -13.042   0.660  0.00  0.00    -0.030 A 
ATOM     29  C   UNL     1       1.185 -13.378   0.642  0.00  0.00    +0.045 C 
ENDBRANCH  21  23
ENDBRANCH  20  21
ENDBRANCH  17  20
ENDBRANCH   1  16
TORSDOF 7
