REMARK  Name = ZINC59489400
REMARK  11 active torsions:
REMARK  status: ('A' for Active; 'I' for Inactive)
REMARK    1  A    between atoms: C_1  and  C_2
REMARK    2  A    between atoms: C_2  and  C_3
REMARK    3  A    between atoms: C_3  and  O_4
REMARK    4  A    between atoms: O_4  and  C_5
REMARK    5  A    between atoms: C_8  and  N_11
REMARK    6  A    between atoms: C_15  and  S_19
REMARK    7  A    between atoms: S_19  and  C_20
REMARK    8  A    between atoms: N_22  and  N_23
REMARK    9  A    between atoms: C_24  and  C_25
REMARK   10  A    between atoms: C_24  and  C_26
REMARK   11  A    between atoms: C_29  and  C_32
REMARK                            x       y       z     vdW  Elec       q    Type
REMARK                         _______ _______ _______ _____ _____    ______ ____
ROOT
ATOM      1  C   UNL     1       2.753  -8.556   7.341  0.00  0.00    +0.146 C 
ATOM      2  N   UNL     1       3.290  -8.846   6.188  0.00  0.00    -0.380 N 
ATOM      3  N   UNL     1       1.973  -9.487   7.991  0.00  0.00    -0.217 N 
ATOM      4  H   UNL     1       3.139  -9.717   5.788  0.00  0.00    +0.158 HD
ATOM      5  H   UNL     1       1.574  -9.271   8.848  0.00  0.00    +0.176 HD
ATOM      6  H   UNL     1       3.839  -8.191   5.730  0.00  0.00    +0.158 HD
ENDROOT
BRANCH   3   7
ATOM      7  N   UNL     1       1.756 -10.745   7.414  0.00  0.00    -0.185 NA
ATOM      8  C   UNL     1       1.021 -11.621   8.026  0.00  0.00    +0.063 C 
ATOM      9  C   UNL     1       0.401 -11.287   9.358  0.00  0.00    +0.068 C 
BRANCH   8  10
ATOM     10  C   UNL     1       0.793 -12.946   7.418  0.00  0.00    -0.003 A 
ATOM     11  C   UNL     1      -0.003 -13.890   8.072  0.00  0.00    +0.010 A 
ATOM     12  C   UNL     1      -0.212 -15.126   7.497  0.00  0.00    +0.004 A 
ATOM     13  C   UNL     1       0.363 -15.432   6.277  0.00  0.00    -0.044 A 
ATOM     14  C   UNL     1       1.152 -14.502   5.624  0.00  0.00    +0.004 A 
ATOM     15  C   UNL     1       1.366 -13.259   6.184  0.00  0.00    +0.010 A 
BRANCH  13  16
ATOM     16  C   UNL     1       0.129 -16.785   5.655  0.00  0.00    +0.019 C 
ATOM     17  C   UNL     1       1.470 -17.499   5.469  0.00  0.00    +0.008 C 
ATOM     18  C   UNL     1       1.232 -18.873   4.838  0.00  0.00    +0.001 C 
ATOM     19  C   UNL     1       0.553 -18.699   3.478  0.00  0.00    +0.000 C 
ATOM     20  C   UNL     1      -0.787 -17.985   3.665  0.00  0.00    +0.001 C 
ATOM     21  C   UNL     1      -0.549 -16.611   4.295  0.00  0.00    +0.008 C 
ENDBRANCH  13  16
ENDBRANCH   8  10
ENDBRANCH   3   7
BRANCH   1  22
ATOM     22  S   UNL     1       3.026  -6.974   8.067  0.00  0.00    -0.078 S 
BRANCH  22  27
ATOM     23  N   UNL     1       3.299  -4.440   5.465  0.00  0.00    -0.209 N 
ATOM     24  C   UNL     1       3.953  -3.765   6.419  0.00  0.00    +0.228 C 
ATOM     25  O   UNL     1       4.066  -2.559   6.474  0.00  0.00    -0.275 OA
ATOM     26  C   UNL     1       4.527  -4.746   7.418  0.00  0.00    +0.120 C 
ATOM     27  C   UNL     1       4.087  -6.119   6.870  0.00  0.00    +0.149 C 
ATOM     28  C   UNL     1       3.306  -5.770   5.622  0.00  0.00    +0.240 C 
ATOM     29  O   UNL     1       2.774  -6.567   4.881  0.00  0.00    -0.274 OA
BRANCH  23  33
ATOM     30  C   UNL     1       1.385  -2.554   2.275  0.00  0.00    +0.121 A 
ATOM     31  C   UNL     1       0.638  -3.215   3.239  0.00  0.00    +0.047 A 
ATOM     32  C   UNL     1       1.271  -3.840   4.295  0.00  0.00    +0.027 A 
ATOM     33  C   UNL     1       2.655  -3.806   4.392  0.00  0.00    +0.044 A 
ATOM     34  C   UNL     1       3.402  -3.144   3.427  0.00  0.00    +0.027 A 
ATOM     35  C   UNL     1       2.768  -2.524   2.368  0.00  0.00    +0.047 A 
BRANCH  30  36
ATOM     36  O   UNL     1       0.761  -1.939   1.235  0.00  0.00    -0.492 OA
BRANCH  36  37
ATOM     37  C   UNL     1      -0.666  -2.009   1.201  0.00  0.00    +0.229 C 
BRANCH  37  39
ATOM     38  C   UNL     1      -2.712  -1.342  -0.068  0.00  0.00    +0.007 C 
ATOM     39  C   UNL     1      -1.185  -1.266  -0.032  0.00  0.00    +0.038 C 
ENDBRANCH  37  39
ENDBRANCH  36  37
ENDBRANCH  30  36
ENDBRANCH  23  33
ENDBRANCH  22  27
ENDBRANCH   1  22
TORSDOF 9
