REMARK  Name = ZINC59158030
REMARK  8 active torsions:
REMARK  status: ('A' for Active; 'I' for Inactive)
REMARK    1  A    between atoms: C_1  and  O_2
REMARK    2  A    between atoms: O_2  and  C_3
REMARK    3  A    between atoms: C_6  and  C_10
REMARK    4  A    between atoms: C_8  and  O_9
REMARK    5  A    between atoms: N_11  and  N_12
REMARK    6  A    between atoms: C_13  and  C_15
REMARK    7  A    between atoms: C_24  and  O_25
REMARK    8  A    between atoms: O_25  and  C_26
REMARK                            x       y       z     vdW  Elec       q    Type
REMARK                         _______ _______ _______ _____ _____    ______ ____
ROOT
ATOM      1  N   UNL     1       3.762  -2.453   6.307  0.00  0.00    -0.203 N 
ATOM      2  C   UNL     1       4.321  -1.713   7.286  0.00  0.00    +0.267 C 
ATOM      3  O   UNL     1       4.266  -0.499   7.237  0.00  0.00    -0.268 OA
ATOM      4  H   UNL     1       3.805  -3.421   6.346  0.00  0.00    +0.178 HD
ENDROOT
BRANCH   2   5
ATOM      5  C   UNL     1       4.999  -2.376   8.413  0.00  0.00    +0.081 A 
ATOM      6  C   UNL     1       5.065  -3.781   8.462  0.00  0.00    +0.017 A 
ATOM      7  C   UNL     1       5.683  -4.414   9.490  0.00  0.00    +0.009 A 
ATOM      8  C   UNL     1       6.272  -3.669  10.530  0.00  0.00    -0.014 A 
ATOM      9  C   UNL     1       6.916  -4.308  11.602  0.00  0.00    +0.008 A 
ATOM     10  C   UNL     1       7.478  -3.562  12.594  0.00  0.00    +0.001 A 
ATOM     11  C   UNL     1       7.423  -2.171  12.563  0.00  0.00    +0.001 A 
ATOM     12  C   UNL     1       6.806  -1.517  11.539  0.00  0.00    +0.012 A 
ATOM     13  C   UNL     1       6.217  -2.253  10.499  0.00  0.00    +0.025 A 
ATOM     14  C   UNL     1       5.576  -1.608   9.422  0.00  0.00    +0.140 A 
BRANCH  14  15
ATOM     15  O   UNL     1       5.517  -0.255   9.372  0.00  0.00    -0.494 OA
ATOM     16  C   UNL     1       4.392   0.369   9.993  0.00  0.00    +0.277 C 
ENDBRANCH  14  15
ENDBRANCH   2   5
BRANCH   1  18
ATOM     17  C   UNL     1       2.578  -2.534   4.293  0.00  0.00    +0.138 C 
ATOM     18  N   UNL     1       3.117  -1.823   5.235  0.00  0.00    -0.187 NA
BRANCH  17  22
ATOM     19  C   UNL     1       0.626  -0.619   1.042  0.00  0.00    +0.161 A 
ATOM     20  C   UNL     1       1.202   0.141   2.050  0.00  0.00    +0.050 A 
ATOM     21  C   UNL     1       1.836  -0.477   3.107  0.00  0.00    +0.013 A 
ATOM     22  C   UNL     1       1.900  -1.872   3.164  0.00  0.00    -0.002 A 
ATOM     23  C   UNL     1       1.320  -2.636   2.149  0.00  0.00    +0.058 A 
ATOM     24  C   UNL     1       0.681  -2.010   1.095  0.00  0.00    +0.159 A 
BRANCH  19  26
ATOM     25  C   UNL     1      -0.017   1.425   0.010  0.00  0.00    +0.277 C 
ATOM     26  O   UNL     1       0.002  -0.004   0.002  0.00  0.00    -0.491 OA
ENDBRANCH  19  26
BRANCH  24  27
ATOM     27  O   UNL     1       0.111  -2.751   0.108  0.00  0.00    -0.503 OA
ATOM     28  H   UNL     1       0.707  -2.953  -0.627  0.00  0.00    +0.292 HD
ENDBRANCH  24  27
ENDBRANCH  17  22
ENDBRANCH   1  18
TORSDOF 6
