REMARK  Name = ZINC34728566
REMARK  4 active torsions:
REMARK  status: ('A' for Active; 'I' for Inactive)
REMARK    1  A    between atoms: C_1  and  C_2
REMARK    2  A    between atoms: C_2  and  N_3
REMARK    3  A    between atoms: N_11  and  C_14
REMARK    4  A    between atoms: C_14  and  C_15
REMARK                            x       y       z     vdW  Elec       q    Type
REMARK                         _______ _______ _______ _____ _____    ______ ____
ROOT
ATOM      1  N   UNL     1      -1.372  -0.511   0.012  0.00  0.00    -0.261 N 
ATOM      2  C   UNL     1      -1.977  -0.739   1.192  0.00  0.00    +0.265 A 
ATOM      3  O   UNL     1      -1.390  -0.526   2.237  0.00  0.00    -0.267 OA
ATOM      4  C   UNL     1      -3.365  -1.251   1.204  0.00  0.00    +0.074 A 
ATOM      5  C   UNL     1      -4.209  -1.568   2.356  0.00  0.00    -0.023 A 
ATOM      6  C   UNL     1      -5.440  -2.022   2.047  0.00  0.00    -0.004 A 
ATOM      7  S   UNL     1      -5.486  -2.029   0.279  0.00  0.00    -0.075 S 
ATOM      8  C   UNL     1      -3.948  -1.461  -0.044  0.00  0.00    +0.097 A 
ATOM      9  N   UNL     1      -3.257  -1.202  -1.200  0.00  0.00    -0.278 N 
ATOM     10  C   UNL     1      -1.997  -0.731  -1.156  0.00  0.00    +0.333 A 
ATOM     11  O   UNL     1      -1.409  -0.505  -2.196  0.00  0.00    -0.246 OA
ATOM     12  C   UNL     1      -6.518  -2.426   3.006  0.00  0.00    +0.043 C 
ATOM     13  C   UNL     1      -5.885  -2.607   4.393  0.00  0.00    +0.005 C 
ATOM     14  C   UNL     1      -5.004  -1.392   4.698  0.00  0.00    +0.005 C 
ATOM     15  C   UNL     1      -3.764  -1.410   3.803  0.00  0.00    +0.037 C 
ENDROOT
BRANCH   1  17
ATOM     16  C   UNL     1      -0.019   1.526   0.010  0.00  0.00    +0.027 C 
ATOM     17  C   UNL     1       0.002  -0.004   0.002  0.00  0.00    +0.126 C 
ENDBRANCH   1  17
BRANCH   9  18
ATOM     18  C   UNL     1      -3.900  -1.434  -2.496  0.00  0.00    +0.222 C 
BRANCH  18  19
ATOM     19  C   UNL     1      -4.612  -0.181  -2.935  0.00  0.00    +0.230 C 
ATOM     20  O   UNL     1      -4.585   0.809  -2.235  0.00  0.00    -0.274 OA
ATOM     21  N   UNL     1      -5.279  -0.160  -4.107  0.00  0.00    -0.328 N 
ATOM     22  H   UNL     1      -5.300  -0.952  -4.667  0.00  0.00    +0.145 HD
ATOM     23  H   UNL     1      -5.737   0.647  -4.389  0.00  0.00    +0.145 HD
ENDBRANCH  18  19
ENDBRANCH   9  18
TORSDOF 3
