REMARK  Name = ZINC04008409
REMARK  10 active torsions:
REMARK  status: ('A' for Active; 'I' for Inactive)
REMARK    1  A    between atoms: C_1  and  O_2
REMARK    2  A    between atoms: O_2  and  C_3
REMARK    3  A    between atoms: C_5  and  C_13
REMARK    4  A    between atoms: C_7  and  O_11
REMARK    5  A    between atoms: C_8  and  O_9
REMARK    6  A    between atoms: O_9  and  C_10
REMARK    7  A    between atoms: O_11  and  C_12
REMARK    8  A    between atoms: C_19  and  C_27
REMARK    9  A    between atoms: C_21  and  C_25
REMARK   10  A    between atoms: C_22  and  N_24
REMARK                            x       y       z     vdW  Elec       q    Type
REMARK                         _______ _______ _______ _____ _____    ______ ____
ROOT
ATOM      1  C   UNL     1       3.190   0.480  -3.942  0.00  0.00    +0.084 C 
ATOM      2  N   UNL     1       3.367   1.774  -3.987  0.00  0.00    -0.150 NA
ATOM      3  N   UNL     1       4.205   2.156  -5.035  0.00  0.00    -0.115 NA
ATOM      4  C   UNL     1       4.660   1.144  -5.683  0.00  0.00    +0.227 C 
ATOM      5  C   UNL     1       3.969  -0.089  -5.105  0.00  0.00    +0.140 C 
ATOM      6  C   UNL     1       5.094  -1.008  -4.613  0.00  0.00    +0.083 C 
ATOM      7  C   UNL     1       6.206  -1.010  -5.628  0.00  0.00    +0.095 C 
ATOM      8  C   UNL     1       6.396  -0.045  -6.551  0.00  0.00    +0.200 C 
ATOM      9  O   UNL     1       5.574   1.033  -6.671  0.00  0.00    -0.425 OA
ENDROOT
BRANCH   6  10
ATOM     10  C   UNL     1       5.615  -0.504  -3.292  0.00  0.00    -0.024 A 
ATOM     11  C   UNL     1       6.198   0.747  -3.211  0.00  0.00    +0.005 A 
ATOM     12  C   UNL     1       6.676   1.210  -2.000  0.00  0.00    +0.000 A 
ATOM     13  C   UNL     1       6.571   0.423  -0.868  0.00  0.00    +0.001 A 
ATOM     14  C   UNL     1       5.988  -0.828  -0.948  0.00  0.00    +0.015 A 
ATOM     15  C   UNL     1       5.505  -1.290  -2.159  0.00  0.00    +0.022 A 
ATOM     16 BR   UNL     1       4.701  -2.998  -2.268  0.00  0.00    -0.050 Br
ENDBRANCH   6  10
BRANCH   1  19
ATOM     17  C   UNL     1       1.355  -0.408  -0.791  0.00  0.00    +0.166 A 
ATOM     18  C   UNL     1       2.099   0.301  -1.715  0.00  0.00    +0.059 A 
ATOM     19  C   UNL     1       2.398  -0.271  -2.956  0.00  0.00    +0.006 A 
ATOM     20  C   UNL     1       1.941  -1.558  -3.257  0.00  0.00    +0.059 A 
ATOM     21  C   UNL     1       1.197  -2.261  -2.328  0.00  0.00    +0.166 A 
ATOM     22  C   UNL     1       0.906  -1.691  -1.092  0.00  0.00    +0.204 A 
BRANCH  17  24
ATOM     23  C   UNL     1       1.556   1.467   0.659  0.00  0.00    +0.277 C 
ATOM     24  O   UNL     1       1.064   0.147   0.416  0.00  0.00    -0.491 OA
ENDBRANCH  17  24
BRANCH  22  25
ATOM     25  O   UNL     1       0.178  -2.387  -0.178  0.00  0.00    -0.488 OA
ATOM     26  C   UNL     1      -1.241  -2.231  -0.225  0.00  0.00    +0.277 C 
ENDBRANCH  22  25
BRANCH  21  27
ATOM     27  O   UNL     1       0.752  -3.513  -2.620  0.00  0.00    -0.491 OA
ATOM     28  C   UNL     1       1.184  -4.082  -3.858  0.00  0.00    +0.277 C 
ENDBRANCH  21  27
ENDBRANCH   1  19
BRANCH   8  29
ATOM     29  N   UNL     1       7.461  -0.158  -7.409  0.00  0.00    -0.328 N 
ATOM     30  H   UNL     1       8.058  -0.919  -7.344  0.00  0.00    +0.145 HD
ATOM     31  H   UNL     1       7.617   0.525  -8.081  0.00  0.00    +0.145 HD
ENDBRANCH   8  29
BRANCH   7  32
ATOM     32  C   UNL     1       7.123  -2.110  -5.612  0.00  0.00    +0.100 C 
ATOM     33  N   UNL     1       7.850  -2.983  -5.600  0.00  0.00    -0.191 NA
ENDBRANCH   7  32
TORSDOF 7
