REMARK  Name = ZINC07780846
REMARK  9 active torsions:
REMARK  status: ('A' for Active; 'I' for Inactive)
REMARK    1  A    between atoms: C_1  and  C_2
REMARK    2  A    between atoms: C_2  and  C_3
REMARK    3  A    between atoms: C_8  and  N_9
REMARK    4  A    between atoms: C_12  and  C_17
REMARK    5  A    between atoms: C_17  and  N_61
REMARK    6  A    between atoms: C_21  and  C_23
REMARK    7  A    between atoms: C_26  and  O_29
REMARK    8  A    between atoms: O_29  and  C_30
REMARK    9  A    between atoms: C_30  and  C_31
REMARK                            x       y       z     vdW  Elec       q    Type
REMARK                         _______ _______ _______ _____ _____    ______ ____
ROOT
ATOM      1  N   UNL     1      -1.198  -0.721   0.009  0.00  0.00    -0.283 N 
ATOM      2  C   UNL     1      -1.181  -2.098  -0.103  0.00  0.00    +0.224 A 
ATOM      3  N   UNL     1      -2.325  -2.773  -0.196  0.00  0.00    -0.201 NA
ATOM      4  C   UNL     1      -2.309  -4.090  -0.303  0.00  0.00    +0.120 A 
ATOM      5  N   UNL     1      -1.159  -4.742  -0.318  0.00  0.00    -0.202 NA
ATOM      6  C   UNL     1      -0.012  -4.074  -0.225  0.00  0.00    +0.217 A 
ATOM      7  N   UNL     1      -0.024  -2.749  -0.122  0.00  0.00    -0.181 NA
ATOM      8  N   UNL     1       1.188  -4.755  -0.240  0.00  0.00    -0.327 N 
ATOM      9  H   UNL     1      -2.036  -0.238  -0.070  0.00  0.00    +0.155 HD
ATOM     10  H   UNL     1       1.195  -5.722  -0.319  0.00  0.00    +0.145 HD
ATOM     11  H   UNL     1       2.023  -4.268  -0.172  0.00  0.00    +0.145 HD
ENDROOT
BRANCH   1  17
ATOM     12  C   UNL     1       0.133   1.280  -0.222  0.00  0.00    -0.026 A 
ATOM     13  C   UNL     1       1.310   1.966   0.005  0.00  0.00    +0.005 A 
ATOM     14  C   UNL     1       2.347   1.357   0.688  0.00  0.00    +0.000 A 
ATOM     15  C   UNL     1       2.209   0.060   1.146  0.00  0.00    +0.002 A 
ATOM     16  C   UNL     1       1.035  -0.632   0.923  0.00  0.00    +0.023 A 
ATOM     17  C   UNL     1      -0.008  -0.023   0.237  0.00  0.00    +0.037 A 
BRANCH  12  19
ATOM     18  C   UNL     1      -1.978   2.556   0.026  0.00  0.00    +0.009 C 
ATOM     19  C   UNL     1      -0.994   1.942  -0.971  0.00  0.00    +0.033 C 
ENDBRANCH  12  19
ENDBRANCH   1  17
BRANCH   4  20
ATOM     20  C   UNL     1      -3.606  -4.851  -0.408  0.00  0.00    -0.000 C 
BRANCH  20  25
ATOM     21  C   UNL     1      -4.494  -3.700  -2.361  0.00  0.00    -0.077 C 
ATOM     22  C   UNL     1      -5.322  -4.100  -3.602  0.00  0.00    -0.020 C 
ATOM     23  C   UNL     1      -5.732  -5.566  -3.353  0.00  0.00    -0.013 C 
ATOM     24  C   UNL     1      -5.118  -5.928  -1.984  0.00  0.00    -0.037 C 
ATOM     25  N   UNL     1      -4.011  -4.985  -1.843  0.00  0.00    +0.389 N 
ATOM     26  H   UNL     1      -3.206  -5.305  -2.393  0.00  0.00    -0.080 HD
BRANCH  24  27
ATOM     27  C   UNL     1      -4.624  -7.352  -1.989  0.00  0.00    -0.061 A 
ATOM     28  C   UNL     1      -3.456  -7.674  -2.655  0.00  0.00    +0.005 A 
ATOM     29  C   UNL     1      -2.998  -8.978  -2.657  0.00  0.00    +0.046 A 
ATOM     30  C   UNL     1      -3.716  -9.965  -1.998  0.00  0.00    +0.121 A 
ATOM     31  C   UNL     1      -4.890  -9.640  -1.335  0.00  0.00    +0.046 A 
ATOM     32  C   UNL     1      -5.341  -8.334  -1.331  0.00  0.00    +0.005 A 
BRANCH  30  33
ATOM     33  O   UNL     1      -3.270 -11.249  -2.002  0.00  0.00    -0.492 OA
BRANCH  33  34
ATOM     34  C   UNL     1      -2.054 -11.511  -2.706  0.00  0.00    +0.225 C 
ATOM     35  C   UNL     1      -1.714 -12.998  -2.600  0.00  0.00    +0.048 C 
ENDBRANCH  33  34
ENDBRANCH  30  33
ENDBRANCH  24  27
ENDBRANCH  20  25
ENDBRANCH   4  20
TORSDOF 7
