REMARK  Name = ZINC35804814
REMARK  16 active torsions:
REMARK  status: ('A' for Active; 'I' for Inactive)
REMARK    1  A    between atoms: C_1  and  C_2
REMARK    2  A    between atoms: C_2  and  C_3
REMARK    3  A    between atoms: C_8  and  N_9
REMARK    4  A    between atoms: N_12  and  C_13
REMARK    5  A    between atoms: N_12  and  C_36
REMARK    6  A    between atoms: C_13  and  C_14
REMARK    7  A    between atoms: N_16  and  C_17
REMARK    8  A    between atoms: N_16  and  C_29
REMARK    9  A    between atoms: C_17  and  C_18
REMARK   10  A    between atoms: C_18  and  C_19
REMARK   11  A    between atoms: C_22  and  O_27
REMARK   12  A    between atoms: C_23  and  O_25
REMARK   13  A    between atoms: O_25  and  C_26
REMARK   14  A    between atoms: O_27  and  C_28
REMARK   15  A    between atoms: C_29  and  C_30
REMARK   16  A    between atoms: C_33  and  C_35
REMARK                            x       y       z     vdW  Elec       q    Type
REMARK                         _______ _______ _______ _____ _____    ______ ____
ROOT
ATOM      1  C   UNL     1      -2.898   0.882  -6.340  0.00  0.00    +0.233 C 
ATOM      2  O   UNL     1      -2.755   1.840  -5.610  0.00  0.00    -0.274 OA
ATOM      3  N   UNL     1      -3.628   0.995  -7.467  0.00  0.00    -0.295 N 
ENDROOT
BRANCH   1   4
ATOM      4  C   UNL     1      -2.258  -0.436  -5.987  0.00  0.00    +0.205 C 
BRANCH   4   8
ATOM      5  N   UNL     1      -1.503  -0.323  -2.392  0.00  0.00    -0.269 N 
ATOM      6  C   UNL     1      -2.146  -0.545  -3.555  0.00  0.00    +0.307 C 
ATOM      7  O   UNL     1      -3.286  -0.967  -3.549  0.00  0.00    -0.252 OA
ATOM      8  N   UNL     1      -1.524  -0.300  -4.726  0.00  0.00    -0.274 N 
ATOM      9  H   UNL     1      -0.607   0.049  -2.396  0.00  0.00    +0.156 HD
BRANCH   5  15
ATOM     10  C   UNL     1      -1.364  -0.901  -0.051  0.00  0.00    -0.026 A 
ATOM     11  C   UNL     1      -1.984  -1.196   1.148  0.00  0.00    +0.005 A 
ATOM     12  C   UNL     1      -3.364  -1.225   1.225  0.00  0.00    +0.000 A 
ATOM     13  C   UNL     1      -4.128  -0.960   0.103  0.00  0.00    +0.002 A 
ATOM     14  C   UNL     1      -3.514  -0.664  -1.098  0.00  0.00    +0.023 A 
ATOM     15  C   UNL     1      -2.128  -0.628  -1.177  0.00  0.00    +0.038 A 
BRANCH  10  17
ATOM     16  C   UNL     1       0.632   0.567   0.061  0.00  0.00    +0.009 C 
ATOM     17  C   UNL     1       0.140  -0.869  -0.134  0.00  0.00    +0.033 C 
ENDBRANCH  10  17
ENDBRANCH   5  15
BRANCH   8  18
ATOM     18  C   UNL     1      -0.116   0.101  -4.737  0.00  0.00    +0.078 C 
ATOM     19  C   UNL     1       0.511   0.442  -6.091  0.00  0.00    +0.024 C 
ATOM     20  C   UNL     1       0.888  -0.859  -5.379  0.00  0.00    +0.024 C 
ENDBRANCH   8  18
ENDBRANCH   4   8
ENDBRANCH   1   4
BRANCH   3  21
ATOM     21  C   UNL     1      -4.251   2.276  -7.810  0.00  0.00    +0.113 C 
BRANCH  21  22
ATOM     22  C   UNL     1      -3.283   3.102  -8.659  0.00  0.00    +0.054 C 
BRANCH  22  23
ATOM     23  C   UNL     1      -3.923   4.420  -9.013  0.00  0.00    -0.042 A 
ATOM     24  C   UNL     1      -4.677   4.533 -10.166  0.00  0.00    +0.007 A 
ATOM     25  C   UNL     1      -5.266   5.740 -10.494  0.00  0.00    +0.049 A 
ATOM     26  C   UNL     1      -5.102   6.839  -9.667  0.00  0.00    +0.161 A 
ATOM     27  C   UNL     1      -4.343   6.725  -8.506  0.00  0.00    +0.162 A 
ATOM     28  C   UNL     1      -3.759   5.511  -8.180  0.00  0.00    +0.053 A 
BRANCH  27  29
ATOM     29  O   UNL     1      -4.179   7.801  -7.690  0.00  0.00    -0.491 OA
ATOM     30  C   UNL     1      -3.388   7.610  -6.516  0.00  0.00    +0.277 C 
ENDBRANCH  27  29
BRANCH  26  31
ATOM     31  O   UNL     1      -5.680   8.027  -9.989  0.00  0.00    -0.491 OA
ATOM     32  C   UNL     1      -6.444   8.071 -11.195  0.00  0.00    +0.277 C 
ENDBRANCH  26  31
ENDBRANCH  22  23
ENDBRANCH  21  22
ENDBRANCH   3  21
BRANCH   3  33
ATOM     33  C   UNL     1      -3.800  -0.162  -8.348  0.00  0.00    +0.150 C 
BRANCH  33  34
ATOM     34  C   UNL     1      -5.026  -0.933  -7.931  0.00  0.00    +0.007 A 
ATOM     35  C   UNL     1      -6.308  -0.791  -8.350  0.00  0.00    +0.013 A 
ATOM     36  C   UNL     1      -7.281  -1.620  -7.825  0.00  0.00    +0.011 A 
ATOM     37  C   UNL     1      -6.925  -2.551  -6.906  0.00  0.00    -0.013 A 
ATOM     38  S   UNL     1      -5.167  -2.276  -6.764  0.00  0.00    -0.097 S 
ATOM     39  C   UNL     1      -7.789  -3.560  -6.194  0.00  0.00    +0.051 C 
ENDBRANCH  33  34
ENDBRANCH   3  33
TORSDOF 12
