REMARK  Name = ZINC39494303
REMARK  11 active torsions:
REMARK  status: ('A' for Active; 'I' for Inactive)
REMARK    1  A    between atoms: C_4  and  C_7
REMARK    2  A    between atoms: C_7  and  C_9
REMARK    3  A    between atoms: C_7  and  N_30
REMARK    4  A    between atoms: C_9  and  C_11
REMARK    5  A    between atoms: C_9  and  S_20
REMARK    6  A    between atoms: C_11  and  C_13
REMARK    7  A    between atoms: C_18  and  O_19
REMARK    8  A    between atoms: S_20  and  O_23
REMARK    9  A    between atoms: O_23  and  C_24
REMARK   10  A    between atoms: C_31  and  C_33
REMARK   11  A    between atoms: C_38  and  O_39
REMARK                            x       y       z     vdW  Elec       q    Type
REMARK                         _______ _______ _______ _____ _____    ______ ____
ROOT
ATOM      1  C   UNL     1       4.023  -1.287  -1.499  0.00  0.00    +0.266 C 
ENDROOT
BRANCH   1   2
ATOM      2  S   UNL     1       2.490  -2.212  -1.790  0.00  0.00    +0.133 S 
ATOM      3  O   UNL     1       2.542  -2.860  -3.054  0.00  0.00    -0.136 OA
ATOM      4  O   UNL     1       2.125  -2.933  -0.622  0.00  0.00    -0.136 OA
BRANCH   2   5
ATOM      5  O   UNL     1       1.414  -1.148  -1.943  0.00  0.00    -0.346 OA
BRANCH   5   6
ATOM      6  C   UNL     1       1.417  -0.527  -3.151  0.00  0.00    +0.156 A 
ATOM      7  C   UNL     1       2.252   0.559  -3.372  0.00  0.00    +0.048 A 
ATOM      8  C   UNL     1       2.255   1.189  -4.602  0.00  0.00    +0.004 A 
ATOM      9  C   UNL     1       1.426   0.737  -5.612  0.00  0.00    +0.000 A 
ATOM     10  C   UNL     1       0.593  -0.344  -5.395  0.00  0.00    +0.004 A 
ATOM     11  C   UNL     1       0.591  -0.981  -4.169  0.00  0.00    +0.048 A 
ENDBRANCH   5   6
ENDBRANCH   2   5
ENDBRANCH   1   2
BRANCH   1  12
ATOM     12  C   UNL     1       5.202  -2.220  -1.606  0.00  0.00    +0.196 C 
ATOM     13  O   UNL     1       5.061  -3.403  -1.375  0.00  0.00    -0.290 OA
BRANCH  12  14
ATOM     14  C   UNL     1       6.519  -1.698  -1.989  0.00  0.00    +0.061 A 
ATOM     15  C   UNL     1       6.712  -0.321  -2.148  0.00  0.00    +0.015 A 
ATOM     16  C   UNL     1       7.951   0.161  -2.507  0.00  0.00    +0.001 A 
ATOM     17  C   UNL     1       9.009  -0.711  -2.713  0.00  0.00    +0.004 A 
ATOM     18  C   UNL     1       8.834  -2.071  -2.561  0.00  0.00    +0.046 A 
ATOM     19  C   UNL     1       7.595  -2.577  -2.193  0.00  0.00    +0.127 A 
BRANCH  19  20
ATOM     20  O   UNL     1       7.423  -3.913  -2.037  0.00  0.00    -0.506 OA
ATOM     21  H   UNL     1       7.154  -4.372  -2.845  0.00  0.00    +0.292 HD
ENDBRANCH  19  20
ENDBRANCH  12  14
ENDBRANCH   1  12
BRANCH   1  22
ATOM     22  C   UNL     1       3.988  -0.668  -0.100  0.00  0.00    +0.139 C 
BRANCH  22  26
ATOM     23  C   UNL     1       0.464   1.710   0.313  0.00  0.00    +0.000 A 
ATOM     24  C   UNL     1       1.620   2.271  -0.195  0.00  0.00    +0.000 A 
ATOM     25  C   UNL     1       2.761   1.501  -0.329  0.00  0.00    +0.005 A 
ATOM     26  C   UNL     1       2.745   0.171   0.046  0.00  0.00    -0.025 A 
ATOM     27  C   UNL     1       1.588  -0.389   0.556  0.00  0.00    +0.005 A 
ATOM     28  C   UNL     1       0.448   0.380   0.688  0.00  0.00    +0.000 A 
ENDBRANCH  22  26
BRANCH  22  29
ATOM     29  N   UNL     1       3.979  -1.734   0.905  0.00  0.00    -0.302 N 
ATOM     30  C   UNL     1       4.341  -1.466   2.175  0.00  0.00    +0.248 C 
ATOM     31  O   UNL     1       4.676  -0.339   2.486  0.00  0.00    -0.270 OA
ATOM     32  H   UNL     1       3.712  -2.633   0.656  0.00  0.00    +0.150 HD
BRANCH  30  33
ATOM     33  C   UNL     1       4.332  -2.539   3.187  0.00  0.00    +0.078 A 
ATOM     34  C   UNL     1       3.954  -3.836   2.832  0.00  0.00    +0.017 A 
ATOM     35  C   UNL     1       3.948  -4.834   3.782  0.00  0.00    +0.001 A 
ATOM     36  C   UNL     1       4.316  -4.557   5.089  0.00  0.00    +0.004 A 
ATOM     37  C   UNL     1       4.692  -3.280   5.453  0.00  0.00    +0.046 A 
ATOM     38  C   UNL     1       4.709  -2.264   4.509  0.00  0.00    +0.129 A 
BRANCH  38  39
ATOM     39  O   UNL     1       5.083  -1.010   4.864  0.00  0.00    -0.506 OA
ATOM     40  H   UNL     1       4.353  -0.452   5.165  0.00  0.00    +0.292 HD
ENDBRANCH  38  39
ENDBRANCH  30  33
ENDBRANCH  22  29
ENDBRANCH   1  22
TORSDOF 11
