REMARK  Name = ZINC16097474
REMARK  5 active torsions:
REMARK  status: ('A' for Active; 'I' for Inactive)
REMARK    1  A    between atoms: C_1  and  C_2
REMARK    2  A    between atoms: C_5  and  N_8
REMARK    3  A    between atoms: C_11  and  C_16
REMARK    4  A    between atoms: C_16  and  N_17
REMARK    5  A    between atoms: C_21  and  C_23
REMARK                            x       y       z     vdW  Elec       q    Type
REMARK                         _______ _______ _______ _____ _____    ______ ____
ROOT
ATOM      1  N   UNL     1       0.057  -4.169  -0.021  0.00  0.00    -0.284 N 
ATOM      2  C   UNL     1       0.176  -4.865   1.167  0.00  0.00    +0.224 A 
ATOM      3  N   UNL     1       0.299  -6.190   1.153  0.00  0.00    -0.198 NA
ATOM      4  C   UNL     1       0.413  -6.856   2.288  0.00  0.00    +0.150 A 
ATOM      5  N   UNL     1       0.406  -6.211   3.441  0.00  0.00    -0.198 NA
ATOM      6  C   UNL     1       0.284  -4.886   3.463  0.00  0.00    +0.217 A 
ATOM      7  N   UNL     1       0.174  -4.211   2.323  0.00  0.00    -0.181 NA
ATOM      8  N   UNL     1       0.276  -4.212   4.667  0.00  0.00    -0.327 N 
ATOM      9  H   UNL     1      -0.022  -4.650  -0.859  0.00  0.00    +0.155 HD
ATOM     10  H   UNL     1       0.359  -4.705   5.499  0.00  0.00    +0.145 HD
ATOM     11  H   UNL     1       0.186  -3.246   4.683  0.00  0.00    +0.145 HD
ENDROOT
BRANCH   1  16
ATOM     12  C   UNL     1       0.030   1.503   0.005  0.00  0.00    +0.044 C 
ATOM     13  C   UNL     1       0.037  -0.004  -0.002  0.00  0.00    -0.050 A 
ATOM     14  C   UNL     1       0.791  -0.694   0.929  0.00  0.00    +0.005 A 
ATOM     15  C   UNL     1       0.800  -2.075   0.926  0.00  0.00    +0.023 A 
ATOM     16  C   UNL     1       0.050  -2.771  -0.014  0.00  0.00    +0.034 A 
ATOM     17  C   UNL     1      -0.707  -2.074  -0.948  0.00  0.00    +0.023 A 
ATOM     18  C   UNL     1      -0.716  -0.693  -0.935  0.00  0.00    +0.005 A 
ENDBRANCH   1  16
BRANCH   4  19
ATOM     19  C   UNL     1       0.552  -8.357   2.268  0.00  0.00    +0.161 C 
BRANCH  19  20
ATOM     20  N   UNL     1       1.974  -8.717   2.198  0.00  0.00    -0.288 NA
ATOM     21  C   UNL     1       2.668  -8.382   3.460  0.00  0.00    +0.085 C 
ATOM     22  C   UNL     1       2.722  -9.715   4.248  0.00  0.00    +0.017 C 
ATOM     23  C   UNL     1       2.960 -10.742   3.110  0.00  0.00    +0.025 C 
ATOM     24  C   UNL     1       2.143 -10.158   1.938  0.00  0.00    +0.087 C 
BRANCH  24  25
ATOM     25  C   UNL     1       2.886 -10.362   0.643  0.00  0.00    -0.027 A 
ATOM     26  C   UNL     1       3.951  -9.540   0.323  0.00  0.00    +0.009 A 
ATOM     27  C   UNL     1       4.638  -9.721  -0.864  0.00  0.00    +0.050 A 
ATOM     28  C   UNL     1       4.256 -10.731  -1.731  0.00  0.00    +0.162 A 
ATOM     29  C   UNL     1       3.188 -11.556  -1.410  0.00  0.00    +0.162 A 
ATOM     30  C   UNL     1       2.505 -11.375  -0.219  0.00  0.00    +0.054 A 
ATOM     31  O   UNL     1       2.820 -12.549  -2.271  0.00  0.00    -0.488 OA
ATOM     32  C   UNL     1       2.253 -12.121  -3.511  0.00  0.00    +0.232 C 
ATOM     33  C   UNL     1       3.344 -11.802  -4.521  0.00  0.00    +0.082 C 
ATOM     34  C   UNL     1       4.199 -10.619  -4.096  0.00  0.00    +0.232 C 
ATOM     35  O   UNL     1       4.927 -10.921  -2.904  0.00  0.00    -0.488 OA
ENDBRANCH  24  25
ENDBRANCH  19  20
ENDBRANCH   4  19
TORSDOF 4
