REMARK  Name = ZINC64678773
REMARK  9 active torsions:
REMARK  status: ('A' for Active; 'I' for Inactive)
REMARK    1  A    between atoms: C_1  and  C_2
REMARK    2  A    between atoms: C_2  and  C_3
REMARK    3  A    between atoms: C_2  and  C_4
REMARK    4  A    between atoms: C_4  and  C_5
REMARK    5  A    between atoms: N_7  and  C_8
REMARK    6  A    between atoms: N_7  and  C_9
REMARK    7  A    between atoms: C_9  and  C_10
REMARK    8  A    between atoms: C_10  and  C_11
REMARK    9  A    between atoms: C_14  and  C_17
REMARK                            x       y       z     vdW  Elec       q    Type
REMARK                         _______ _______ _______ _____ _____    ______ ____
ROOT
ATOM      1  C   UNL     1      -2.477  -6.317   0.997  0.00  0.00    +0.139 C 
ATOM      2  N   UNL     1      -2.505  -6.944  -0.122  0.00  0.00    -0.072 NA
ATOM      3  O   UNL     1      -2.477  -8.345   0.079  0.00  0.00    -0.367 OA
ATOM      4  C   UNL     1      -2.426  -8.548   1.500  0.00  0.00    +0.318 C 
ATOM      5  N   UNL     1      -2.423  -7.187   2.061  0.00  0.00    -0.291 N 
ATOM      6  H   UNL     1      -2.390  -6.950   3.001  0.00  0.00    +0.151 HD
ENDROOT
BRANCH   4   7
ATOM      7  C   UNL     1      -3.655  -9.326   1.974  0.00  0.00    +0.165 C 
ATOM      8  C   UNL     1      -3.583  -9.556   3.467  0.00  0.00    +0.012 C 
ATOM      9  C   UNL     1      -3.567 -10.898   3.639  0.00  0.00    -0.002 A 
ATOM     10  C   UNL     1      -3.505 -11.746   4.835  0.00  0.00    +0.029 A 
ATOM     11  C   UNL     1      -3.503 -13.091   4.687  0.00  0.00    +0.042 A 
ATOM     12  C   UNL     1      -3.559 -13.693   3.421  0.00  0.00    +0.022 A 
ATOM     13  C   UNL     1      -3.618 -12.980   2.277  0.00  0.00    +0.027 A 
ATOM     14  C   UNL     1      -3.625 -11.558   2.315  0.00  0.00    +0.043 A 
ATOM     15  N   UNL     1      -3.677 -10.659   1.360  0.00  0.00    -0.373 N 
ATOM     16 CL   UNL     1      -3.429 -14.097   6.099  0.00  0.00    -0.084 Cl
ATOM     17  H   UNL     1      -3.722 -10.844   0.409  0.00  0.00    +0.160 HD
ENDBRANCH   4   7
BRANCH   1  18
ATOM     18  C   UNL     1      -2.494  -4.816   1.129  0.00  0.00    +0.094 C 
BRANCH  18  19
ATOM     19  C   UNL     1      -2.558  -4.183  -0.262  0.00  0.00    +0.115 C 
BRANCH  19  22
ATOM     20  C   UNL     1      -1.416  -2.035  -0.119  0.00  0.00    +0.216 C 
ATOM     21  O   UNL     1      -0.359  -2.623  -0.213  0.00  0.00    -0.276 OA
ATOM     22  N   UNL     1      -2.574  -2.724  -0.133  0.00  0.00    -0.304 N 
ATOM     23  C   UNL     1      -3.850  -2.013  -0.020  0.00  0.00    +0.132 C 
BRANCH  20  24
ATOM     24  C   UNL     1      -1.433  -0.534   0.013  0.00  0.00    +0.099 C 
BRANCH  24  26
ATOM     25  C   UNL     1      -0.019   1.526   0.010  0.00  0.00    +0.008 C 
ATOM     26  C   UNL     1       0.002  -0.004   0.002  0.00  0.00    -0.008 C 
ATOM     27  C   UNL     1       0.742  -0.511   1.242  0.00  0.00    +0.008 C 
ENDBRANCH  24  26
ENDBRANCH  20  24
ENDBRANCH  19  22
ENDBRANCH  18  19
ENDBRANCH   1  18
TORSDOF 6
