REMARK  Name = ZINC38684398
REMARK  11 active torsions:
REMARK  status: ('A' for Active; 'I' for Inactive)
REMARK    1  A    between atoms: C_1  and  C_2
REMARK    2  A    between atoms: C_2  and  C_3
REMARK    3  A    between atoms: C_3  and  O_4
REMARK    4  A    between atoms: O_4  and  C_5
REMARK    5  A    between atoms: C_9  and  C_11
REMARK    6  A    between atoms: C_16  and  O_25
REMARK    7  A    between atoms: C_20  and  N_24
REMARK    8  A    between atoms: C_21  and  C_22
REMARK    9  A    between atoms: O_25  and  C_26
REMARK   10  A    between atoms: C_26  and  C_28
REMARK   11  A    between atoms: C_29  and  C_30
REMARK                            x       y       z     vdW  Elec       q    Type
REMARK                         _______ _______ _______ _____ _____    ______ ____
ROOT
ATOM      1  C   UNL     1      -3.995  -6.165   0.054  0.00  0.00    +0.098 C 
ATOM      2  C   UNL     1      -4.716  -6.625  -1.185  0.00  0.00    +0.008 A 
ATOM      3  C   UNL     1      -4.094  -6.512  -2.416  0.00  0.00    +0.012 A 
ATOM      4  C   UNL     1      -4.740  -6.928  -3.563  0.00  0.00    +0.047 A 
ATOM      5  C   UNL     1      -6.018  -7.464  -3.484  0.00  0.00    +0.135 A 
ATOM      6  C   UNL     1      -6.644  -7.579  -2.253  0.00  0.00    +0.093 A 
ATOM      7  C   UNL     1      -5.993  -7.158  -1.100  0.00  0.00    +0.138 A 
ATOM      8  O   UNL     1      -6.619  -7.277   0.097  0.00  0.00    -0.441 OA
ATOM      9  C   UNL     1      -5.902  -7.252   1.233  0.00  0.00    +0.199 C 
ATOM     10  C   UNL     1      -4.654  -6.737   1.278  0.00  0.00    +0.098 C 
ENDROOT
BRANCH   1  15
ATOM     11  C   UNL     1      -2.892  -2.553   0.193  0.00  0.00    +0.121 A 
ATOM     12  C   UNL     1      -4.113  -1.896   0.254  0.00  0.00    +0.045 A 
ATOM     13  C   UNL     1      -5.288  -2.622   0.250  0.00  0.00    +0.004 A 
ATOM     14  C   UNL     1      -5.249  -4.002   0.185  0.00  0.00    +0.005 A 
ATOM     15  C   UNL     1      -4.034  -4.660   0.125  0.00  0.00    -0.031 A 
ATOM     16  C   UNL     1      -2.856  -3.938   0.123  0.00  0.00    +0.050 A 
BRANCH  11  17
ATOM     17  O   UNL     1      -1.735  -1.841   0.197  0.00  0.00    -0.492 OA
BRANCH  17  18
ATOM     18  C   UNL     1      -1.848  -0.419   0.272  0.00  0.00    +0.229 C 
BRANCH  18  20
ATOM     19  C   UNL     1      -0.573   1.729   0.344  0.00  0.00    +0.007 C 
ATOM     20  C   UNL     1      -0.451   0.205   0.264  0.00  0.00    +0.038 C 
ENDBRANCH  18  20
ENDBRANCH  17  18
ENDBRANCH  11  17
ENDBRANCH   1  15
BRANCH   9  21
ATOM     21  N   UNL     1      -6.456  -7.762   2.381  0.00  0.00    -0.328 N 
ATOM     22  H   UNL     1      -7.351  -8.134   2.364  0.00  0.00    +0.145 HD
ATOM     23  H   UNL     1      -5.951  -7.751   3.209  0.00  0.00    +0.145 HD
ENDBRANCH   9  21
BRANCH  10  24
ATOM     24  C   UNL     1      -3.944  -6.739   2.521  0.00  0.00    +0.101 C 
ATOM     25  N   UNL     1      -3.380  -6.740   3.508  0.00  0.00    -0.191 NA
ENDBRANCH  10  24
BRANCH   5  26
ATOM     26  O   UNL     1      -6.655  -7.875  -4.612  0.00  0.00    -0.423 OA
BRANCH  26  27
ATOM     27  C   UNL     1      -7.720  -7.162  -5.034  0.00  0.00    +0.337 C 
ATOM     28  O   UNL     1      -8.019  -6.126  -4.471  0.00  0.00    -0.245 OA
BRANCH  27  29
ATOM     29  C   UNL     1      -8.512  -7.634  -6.167  0.00  0.00    +0.092 C 
ATOM     30  C   UNL     1      -9.578  -6.920  -6.589  0.00  0.00    +0.016 C 
BRANCH  30  31
ATOM     31  C   UNL     1     -10.376  -7.396  -7.729  0.00  0.00    -0.006 A 
ATOM     32  C   UNL     1     -10.037  -8.590  -8.375  0.00  0.00    +0.011 A 
ATOM     33  C   UNL     1     -10.790  -9.029  -9.443  0.00  0.00    +0.020 A 
ATOM     34  C   UNL     1     -11.880  -8.292  -9.878  0.00  0.00    +0.042 A 
ATOM     35  C   UNL     1     -12.222  -7.109  -9.245  0.00  0.00    +0.040 A 
ATOM     36  C   UNL     1     -11.481  -6.658  -8.170  0.00  0.00    +0.049 A 
ATOM     37 CL   UNL     1     -11.915  -5.179  -7.373  0.00  0.00    -0.083 Cl
ATOM     38 CL   UNL     1     -12.821  -8.854 -11.223  0.00  0.00    -0.083 Cl
ENDBRANCH  30  31
ENDBRANCH  27  29
ENDBRANCH  26  27
ENDBRANCH   5  26
TORSDOF 10
