REMARK  Name = ZINC36660443
REMARK  10 active torsions:
REMARK  status: ('A' for Active; 'I' for Inactive)
REMARK    1  A    between atoms: C_1  and  C_2
REMARK    2  A    between atoms: C_2  and  C_3
REMARK    3  A    between atoms: C_3  and  N_4
REMARK    4  A    between atoms: C_10  and  N_16
REMARK    5  A    between atoms: C_11  and  C_12
REMARK    6  A    between atoms: C_12  and  O_14
REMARK    7  A    between atoms: O_14  and  C_15
REMARK    8  A    between atoms: C_17  and  C_19
REMARK    9  A    between atoms: N_24  and  S_25
REMARK   10  A    between atoms: S_25  and  C_28
REMARK                            x       y       z     vdW  Elec       q    Type
REMARK                         _______ _______ _______ _____ _____    ______ ____
ROOT
ATOM      1  N   UNL     1       2.553  -7.799  -0.444  0.00  0.00    -0.278 N 
ATOM      2  C   UNL     1       2.936  -8.044  -1.713  0.00  0.00    +0.236 C 
ATOM      3  O   UNL     1       3.009  -7.133  -2.511  0.00  0.00    -0.274 OA
ATOM      4  H   UNL     1       2.495  -8.527   0.194  0.00  0.00    +0.155 HD
ENDROOT
BRANCH   1  11
ATOM      5  N   UNL     1       0.762  -1.980   1.234  0.00  0.00    +0.383 N 
ATOM      6  C   UNL     1       1.362  -2.467   2.482  0.00  0.00    -0.074 C 
ATOM      7  C   UNL     1       1.113  -3.972   2.636  0.00  0.00    +0.018 C 
ATOM      8  C   UNL     1       1.567  -4.654   1.354  0.00  0.00    -0.025 A 
ATOM      9  C   UNL     1       1.756  -3.929   0.228  0.00  0.00    -0.021 A 
ATOM     10  S   UNL     1       2.273  -5.109  -0.982  0.00  0.00    -0.079 S 
ATOM     11  C   UNL     1       2.242  -6.507  -0.051  0.00  0.00    +0.086 A 
ATOM     12  C   UNL     1       1.833  -6.072   1.202  0.00  0.00    +0.091 A 
ATOM     13  C   UNL     1       1.555  -2.454   0.084  0.00  0.00    -0.035 C 
ATOM     14  H   UNL     1      -0.182  -2.328   1.157  0.00  0.00    -0.081 HD
BRANCH  12  15
ATOM     15  C   UNL     1       1.677  -7.003   2.321  0.00  0.00    +0.342 C 
ATOM     16  O   UNL     1       0.607  -7.549   2.514  0.00  0.00    -0.245 OA
BRANCH  15  17
ATOM     17  O   UNL     1       2.720  -7.255   3.139  0.00  0.00    -0.464 OA
ATOM     18  C   UNL     1       2.496  -8.173   4.211  0.00  0.00    +0.280 C 
ENDBRANCH  15  17
ENDBRANCH  12  15
BRANCH   5  19
ATOM     19  C   UNL     1       0.742  -0.511   1.242  0.00  0.00    -0.079 C 
BRANCH  19  21
ATOM     20  C   UNL     1      -0.019   1.526   0.010  0.00  0.00    +0.002 C 
ATOM     21  C   UNL     1       0.002  -0.004   0.002  0.00  0.00    -0.022 C 
ENDBRANCH  19  21
ENDBRANCH   5  19
ENDBRANCH   1  11
BRANCH   2  22
ATOM     22  C   UNL     1       3.274  -9.449  -2.140  0.00  0.00    +0.166 C 
ATOM     23  C   UNL     1       2.036 -10.357  -1.985  0.00  0.00    +0.031 C 
ATOM     24  C   UNL     1       1.442 -10.382  -3.418  0.00  0.00    +0.019 C 
ATOM     25  C   UNL     1       2.725 -10.351  -4.287  0.00  0.00    +0.110 C 
ATOM     26  N   UNL     1       3.654  -9.461  -3.561  0.00  0.00    -0.165 NA
BRANCH  26  27
ATOM     27  S   UNL     1       4.911  -8.618  -4.232  0.00  0.00    +0.062 S 
ATOM     28  O   UNL     1       4.601  -8.453  -5.609  0.00  0.00    -0.153 OA
ATOM     29  O   UNL     1       5.166  -7.516  -3.371  0.00  0.00    -0.153 OA
BRANCH  27  30
ATOM     30  C   UNL     1       6.333  -9.655  -4.157  0.00  0.00    +0.106 A 
ATOM     31  C   UNL     1       7.160  -9.615  -3.049  0.00  0.00    +0.030 A 
ATOM     32  C   UNL     1       8.276 -10.428  -2.989  0.00  0.00    +0.022 A 
ATOM     33  C   UNL     1       8.566 -11.282  -4.039  0.00  0.00    +0.041 A 
ATOM     34  C   UNL     1       7.739 -11.321  -5.147  0.00  0.00    +0.022 A 
ATOM     35  C   UNL     1       6.620 -10.512  -5.203  0.00  0.00    +0.030 A 
ATOM     36 CL   UNL     1       9.968 -12.303  -3.965  0.00  0.00    -0.084 Cl
ENDBRANCH  27  30
ENDBRANCH  26  27
ENDBRANCH   2  22
TORSDOF 8
