REMARK  Name = ZINC08790042
REMARK  5 active torsions:
REMARK  status: ('A' for Active; 'I' for Inactive)
REMARK    1  A    between atoms: C_1  and  C_2
REMARK    2  A    between atoms: C_2  and  C_4
REMARK    3  A    between atoms: C_2  and  O_36
REMARK    4  A    between atoms: N_12  and  C_15
REMARK    5  A    between atoms: C_15  and  C_16
REMARK                            x       y       z     vdW  Elec       q    Type
REMARK                         _______ _______ _______ _____ _____    ______ ____
ROOT
ATOM      1  C   UNL     1       0.718  -0.497  -1.257  0.00  0.00    -0.028 C 
ATOM      2  C   UNL     1       0.010   0.034  -2.521  0.00  0.00    +0.075 C 
ATOM      3  C   UNL     1       1.158   0.358  -3.516  0.00  0.00    +0.088 C 
ATOM      4  C   UNL     1       1.054   1.875  -3.661  0.00  0.00    +0.225 C 
ATOM      5  O   UNL     1       1.770   2.561  -4.359  0.00  0.00    -0.275 OA
ATOM      6  N   UNL     1       0.048   2.329  -2.905  0.00  0.00    -0.237 N 
ATOM      7  C   UNL     1      -0.604   1.382  -2.220  0.00  0.00    +0.224 C 
ATOM      8  O   UNL     1      -1.541   1.575  -1.476  0.00  0.00    -0.275 OA
ATOM      9  C   UNL     1       2.440  -0.002  -2.756  0.00  0.00    +0.050 C 
ATOM     10  C   UNL     1       2.942  -1.367  -3.137  0.00  0.00    -0.026 A 
ATOM     11  C   UNL     1       2.395  -2.629  -3.073  0.00  0.00    +0.024 A 
ATOM     12  C   UNL     1       3.123  -3.721  -3.514  0.00  0.00    +0.041 A 
ATOM     13  C   UNL     1       4.399  -3.541  -4.016  0.00  0.00    +0.022 A 
ATOM     14  C   UNL     1       4.950  -2.278  -4.080  0.00  0.00    +0.025 A 
ATOM     15  C   UNL     1       4.225  -1.173  -3.640  0.00  0.00    +0.036 A 
ATOM     16  N   UNL     1       4.559   0.183  -3.603  0.00  0.00    -0.286 N 
ATOM     17  C   UNL     1       3.564   0.937  -3.095  0.00  0.00    +0.211 C 
ATOM     18  O   UNL     1       3.574   2.140  -2.942  0.00  0.00    -0.277 OA
ATOM     19 CL   UNL     1       2.435  -5.314  -3.435  0.00  0.00    -0.084 Cl
ATOM     20  H   UNL     1       5.407   0.540  -3.908  0.00  0.00    +0.155 HD
ATOM     21  N   UNL     1       2.073   0.051  -1.351  0.00  0.00    +0.396 N 
ATOM     22  H   UNL     1       2.724  -0.514  -0.792  0.00  0.00    -0.083 HD
ATOM     23  H   UNL     1       2.087   1.021  -1.016  0.00  0.00    -0.083 HD
ENDROOT
BRANCH   1  25
ATOM     24  C   UNL     1      -1.388  -0.638   0.079  0.00  0.00    +0.036 C 
ATOM     25  C   UNL     1       0.002  -0.004   0.002  0.00  0.00    +0.098 C 
BRANCH  25  26
ATOM     26  O   UNL     1       0.759  -0.373   1.156  0.00  0.00    -0.394 OA
ATOM     27  H   UNL     1       0.885  -1.327   1.255  0.00  0.00    +0.210 HD
ENDBRANCH  25  26
ENDBRANCH   1  25
BRANCH   6  28
ATOM     28  C   UNL     1      -0.310   3.748  -2.832  0.00  0.00    +0.151 C 
BRANCH  28  29
ATOM     29  C   UNL     1       0.463   4.405  -1.718  0.00  0.00    -0.026 A 
ATOM     30  C   UNL     1      -0.068   4.448  -0.442  0.00  0.00    +0.009 A 
ATOM     31  C   UNL     1       0.639   5.046   0.585  0.00  0.00    +0.050 A 
ATOM     32  C   UNL     1       1.879   5.612   0.334  0.00  0.00    +0.166 A 
ATOM     33  C   UNL     1       2.411   5.573  -0.952  0.00  0.00    +0.167 A 
ATOM     34  C   UNL     1       1.699   4.968  -1.975  0.00  0.00    +0.054 A 
ATOM     35  O   UNL     1       3.628   6.191  -0.940  0.00  0.00    -0.453 OA
ATOM     36  C   UNL     1       4.017   6.247   0.446  0.00  0.00    +0.466 C 
ATOM     37  O   UNL     1       2.762   6.255   1.153  0.00  0.00    -0.453 OA
ENDBRANCH  28  29
ENDBRANCH   6  28
TORSDOF 4
