REMARK  Name = ZINC45606001
REMARK  10 active torsions:
REMARK  status: ('A' for Active; 'I' for Inactive)
REMARK    1  A    between atoms: C_1  and  C_2
REMARK    2  A    between atoms: C_4  and  C_34
REMARK    3  A    between atoms: C_5  and  S_9
REMARK    4  A    between atoms: C_6  and  C_8
REMARK    5  A    between atoms: S_9  and  N_12
REMARK    6  A    between atoms: N_15  and  C_18
REMARK    7  A    between atoms: C_18  and  C_19
REMARK    8  A    between atoms: C_19  and  C_21
REMARK    9  A    between atoms: C_22  and  N_33
REMARK   10  A    between atoms: N_23  and  C_30
REMARK                            x       y       z     vdW  Elec       q    Type
REMARK                         _______ _______ _______ _____ _____    ______ ____
ROOT
ATOM      1  N   UNL     1       2.531  -7.007   1.455  0.00  0.00    -0.174 NA
ATOM      2  C   UNL     1       3.142  -7.567   0.240  0.00  0.00    +0.125 C 
ATOM      3  C   UNL     1       4.642  -7.253   0.260  0.00  0.00    +0.102 C 
ATOM      4  N   UNL     1       5.221  -7.729   1.523  0.00  0.00    -0.293 NA
ATOM      5  C   UNL     1       4.641  -7.025   2.675  0.00  0.00    +0.102 C 
ATOM      6  C   UNL     1       3.145  -7.325   2.753  0.00  0.00    +0.125 C 
ENDROOT
BRANCH   1   7
ATOM      7  S   UNL     1       1.190  -6.039   1.363  0.00  0.00    +0.061 S 
ATOM      8  O   UNL     1       0.484  -6.207   2.584  0.00  0.00    -0.153 OA
ATOM      9  O   UNL     1       0.594  -6.290   0.097  0.00  0.00    -0.153 OA
BRANCH   7  14
ATOM     10  C   UNL     1       3.124  -0.325   1.259  0.00  0.00    +0.044 C 
ATOM     11  C   UNL     1       2.641  -1.752   1.285  0.00  0.00    -0.050 A 
ATOM     12  C   UNL     1       2.311  -2.348   2.488  0.00  0.00    +0.008 A 
ATOM     13  C   UNL     1       1.868  -3.658   2.511  0.00  0.00    -0.024 A 
ATOM     14  C   UNL     1       1.754  -4.370   1.333  0.00  0.00    +0.111 A 
ATOM     15  C   UNL     1       2.083  -3.773   0.130  0.00  0.00    -0.024 A 
ATOM     16  C   UNL     1       2.522  -2.463   0.106  0.00  0.00    +0.008 A 
ATOM     17  C   UNL     1       1.960  -4.551  -1.156  0.00  0.00    +0.046 C 
ATOM     18  C   UNL     1       1.509  -4.308   3.823  0.00  0.00    +0.046 C 
ENDBRANCH   7  14
ENDBRANCH   1   7
BRANCH   4  19
ATOM     19  C   UNL     1       6.685  -7.603   1.512  0.00  0.00    +0.164 C 
BRANCH  19  20
ATOM     20  C   UNL     1       7.260  -8.319   2.707  0.00  0.00    +0.185 C 
ATOM     21  O   UNL     1       6.522  -8.880   3.492  0.00  0.00    -0.290 OA
BRANCH  20  22
ATOM     22  C   UNL     1       8.656  -8.338   2.913  0.00  0.00    +0.121 A 
ATOM     23  C   UNL     1       9.223  -9.074   3.968  0.00  0.00    +0.116 A 
ATOM     24  N   UNL     1      10.580  -9.061   4.127  0.00  0.00    -0.278 N 
ATOM     25  C   UNL     1      11.373  -8.363   3.300  0.00  0.00    +0.331 A 
ATOM     26  O   UNL     1      12.574  -8.385   3.484  0.00  0.00    -0.246 OA
ATOM     27  N   UNL     1      10.889  -7.643   2.276  0.00  0.00    -0.274 N 
ATOM     28  H   UNL     1      11.500  -7.154   1.703  0.00  0.00    +0.173 HD
ATOM     29  C   UNL     1       9.563  -7.595   2.029  0.00  0.00    +0.266 A 
ATOM     30  O   UNL     1       9.127  -6.944   1.097  0.00  0.00    -0.267 OA
BRANCH  24  31
ATOM     31  C   UNL     1      11.181  -9.825   5.224  0.00  0.00    +0.094 C 
ATOM     32  C   UNL     1      12.373 -10.723   4.888  0.00  0.00    +0.027 C 
ATOM     33  C   UNL     1      11.011 -11.345   5.202  0.00  0.00    +0.027 C 
ENDBRANCH  24  31
BRANCH  23  34
ATOM     34  N   UNL     1       8.434  -9.786   4.817  0.00  0.00    -0.344 N 
ATOM     35  H   UNL     1       7.497  -9.922   4.609  0.00  0.00    +0.144 HD
ATOM     36  H   UNL     1       8.809 -10.158   5.631  0.00  0.00    +0.144 HD
ENDBRANCH  23  34
ENDBRANCH  20  22
ENDBRANCH  19  20
ENDBRANCH   4  19
TORSDOF 7
