REMARK  Name = ZINC13038860
REMARK  11 active torsions:
REMARK  status: ('A' for Active; 'I' for Inactive)
REMARK    1  A    between atoms: C_1  and  C_2
REMARK    2  A    between atoms: N_11  and  C_12
REMARK    3  A    between atoms: C_12  and  C_13
REMARK    4  A    between atoms: N_15  and  C_16
REMARK    5  A    between atoms: N_15  and  C_20
REMARK    6  A    between atoms: C_16  and  C_17
REMARK    7  A    between atoms: C_17  and  C_18
REMARK    8  A    between atoms: C_17  and  C_19
REMARK    9  A    between atoms: C_21  and  N_36
REMARK   10  A    between atoms: N_22  and  C_29
REMARK   11  A    between atoms: C_29  and  C_30
REMARK                            x       y       z     vdW  Elec       q    Type
REMARK                         _______ _______ _______ _____ _____    ______ ____
ROOT
ATOM      1  C   UNL     1      -2.961  -2.521   0.352  0.00  0.00    +0.140 A 
ATOM      2  C   UNL     1      -3.572  -3.289  -0.618  0.00  0.00    +0.128 A 
ATOM      3  N   UNL     1      -4.811  -3.831  -0.364  0.00  0.00    -0.276 N 
ATOM      4  C   UNL     1      -5.420  -3.614   0.815  0.00  0.00    +0.331 A 
ATOM      5  O   UNL     1      -6.515  -4.101   1.020  0.00  0.00    -0.246 OA
ATOM      6  N   UNL     1      -4.840  -2.868   1.772  0.00  0.00    -0.273 N 
ATOM      7  H   UNL     1      -5.316  -2.718   2.639  0.00  0.00    +0.173 HD
ATOM      8  C   UNL     1      -3.625  -2.320   1.577  0.00  0.00    +0.277 A 
ATOM      9  O   UNL     1      -3.106  -1.649   2.453  0.00  0.00    -0.266 OA
ENDROOT
BRANCH   1  12
ATOM     10  C   UNL     1      -1.565  -0.615  -0.015  0.00  0.00    +0.237 C 
ATOM     11  O   UNL     1      -0.489  -0.133  -0.302  0.00  0.00    -0.274 OA
ATOM     12  N   UNL     1      -1.691  -1.951   0.122  0.00  0.00    -0.263 N 
BRANCH  10  13
ATOM     13  C   UNL     1      -2.761   0.279   0.188  0.00  0.00    +0.201 C 
BRANCH  13  23
ATOM     14  C   UNL     1      -3.275   2.217  -2.379  0.00  0.00    +0.028 C 
ATOM     15  C   UNL     1      -2.049   1.808  -1.560  0.00  0.00    +0.075 C 
ATOM     16  C   UNL     1      -0.998   2.942  -1.543  0.00  0.00    +0.059 C 
ATOM     17  C   UNL     1      -0.422   2.845  -0.144  0.00  0.00    -0.025 A 
ATOM     18  C   UNL     1       0.730   3.362   0.409  0.00  0.00    +0.005 A 
ATOM     19  C   UNL     1       1.033   3.117   1.736  0.00  0.00    +0.000 A 
ATOM     20  C   UNL     1       0.178   2.352   2.508  0.00  0.00    +0.002 A 
ATOM     21  C   UNL     1      -0.977   1.835   1.961  0.00  0.00    +0.023 A 
ATOM     22  C   UNL     1      -1.291   2.079   0.625  0.00  0.00    +0.034 A 
ATOM     23  N   UNL     1      -2.396   1.666  -0.130  0.00  0.00    -0.318 N 
ENDBRANCH  13  23
ENDBRANCH  10  13
BRANCH  12  24
ATOM     24  C   UNL     1      -0.508  -2.811   0.032  0.00  0.00    +0.117 C 
BRANCH  24  25
ATOM     25  C   UNL     1       0.019  -3.102   1.439  0.00  0.00    +0.001 C 
ATOM     26  C   UNL     1       1.191  -4.082   1.352  0.00  0.00    +0.009 C 
ATOM     27  C   UNL     1       0.490  -1.799   2.087  0.00  0.00    +0.009 C 
ENDBRANCH  24  25
ENDBRANCH  12  24
ENDBRANCH   1  12
BRANCH   2  28
ATOM     28  N   UNL     1      -2.950  -3.510  -1.824  0.00  0.00    -0.343 N 
ATOM     29  H   UNL     1      -2.049  -3.183  -1.971  0.00  0.00    +0.144 HD
ATOM     30  H   UNL     1      -3.412  -3.992  -2.527  0.00  0.00    +0.144 HD
ENDBRANCH   2  28
BRANCH   3  31
ATOM     31  C   UNL     1      -5.470  -4.648  -1.385  0.00  0.00    +0.163 C 
BRANCH  31  32
ATOM     32  C   UNL     1      -5.079  -6.092  -1.203  0.00  0.00    -0.028 A 
ATOM     33  C   UNL     1      -3.969  -6.595  -1.856  0.00  0.00    +0.005 A 
ATOM     34  C   UNL     1      -3.607  -7.918  -1.685  0.00  0.00    +0.000 A 
ATOM     35  C   UNL     1      -4.361  -8.741  -0.869  0.00  0.00    +0.000 A 
ATOM     36  C   UNL     1      -5.474  -8.239  -0.220  0.00  0.00    +0.000 A 
ATOM     37  C   UNL     1      -5.833  -6.915  -0.387  0.00  0.00    +0.005 A 
ENDBRANCH  31  32
ENDBRANCH   3  31
TORSDOF 8
