REMARK  Name = ZINC52607950
REMARK  10 active torsions:
REMARK  status: ('A' for Active; 'I' for Inactive)
REMARK    1  A    between atoms: N_17  and  C_18
REMARK    2  A    between atoms: C_18  and  C_20
REMARK    3  A    between atoms: C_18  and  C_30
REMARK    4  A    between atoms: C_20  and  C_21
REMARK    5  A    between atoms: N_32  and  C_33
REMARK    6  A    between atoms: C_33  and  C_34
REMARK    7  A    between atoms: C_34  and  C_35
REMARK    8  A    between atoms: C_35  and  C_36
REMARK    9  A    between atoms: C_36  and  C_37
REMARK   10  A    between atoms: C_37  and  N_38
REMARK                            x       y       z     vdW  Elec       q    Type
REMARK                         _______ _______ _______ _____ _____    ______ ____
ROOT
ATOM      1  C   UNL     1       9.737  -1.268  -0.074  0.00  0.00    +0.164 C 
ENDROOT
BRANCH   1  18
ATOM      2  C   UNL     1       0.786  -5.157  -2.456  0.00  0.00    +0.000 A 
ATOM      3  C   UNL     1       1.927  -5.738  -1.934  0.00  0.00    +0.000 A 
ATOM      4  C   UNL     1       2.903  -4.946  -1.361  0.00  0.00    +0.004 A 
ATOM      5  C   UNL     1       2.743  -3.571  -1.306  0.00  0.00    -0.038 A 
ATOM      6  C   UNL     1       1.601  -2.991  -1.827  0.00  0.00    -0.044 A 
ATOM      7  C   UNL     1       0.624  -3.787  -2.401  0.00  0.00    +0.004 A 
ATOM      8  C   UNL     1       1.662  -1.489  -1.647  0.00  0.00    +0.036 C 
ATOM      9  C   UNL     1       2.753  -1.254  -0.581  0.00  0.00    +0.016 C 
ATOM     10  C   UNL     1       3.645  -2.498  -0.744  0.00  0.00    -0.001 C 
ATOM     11  C   UNL     1       4.782  -2.200  -1.716  0.00  0.00    +0.030 C 
ATOM     12  C   UNL     1       5.645  -1.063  -1.156  0.00  0.00    +0.110 C 
ATOM     13  N   UNL     1       6.075  -1.424   0.203  0.00  0.00    -0.286 N 
ATOM     14  C   UNL     1       5.055  -1.797   1.193  0.00  0.00    +0.110 C 
ATOM     15  C   UNL     1       4.196  -2.926   0.614  0.00  0.00    +0.030 C 
ATOM     16  C   UNL     1       7.381  -1.413   0.534  0.00  0.00    +0.303 C 
ATOM     17  O   UNL     1       7.719  -1.624   1.683  0.00  0.00    -0.253 OA
ATOM     18  N   UNL     1       8.314  -1.170  -0.408  0.00  0.00    -0.288 N 
ATOM     19  H   UNL     1       8.043  -0.929  -1.308  0.00  0.00    +0.151 HD
ENDBRANCH   1  18
BRANCH   1  20
ATOM     20  C   UNL     1      10.520  -1.625  -1.311  0.00  0.00    +0.234 C 
ATOM     21  O   UNL     1       9.947  -1.782  -2.368  0.00  0.00    -0.274 OA
ATOM     22  N   UNL     1      11.858  -1.770  -1.242  0.00  0.00    -0.314 N 
ATOM     23  H   UNL     1      12.317  -1.644  -0.397  0.00  0.00    +0.149 HD
BRANCH  22  24
ATOM     24  C   UNL     1      12.620  -2.116  -2.445  0.00  0.00    +0.104 C 
BRANCH  24  25
ATOM     25  C   UNL     1      14.106  -2.219  -2.095  0.00  0.00    +0.019 C 
BRANCH  25  26
ATOM     26  C   UNL     1      14.902  -2.581  -3.351  0.00  0.00    -0.000 C 
BRANCH  26  27
ATOM     27  C   UNL     1      16.388  -2.684  -3.001  0.00  0.00    -0.019 C 
BRANCH  27  28
ATOM     28  C   UNL     1      17.183  -3.046  -4.257  0.00  0.00    -0.086 C 
BRANCH  28  29
ATOM     29  N   UNL     1      18.610  -3.144  -3.921  0.00  0.00    +0.378 N 
ATOM     30  H   UNL     1      18.933  -2.258  -3.563  0.00  0.00    -0.090 HD
ATOM     31  H   UNL     1      18.742  -3.859  -3.221  0.00  0.00    -0.090 HD
ATOM     32  H   UNL     1      19.134  -3.383  -4.750  0.00  0.00    -0.090 HD
ENDBRANCH  28  29
ENDBRANCH  27  28
ENDBRANCH  26  27
ENDBRANCH  25  26
ENDBRANCH  24  25
ENDBRANCH  22  24
ENDBRANCH   1  20
BRANCH   1  33
ATOM     33  C   UNL     1      10.226   0.076   0.470  0.00  0.00    +0.065 C 
BRANCH  33  34
ATOM     34  C   UNL     1       9.992   1.150  -0.560  0.00  0.00    -0.039 C 
ATOM     35  C   UNL     1       8.921   1.973  -0.648  0.00  0.00    -0.001 A 
ATOM     36  C   UNL     1       7.702   2.107   0.158  0.00  0.00    +0.010 A 
ATOM     37  C   UNL     1       6.790   3.045  -0.184  0.00  0.00    +0.001 A 
ATOM     38  C   UNL     1       6.978   3.889  -1.287  0.00  0.00    +0.002 A 
ATOM     39  C   UNL     1       8.073   3.826  -2.075  0.00  0.00    +0.026 A 
ATOM     40  C   UNL     1       9.097   2.877  -1.807  0.00  0.00    +0.043 A 
ATOM     41  N   UNL     1      10.232   2.623  -2.412  0.00  0.00    -0.380 N 
ATOM     42  C   UNL     1      10.908   1.532  -1.701  0.00  0.00    +0.144 C 
ATOM     43  H   UNL     1      10.570   3.082  -3.197  0.00  0.00    +0.160 HD
ENDBRANCH  33  34
ENDBRANCH   1  33
TORSDOF 10
