REMARK  Name = ZINC06195187
REMARK  5 active torsions:
REMARK  status: ('A' for Active; 'I' for Inactive)
REMARK    1  A    between atoms: C_1  and  C_2
REMARK    2  A    between atoms: C_5  and  N_9
REMARK    3  A    between atoms: N_22  and  N_23
REMARK    4  A    between atoms: C_24  and  C_25
REMARK    5  A    between atoms: C_30  and  O_31
REMARK                            x       y       z     vdW  Elec       q    Type
REMARK                         _______ _______ _______ _____ _____    ______ ____
ROOT
ATOM      1  N   UNL     1      -0.844  -4.092   0.034  0.00  0.00    -0.283 N 
ATOM      2  C   UNL     1      -0.750  -4.774  -1.163  0.00  0.00    +0.225 A 
ATOM      3  N   UNL     1      -0.781  -4.106  -2.312  0.00  0.00    -0.179 NA
ATOM      4  C   UNL     1      -0.691  -4.763  -3.465  0.00  0.00    +0.241 A 
ATOM      5  N   UNL     1      -0.569  -6.087  -3.468  0.00  0.00    -0.180 NA
ATOM      6  C   UNL     1      -0.537  -6.754  -2.319  0.00  0.00    +0.224 A 
ATOM      7  N   UNL     1      -0.623  -6.097  -1.166  0.00  0.00    -0.181 NA
ATOM      8  N   UNL     1      -0.411  -8.129  -2.322  0.00  0.00    -0.295 N 
ATOM      9  C   UNL     1      -0.380  -8.889  -1.063  0.00  0.00    +0.136 C 
ATOM     10  C   UNL     1      -1.401 -10.028  -1.161  0.00  0.00    +0.179 C 
ATOM     11  O   UNL     1      -1.163 -10.772  -2.358  0.00  0.00    -0.377 OA
ATOM     12  C   UNL     1      -1.329 -10.016  -3.560  0.00  0.00    +0.179 C 
ATOM     13  C   UNL     1      -0.310  -8.877  -3.585  0.00  0.00    +0.136 C 
ATOM     14  N   UNL     1      -0.724  -4.070  -4.659  0.00  0.00    -0.205 N 
ATOM     15  H   UNL     1      -0.752  -4.570   0.873  0.00  0.00    +0.155 HD
ATOM     16  H   UNL     1      -0.734  -3.100  -4.657  0.00  0.00    +0.177 HD
ENDROOT
BRANCH   1  21
ATOM     17  C   UNL     1      -1.766   1.506   0.045  0.00  0.00    +0.044 C 
ATOM     18  C   UNL     1      -1.522   0.019   0.042  0.00  0.00    -0.049 A 
ATOM     19  C   UNL     1      -0.817  -0.562  -0.996  0.00  0.00    +0.005 A 
ATOM     20  C   UNL     1      -0.591  -1.925  -1.002  0.00  0.00    +0.025 A 
ATOM     21  C   UNL     1      -1.071  -2.711   0.037  0.00  0.00    +0.048 A 
ATOM     22  C   UNL     1      -1.778  -2.124   1.079  0.00  0.00    +0.039 A 
ATOM     23  C   UNL     1      -1.997  -0.760   1.081  0.00  0.00    +0.020 A 
ATOM     24 BR   UNL     1      -2.435  -3.190   2.497  0.00  0.00    -0.048 Br
ENDBRANCH   1  21
BRANCH  14  25
ATOM     25  N   UNL     1      -0.743  -4.767  -5.874  0.00  0.00    -0.187 NA
ATOM     26  C   UNL     1      -0.853  -4.119  -6.993  0.00  0.00    +0.142 C 
BRANCH  26  27
ATOM     27  C   UNL     1      -0.986  -4.857  -8.262  0.00  0.00    +0.037 A 
ATOM     28  C   UNL     1      -0.991  -4.168  -9.477  0.00  0.00    +0.033 A 
ATOM     29  C   UNL     1      -1.115  -4.865 -10.662  0.00  0.00    +0.042 A 
ATOM     30  C   UNL     1      -1.234  -6.245 -10.650  0.00  0.00    +0.023 A 
ATOM     31  C   UNL     1      -1.230  -6.937  -9.454  0.00  0.00    +0.047 A 
ATOM     32  C   UNL     1      -1.100  -6.253  -8.256  0.00  0.00    +0.126 A 
ATOM     33 CL   UNL     1      -1.122  -4.009 -12.172  0.00  0.00    -0.084 Cl
BRANCH  32  34
ATOM     34  O   UNL     1      -1.091  -6.934  -7.080  0.00  0.00    -0.506 OA
ATOM     35  H   UNL     1      -1.959  -7.006  -6.661  0.00  0.00    +0.292 HD
ENDBRANCH  32  34
ENDBRANCH  26  27
ENDBRANCH  14  25
TORSDOF 4
