REMARK  Name = ZINC23248693
REMARK  6 active torsions:
REMARK  status: ('A' for Active; 'I' for Inactive)
REMARK    1  A    between atoms: C_1  and  C_2
REMARK    2  A    between atoms: C_15  and  C_17
REMARK    3  A    between atoms: C_17  and  N_18
REMARK    4  A    between atoms: N_21  and  C_24
REMARK    5  A    between atoms: C_24  and  C_25
REMARK    6  A    between atoms: N_27  and  C_28
REMARK                            x       y       z     vdW  Elec       q    Type
REMARK                         _______ _______ _______ _____ _____    ______ ____
ROOT
ATOM      1  C   UNL     1      -0.868   5.851  -2.272  0.00  0.00    +0.029 C 
ATOM      2  C   UNL     1       0.304   5.916  -1.290  0.00  0.00    +0.087 C 
ATOM      3  C   UNL     1       1.522   5.225  -1.905  0.00  0.00    +0.118 C 
ATOM      4  C   UNL     1       2.540   4.924  -0.837  0.00  0.00    +0.219 C 
ATOM      5  O   UNL     1       3.541   5.604  -0.751  0.00  0.00    -0.275 OA
ATOM      6  N   UNL     1       2.347   3.902   0.025  0.00  0.00    -0.284 N 
ATOM      7  C   UNL     1       1.157   3.166  -0.000  0.00  0.00    +0.055 A 
ATOM      8  C   UNL     1       1.177   1.781   0.000  0.00  0.00    +0.025 A 
ATOM      9  C   UNL     1      -0.013   1.076   0.008  0.00  0.00    +0.002 A 
ATOM     10  C   UNL     1      -1.221   1.748   0.017  0.00  0.00    +0.002 A 
ATOM     11  C   UNL     1      -1.249   3.131   0.020  0.00  0.00    +0.025 A 
ATOM     12  C   UNL     1      -0.062   3.845  -0.002  0.00  0.00    +0.058 A 
ATOM     13  N   UNL     1      -0.071   5.246  -0.043  0.00  0.00    -0.265 N 
ATOM     14  C   UNL     1      -0.418   5.963   1.044  0.00  0.00    +0.234 C 
ATOM     15  O   UNL     1      -0.422   7.175   0.995  0.00  0.00    -0.274 OA
ATOM     16  H   UNL     1       3.128   3.643   0.755  0.00  0.00    +0.155 HD
ENDROOT
BRANCH  14  17
ATOM     17  C   UNL     1      -0.801   5.259   2.320  0.00  0.00    +0.181 C 
BRANCH  17  18
ATOM     18  N   UNL     1      -1.134   6.255   3.348  0.00  0.00    -0.298 NA
ATOM     19  C   UNL     1       0.051   7.037   3.726  0.00  0.00    +0.066 C 
ATOM     20  C   UNL     1      -0.353   8.113   4.737  0.00  0.00    -0.063 C 
ATOM     21  N   UNL     1      -0.957   7.473   5.915  0.00  0.00    +0.387 N 
ATOM     22  C   UNL     1      -2.141   6.691   5.536  0.00  0.00    -0.063 C 
ATOM     23  C   UNL     1      -1.738   5.615   4.525  0.00  0.00    +0.066 C 
ATOM     24  H   UNL     1      -0.216   6.782   6.343  0.00  0.00    -0.081 HD
BRANCH  21  25
ATOM     25  C   UNL     1      -1.289   8.469   6.942  0.00  0.00    +0.019 C 
BRANCH  25  26
ATOM     26  C   UNL     1      -0.021   9.079   7.480  0.00  0.00    +0.197 C 
ATOM     27  O   UNL     1       1.055   8.719   7.050  0.00  0.00    -0.278 OA
ATOM     28  N   UNL     1      -0.081  10.024   8.439  0.00  0.00    -0.314 N 
ATOM     29  H   UNL     1      -1.057  10.349   8.829  0.00  0.00    +0.149 HD
BRANCH  28  30
ATOM     30  C   UNL     1       1.152  10.617   8.962  0.00  0.00    +0.073 C 
ATOM     31  C   UNL     1       1.259  10.803  10.477  0.00  0.00    +0.024 C 
ATOM     32  C   UNL     1       1.060  12.018   9.569  0.00  0.00    +0.024 C 
ENDBRANCH  28  30
ENDBRANCH  25  26
ENDBRANCH  21  25
ENDBRANCH  17  18
ENDBRANCH  14  17
TORSDOF 5
