REMARK  Name = ZINC19646964
REMARK  10 active torsions:
REMARK  status: ('A' for Active; 'I' for Inactive)
REMARK    1  A    between atoms: C_1  and  C_2
REMARK    2  A    between atoms: C_2  and  C_3
REMARK    3  A    between atoms: C_5  and  C_21
REMARK    4  A    between atoms: C_6  and  N_8
REMARK    5  A    between atoms: N_8  and  C_9
REMARK    6  A    between atoms: C_9  and  N_11
REMARK    7  A    between atoms: N_11  and  N_12
REMARK    8  A    between atoms: C_13  and  C_15
REMARK    9  A    between atoms: C_21  and  O_23
REMARK   10  A    between atoms: O_23  and  C_24
REMARK                            x       y       z     vdW  Elec       q    Type
REMARK                         _______ _______ _______ _____ _____    ______ ____
ROOT
ATOM      1  C   UNL     1      -1.356   7.117   2.308  0.00  0.00    +0.151 C 
ATOM      2  S   UNL     1      -2.185   7.466   3.765  0.00  0.00    -0.017 S 
ENDROOT
BRANCH   1   3
ATOM      3  N   UNL     1      -1.143   5.837   1.944  0.00  0.00    -0.290 N 
ATOM      4  H   UNL     1      -0.610   5.614   1.008  0.00  0.00    +0.154 HD
BRANCH   3   8
ATOM      5  C   UNL     1      -2.631   3.169   4.606  0.00  0.00    -0.008 A 
ATOM      6  C   UNL     1      -2.034   2.574   3.559  0.00  0.00    +0.028 A 
ATOM      7  C   UNL     1      -1.470   3.433   2.545  0.00  0.00    +0.088 A 
ATOM      8  C   UNL     1      -1.593   4.804   2.748  0.00  0.00    +0.085 A 
ATOM      9  S   UNL     1      -2.449   4.905   4.250  0.00  0.00    -0.078 S 
BRANCH   5  11
ATOM     10  C   UNL     1      -2.263   2.319   6.907  0.00  0.00    +0.009 C 
ATOM     11  C   UNL     1      -3.295   2.524   5.795  0.00  0.00    +0.039 C 
ENDBRANCH   5  11
BRANCH   7  12
ATOM     12  C   UNL     1      -0.797   2.889   1.364  0.00  0.00    +0.341 C 
ATOM     13  O   UNL     1      -0.333   3.641   0.528  0.00  0.00    -0.245 OA
BRANCH  12  14
ATOM     14  O   UNL     1      -0.692   1.554   1.203  0.00  0.00    -0.464 OA
ATOM     15  C   UNL     1      -0.013   1.086   0.008  0.00  0.00    +0.280 C 
ENDBRANCH  12  14
ENDBRANCH   7  12
ENDBRANCH   3   8
ENDBRANCH   1   3
BRANCH   1  16
ATOM     16  N   UNL     1      -0.918   8.123   1.525  0.00  0.00    -0.245 N 
ATOM     17  H   UNL     1      -1.092   9.168   1.822  0.00  0.00    +0.172 HD
BRANCH  16  18
ATOM     18  N   UNL     1      -0.239   7.838   0.333  0.00  0.00    -0.231 N 
ATOM     19  C   UNL     1       0.199   8.843  -0.450  0.00  0.00    +0.267 C 
ATOM     20  O   UNL     1       0.006   9.999  -0.121  0.00  0.00    -0.268 OA
ATOM     21  H   UNL     1      -0.065   6.793   0.036  0.00  0.00    +0.173 HD
BRANCH  19  22
ATOM     22  C   UNL     1       0.909   8.545  -1.697  0.00  0.00    +0.076 A 
ATOM     23  C   UNL     1       1.430   9.421  -2.637  0.00  0.00    +0.036 A 
ATOM     24  C   UNL     1       2.057   8.869  -3.726  0.00  0.00    +0.026 A 
ATOM     25  C   UNL     1       2.127   7.516  -3.836  0.00  0.00    +0.061 A 
ATOM     26  S   UNL     1       1.319   6.960  -2.406  0.00  0.00    -0.091 S 
ATOM     27 BR   UNL     1       2.809   9.977  -5.061  0.00  0.00    -0.050 Br
ENDBRANCH  19  22
ENDBRANCH  16  18
ENDBRANCH   1  16
TORSDOF 8
