REMARK  Name = ZINC23079780
REMARK  6 active torsions:
REMARK  status: ('A' for Active; 'I' for Inactive)
REMARK    1  A    between atoms: C_4  and  N_7
REMARK    2  A    between atoms: C_8  and  C_10
REMARK    3  A    between atoms: C_10  and  O_11
REMARK    4  A    between atoms: O_11  and  C_12
REMARK    5  A    between atoms: C_12  and  C_14
REMARK    6  A    between atoms: C_16  and  N_22
REMARK                            x       y       z     vdW  Elec       q    Type
REMARK                         _______ _______ _______ _____ _____    ______ ____
ROOT
ATOM      1  C   UNL     1       5.330  -4.026  -4.503  0.00  0.00    +0.360 C 
ATOM      2  O   UNL     1       5.454  -3.442  -5.561  0.00  0.00    -0.243 OA
ENDROOT
BRANCH   1   3
ATOM      3  C   UNL     1       5.910  -5.376  -4.331  0.00  0.00    +0.169 A 
ATOM      4  C   UNL     1       6.602  -5.968  -5.384  0.00  0.00    +0.095 A 
ATOM      5  C   UNL     1       7.144  -7.242  -5.205  0.00  0.00    +0.067 A 
ATOM      6  C   UNL     1       6.968  -7.869  -3.973  0.00  0.00    +0.100 A 
ATOM      7  C   UNL     1       6.266  -7.213  -2.974  0.00  0.00    +0.150 A 
ATOM      8  N   UNL     1       5.771  -6.009  -3.171  0.00  0.00    -0.226 NA
ATOM      9 CL   UNL     1       6.043  -7.988  -1.436  0.00  0.00    -0.060 Cl
ATOM     10 CL   UNL     1       7.619  -9.453  -3.694  0.00  0.00    -0.078 Cl
ATOM     11 CL   UNL     1       6.787  -5.136  -6.896  0.00  0.00    -0.079 Cl
BRANCH   5  12
ATOM     12  N   UNL     1       7.843  -7.871  -6.234  0.00  0.00    -0.356 N 
ATOM     13  H   UNL     1       7.958  -7.424  -7.086  0.00  0.00    +0.142 HD
ATOM     14  H   UNL     1       8.215  -8.756  -6.096  0.00  0.00    +0.142 HD
ENDBRANCH   5  12
ENDBRANCH   1   3
BRANCH   1  15
ATOM     15  O   UNL     1       4.664  -3.445  -3.487  0.00  0.00    -0.451 OA
BRANCH  15  16
ATOM     16  C   UNL     1       4.130  -2.140  -3.723  0.00  0.00    +0.328 C 
BRANCH  16  18
ATOM     17  N   UNL     1       2.839  -0.440  -2.473  0.00  0.00    -0.310 N 
ATOM     18  C   UNL     1       3.424  -1.655  -2.483  0.00  0.00    +0.251 C 
ATOM     19  O   UNL     1       3.383  -2.356  -1.495  0.00  0.00    -0.272 OA
ATOM     20  H   UNL     1       2.872   0.121  -3.264  0.00  0.00    +0.149 HD
BRANCH  17  24
ATOM     21  C   UNL     1      -0.019   1.526   0.010  0.00  0.00    +0.000 C 
ATOM     22  C   UNL     1       1.417   2.055  -0.000  0.00  0.00    +0.002 C 
ATOM     23  C   UNL     1       2.133   1.562  -1.259  0.00  0.00    +0.022 C 
ATOM     24  C   UNL     1       2.154   0.032  -1.268  0.00  0.00    +0.073 C 
ATOM     25  C   UNL     1       0.718  -0.497  -1.257  0.00  0.00    +0.022 C 
ATOM     26  C   UNL     1       0.002  -0.004   0.002  0.00  0.00    +0.002 C 
ENDBRANCH  17  24
ENDBRANCH  16  18
ENDBRANCH  15  16
ENDBRANCH   1  15
TORSDOF 6
