REMARK  Name = ZINC14475906
REMARK  5 active torsions:
REMARK  status: ('A' for Active; 'I' for Inactive)
REMARK    1  A    between atoms: C_1  and  O_2
REMARK    2  A    between atoms: O_2  and  C_3
REMARK    3  A    between atoms: C_10  and  C_19
REMARK    4  A    between atoms: C_21  and  N_26
REMARK    5  A    between atoms: C_24  and  O_25
REMARK                            x       y       z     vdW  Elec       q    Type
REMARK                         _______ _______ _______ _____ _____    ______ ____
ROOT
ATOM      1  C   UNL     1       0.626  -0.619   1.042  0.00  0.00    +0.141 A 
ATOM      2  C   UNL     1       1.200   0.140   2.048  0.00  0.00    +0.047 A 
ATOM      3  C   UNL     1       1.838  -0.481   3.106  0.00  0.00    +0.004 A 
ATOM      4  C   UNL     1       1.910  -1.861   3.158  0.00  0.00    +0.006 A 
ATOM      5  C   UNL     1       1.345  -2.627   2.159  0.00  0.00    -0.016 A 
ATOM      6  C   UNL     1       0.681  -2.010   1.095  0.00  0.00    +0.074 A 
ATOM      7  N   UNL     1       0.054  -2.761   0.088  0.00  0.00    -0.334 N 
ATOM      8  C   UNL     1       0.098  -4.239   0.096  0.00  0.00    +0.109 C 
ATOM      9  C   UNL     1       0.071  -4.642   1.560  0.00  0.00    +0.029 C 
ATOM     10  C   UNL     1       1.414  -4.104   2.157  0.00  0.00    +0.049 C 
ATOM     11  C   UNL     1       1.560  -4.886   3.411  0.00  0.00    -0.023 C 
ATOM     12  C   UNL     1       0.951  -6.055   3.255  0.00  0.00    -0.030 C 
ATOM     13  C   UNL     1       0.264  -6.131   1.879  0.00  0.00    +0.033 C 
ATOM     14  H   UNL     1      -0.416  -2.302  -0.625  0.00  0.00    +0.147 HD
ENDROOT
BRANCH   8  15
ATOM     15  C   UNL     1       1.365  -4.726  -0.557  0.00  0.00    +0.017 A 
ATOM     16  C   UNL     1       2.485  -3.917  -0.584  0.00  0.00    +0.041 A 
ATOM     17  C   UNL     1       3.648  -4.363  -1.184  0.00  0.00    +0.127 A 
ATOM     18  C   UNL     1       3.694  -5.620  -1.758  0.00  0.00    +0.036 A 
ATOM     19  C   UNL     1       2.577  -6.433  -1.735  0.00  0.00    +0.048 A 
ATOM     20  C   UNL     1       1.411  -5.990  -1.128  0.00  0.00    +0.122 A 
BRANCH  17  21
ATOM     21  N   UNL     1       4.845  -3.494  -1.211  0.00  0.00    +0.056 N 
ATOM     22  O   UNL     1       4.806  -2.395  -0.710  0.00  0.00    -0.126 OA
ATOM     23  O   UNL     1       5.863  -3.883  -1.736  0.00  0.00    -0.126 OA
ENDBRANCH  17  21
BRANCH  20  24
ATOM     24  O   UNL     1       0.312  -6.790  -1.099  0.00  0.00    -0.506 OA
ATOM     25  H   UNL     1      -0.273  -6.683  -1.861  0.00  0.00    +0.292 HD
ENDBRANCH  20  24
ENDBRANCH   8  15
BRANCH   1  27
ATOM     26  C   UNL     1      -0.017   1.425   0.010  0.00  0.00    +0.277 C 
ATOM     27  O   UNL     1       0.002  -0.004   0.002  0.00  0.00    -0.493 OA
ENDBRANCH   1  27
TORSDOF 4
