REMARK  Name = ZINC13728513
REMARK  7 active torsions:
REMARK  status: ('A' for Active; 'I' for Inactive)
REMARK    1  A    between atoms: C_3  and  C_17
REMARK    2  A    between atoms: C_5  and  O_7
REMARK    3  A    between atoms: O_7  and  C_8
REMARK    4  A    between atoms: C_8  and  C_9
REMARK    5  A    between atoms: C_17  and  N_18
REMARK    6  A    between atoms: N_18  and  C_19
REMARK    7  A    between atoms: C_28  and  O_31
REMARK                            x       y       z     vdW  Elec       q    Type
REMARK                         _______ _______ _______ _____ _____    ______ ____
ROOT
ATOM      1  C   UNL     1       2.500  -6.065   1.700  0.00  0.00    +0.004 A 
ATOM      2  C   UNL     1       2.497  -4.683   1.740  0.00  0.00    +0.002 A 
ATOM      3  C   UNL     1       1.466  -4.010   2.369  0.00  0.00    -0.061 A 
ATOM      4  C   UNL     1       0.438  -4.717   2.962  0.00  0.00    +0.047 A 
ATOM      5  C   UNL     1       0.436  -6.103   2.918  0.00  0.00    +0.121 A 
ATOM      6  C   UNL     1       1.472  -6.777   2.286  0.00  0.00    +0.045 A 
ENDROOT
BRANCH   5   7
ATOM      7  O   UNL     1      -0.576  -6.801   3.497  0.00  0.00    -0.487 OA
BRANCH   7   8
ATOM      8  C   UNL     1      -0.510  -8.227   3.417  0.00  0.00    +0.266 C 
BRANCH   8   9
ATOM      9  C   UNL     1      -1.708  -8.825   4.108  0.00  0.00    +0.008 A 
ATOM     10  C   UNL     1      -2.653  -8.000   4.690  0.00  0.00    +0.010 A 
ATOM     11  C   UNL     1      -3.752  -8.548   5.324  0.00  0.00    +0.020 A 
ATOM     12  C   UNL     1      -3.908  -9.922   5.376  0.00  0.00    +0.042 A 
ATOM     13  C   UNL     1      -2.963 -10.747   4.794  0.00  0.00    +0.040 A 
ATOM     14  C   UNL     1      -1.865 -10.198   4.155  0.00  0.00    +0.049 A 
ATOM     15 CL   UNL     1      -0.682 -11.233   3.418  0.00  0.00    -0.083 Cl
ATOM     16 CL   UNL     1      -5.289 -10.610   6.172  0.00  0.00    -0.083 Cl
ENDBRANCH   8   9
ENDBRANCH   7   8
ENDBRANCH   5   7
BRANCH   3  17
ATOM     17  C   UNL     1       1.466  -2.503   2.412  0.00  0.00    -0.046 C 
BRANCH  17  18
ATOM     18  N   UNL     1       0.762  -1.980   1.234  0.00  0.00    +0.386 N 
ATOM     19  H   UNL     1       1.272  -2.321   0.320  0.00  0.00    -0.085 HD
ATOM     20  H   UNL     1      -0.275  -2.346   1.233  0.00  0.00    -0.085 HD
BRANCH  18  21
ATOM     21  C   UNL     1       0.742  -0.511   1.242  0.00  0.00    -0.065 C 
ATOM     22  C   UNL     1       0.026  -0.018   2.500  0.00  0.00    -0.009 C 
ATOM     23  C   UNL     1       0.005   1.512   2.509  0.00  0.00    -0.009 C 
ATOM     24  C   UNL     1       1.441   2.042   2.498  0.00  0.00    +0.007 C 
ATOM     25  C   UNL     1       2.157   1.548   1.239  0.00  0.00    -0.009 C 
ATOM     26  C   UNL     1       2.178   0.019   1.231  0.00  0.00    -0.009 C 
ATOM     27  C   UNL     1       1.417   2.055  -0.000  0.00  0.00    +0.038 C 
ATOM     28  C   UNL     1      -0.019   1.526   0.010  0.00  0.00    +0.065 C 
ATOM     29  C   UNL     1      -0.735   2.019   1.269  0.00  0.00    +0.038 C 
ATOM     30  C   UNL     1       0.002  -0.004   0.002  0.00  0.00    +0.022 C 
BRANCH  28  31
ATOM     31  O   UNL     1      -0.710   1.999  -1.147  0.00  0.00    -0.389 OA
ATOM     32  H   UNL     1      -1.761   1.720  -1.313  0.00  0.00    +0.210 HD
ENDBRANCH  28  31
ENDBRANCH  18  21
ENDBRANCH  17  18
ENDBRANCH   3  17
TORSDOF 7
