REMARK  Name = ZINC05069673
REMARK  6 active torsions:
REMARK  status: ('A' for Active; 'I' for Inactive)
REMARK    1  A    between atoms: C_1  and  O_2
REMARK    2  A    between atoms: O_2  and  C_3
REMARK    3  A    between atoms: C_6  and  C_10
REMARK    4  A    between atoms: C_8  and  O_9
REMARK    5  A    between atoms: C_11  and  C_12
REMARK    6  A    between atoms: C_11  and  C_14
REMARK                            x       y       z     vdW  Elec       q    Type
REMARK                         _______ _______ _______ _____ _____    ______ ____
ROOT
ATOM      1  C   UNL     1       0.683   4.145   0.006  0.00  0.00    +0.030 C 
ATOM      2  C   UNL     1       1.627   3.161   0.022  0.00  0.00    +0.096 C 
ENDROOT
BRANCH   2   3
ATOM      3  C   UNL     1       1.240   1.764  -0.251  0.00  0.00    +0.175 A 
ATOM      4  N   UNL     1       0.029   1.322  -0.523  0.00  0.00    -0.128 NA
ATOM      5  N   UNL     1       0.062   0.049  -0.712  0.00  0.00    -0.134 NA
ATOM      6  C   UNL     1       1.282  -0.390  -0.577  0.00  0.00    +0.134 A 
ATOM      7  N   UNL     1       2.068   0.678  -0.270  0.00  0.00    -0.310 N 
ATOM      8  C   UNL     1       3.507   0.653  -0.006  0.00  0.00    +0.125 C 
ATOM      9  C   UNL     1       4.141  -0.515  -0.765  0.00  0.00    +0.022 C 
ATOM     10  C   UNL     1       4.115  -1.771   0.105  0.00  0.00    +0.002 C 
ATOM     11  C   UNL     1       2.679  -2.163   0.437  0.00  0.00    +0.008 C 
ATOM     12  C   UNL     1       1.763  -1.809  -0.738  0.00  0.00    +0.076 C 
ENDBRANCH   2   3
BRANCH   1  16
ATOM     13  C   UNL     1       1.847   8.212   0.323  0.00  0.00    +0.161 A 
ATOM     14  C   UNL     1       0.673   7.778   0.924  0.00  0.00    +0.050 A 
ATOM     15  C   UNL     1       0.287   6.460   0.819  0.00  0.00    +0.012 A 
ATOM     16  C   UNL     1       1.087   5.551   0.114  0.00  0.00    -0.020 A 
ATOM     17  C   UNL     1       2.271   5.990  -0.491  0.00  0.00    +0.057 A 
ATOM     18  C   UNL     1       2.646   7.315  -0.385  0.00  0.00    +0.159 A 
BRANCH  13  20
ATOM     19  C   UNL     1       1.355  10.379   1.166  0.00  0.00    +0.277 C 
ATOM     20  O   UNL     1       2.219   9.515   0.426  0.00  0.00    -0.491 OA
ENDBRANCH  13  20
BRANCH  18  21
ATOM     21  O   UNL     1       3.795   7.745  -0.972  0.00  0.00    -0.503 OA
ATOM     22  H   UNL     1       3.681   8.055  -1.880  0.00  0.00    +0.292 HD
ENDBRANCH  18  21
ENDBRANCH   1  16
BRANCH   2  23
ATOM     23  C   UNL     1       2.993   3.484   0.303  0.00  0.00    +0.103 C 
ATOM     24  N   UNL     1       4.077   3.740   0.526  0.00  0.00    -0.191 NA
ENDBRANCH   2  23
TORSDOF 5
