REMARK  Name = ZINC40838756
REMARK  6 active torsions:
REMARK  status: ('A' for Active; 'I' for Inactive)
REMARK    1  A    between atoms: C_1  and  C_2
REMARK    2  A    between atoms: C_4  and  N_26
REMARK    3  A    between atoms: C_7  and  N_8
REMARK    4  A    between atoms: C_9  and  C_11
REMARK    5  A    between atoms: C_11  and  C_13
REMARK    6  A    between atoms: C_11  and  C_14
REMARK                            x       y       z     vdW  Elec       q    Type
REMARK                         _______ _______ _______ _____ _____    ______ ____
ROOT
ATOM      1  N   UNL     1       0.025  -0.015   2.417  0.00  0.00    -0.285 N 
ATOM      2  C   UNL     1      -0.057  -0.694   3.578  0.00  0.00    +0.222 C 
ATOM      3  O   UNL     1      -0.040  -1.907   3.573  0.00  0.00    -0.275 OA
ATOM      4  H   UNL     1       0.077   0.954   2.425  0.00  0.00    +0.155 HD
ENDROOT
BRANCH   1  11
ATOM      5  C   UNL     1      -1.265   1.183   0.181  0.00  0.00    +0.046 C 
ATOM      6  C   UNL     1      -0.584  -0.158   0.084  0.00  0.00    -0.027 A 
ATOM      7  C   UNL     1      -0.569  -0.841  -1.117  0.00  0.00    +0.038 A 
ATOM      8  C   UNL     1       0.055  -2.071  -1.206  0.00  0.00    +0.127 A 
ATOM      9  C   UNL     1       0.667  -2.622  -0.095  0.00  0.00    +0.034 A 
ATOM     10  C   UNL     1       0.655  -1.945   1.109  0.00  0.00    +0.026 A 
ATOM     11  C   UNL     1       0.034  -0.706   1.201  0.00  0.00    +0.036 A 
BRANCH   8  12
ATOM     12  N   UNL     1       0.069  -2.800  -2.494  0.00  0.00    +0.056 N 
ATOM     13  O   UNL     1      -0.465  -2.320  -3.466  0.00  0.00    -0.126 OA
ATOM     14  O   UNL     1       0.615  -3.876  -2.574  0.00  0.00    -0.126 OA
ENDBRANCH   8  12
ENDBRANCH   1  11
BRANCH   2  15
ATOM     15  C   UNL     1      -0.169   0.052   4.882  0.00  0.00    +0.094 C 
ATOM     16  C   UNL     1      -1.433   0.915   4.869  0.00  0.00    +0.019 C 
BRANCH  15  17
ATOM     17  C   UNL     1      -0.245  -0.948   6.037  0.00  0.00    +0.149 C 
ATOM     18  C   UNL     1      -0.473  -0.210   7.329  0.00  0.00    +0.231 C 
ATOM     19  O   UNL     1      -1.613  -0.084   7.723  0.00  0.00    -0.274 OA
ATOM     20  N   UNL     1       0.507   0.311   8.062  0.00  0.00    -0.284 N 
ATOM     21  C   UNL     1       1.867   0.274   7.765  0.00  0.00    +0.047 A 
ATOM     22  C   UNL     1       2.719   1.209   8.342  0.00  0.00    +0.024 A 
ATOM     23  C   UNL     1       4.071   1.184   8.062  0.00  0.00    +0.002 A 
ATOM     24  C   UNL     1       4.593   0.230   7.208  0.00  0.00    +0.001 A 
ATOM     25  C   UNL     1       3.757  -0.706   6.626  0.00  0.00    +0.016 A 
ATOM     26  C   UNL     1       2.400  -0.683   6.901  0.00  0.00    +0.030 A 
ATOM     27  S   UNL     1       1.319  -1.867   6.153  0.00  0.00    -0.110 S 
ATOM     28  H   UNL     1       0.250   0.760   8.882  0.00  0.00    +0.155 HD
ENDBRANCH  15  17
ENDBRANCH   2  15
TORSDOF 4
