REMARK  Name = ZINC13467262
REMARK  10 active torsions:
REMARK  status: ('A' for Active; 'I' for Inactive)
REMARK    1  A    between atoms: C_1  and  C_2
REMARK    2  A    between atoms: C_2  and  C_3
REMARK    3  A    between atoms: C_2  and  O_4
REMARK    4  A    between atoms: O_4  and  C_5
REMARK    5  A    between atoms: C_5  and  C_7
REMARK    6  A    between atoms: N_13  and  O_14
REMARK    7  A    between atoms: O_14  and  C_15
REMARK    8  A    between atoms: C_15  and  C_16
REMARK    9  A    between atoms: C_20  and  C_39
REMARK   10  A    between atoms: C_30  and  C_33
REMARK                            x       y       z     vdW  Elec       q    Type
REMARK                         _______ _______ _______ _____ _____    ______ ____
ROOT
ATOM      1  C   UNL     1       1.824   4.129  -1.240  0.00  0.00    +0.105 C 
ATOM      2  C   UNL     1       0.622   3.522  -0.515  0.00  0.00    +0.046 C 
ATOM      3  C   UNL     1       0.869   2.022  -0.497  0.00  0.00    -0.061 C 
ATOM      4  C   UNL     1      -0.082   1.240  -0.990  0.00  0.00    +0.026 C 
ATOM      5  C   UNL     1       0.093  -0.220  -1.055  0.00  0.00    +0.080 C 
ATOM      6  N   UNL     1      -0.715  -0.964  -1.750  0.00  0.00    -0.089 NA
ATOM      7  C   UNL     1       1.246  -0.823  -0.282  0.00  0.00    +0.059 C 
ATOM      8  C   UNL     1       2.458   0.089  -0.437  0.00  0.00    +0.017 C 
ATOM      9  C   UNL     1       2.169   1.513   0.048  0.00  0.00    -0.007 C 
ATOM     10  C   UNL     1       3.357   2.386  -0.326  0.00  0.00    +0.003 C 
ATOM     11  C   UNL     1       3.081   3.888  -0.412  0.00  0.00    +0.011 C 
ATOM     12  C   UNL     1       3.044   4.477   0.969  0.00  0.00    +0.003 C 
ATOM     13  C   UNL     1       2.858   5.997   1.092  0.00  0.00    +0.008 C 
ATOM     14  C   UNL     1       3.409   6.320   2.510  0.00  0.00    +0.049 C 
ATOM     15  C   UNL     1       4.262   5.101   2.926  0.00  0.00    +0.120 C 
ATOM     16  C   UNL     1       4.426   4.286   1.645  0.00  0.00    +0.011 C 
ATOM     17  C   UNL     1       4.733   2.823   1.812  0.00  0.00    +0.011 C 
ATOM     18  C   UNL     1       4.590   2.060   0.500  0.00  0.00    +0.005 C 
ATOM     19  C   UNL     1       5.538   4.947   0.819  0.00  0.00    +0.015 C 
ATOM     20  C   UNL     1       3.541   4.311   4.023  0.00  0.00    +0.060 C 
ATOM     21  C   UNL     1       4.690   3.965   4.997  0.00  0.00    +0.124 C 
ATOM     22  C   UNL     1       5.798   4.937   4.643  0.00  0.00    +0.308 C 
ATOM     23  O   UNL     1       6.781   5.154   5.324  0.00  0.00    -0.251 OA
ATOM     24  O   UNL     1       5.531   5.524   3.466  0.00  0.00    -0.457 OA
ATOM     25  C   UNL     1       2.010   1.422   1.565  0.00  0.00    +0.016 C 
ENDROOT
BRANCH   1  26
ATOM     26  C   UNL     1       1.599   5.573  -1.554  0.00  0.00    +0.311 C 
ATOM     27  O   UNL     1       0.810   6.217  -0.904  0.00  0.00    -0.251 OA
BRANCH  26  28
ATOM     28  O   UNL     1       2.273   6.154  -2.559  0.00  0.00    -0.462 OA
BRANCH  28  30
ATOM     29  C   UNL     1       3.258   8.226  -3.377  0.00  0.00    +0.052 C 
ATOM     30  C   UNL     1       2.004   7.559  -2.807  0.00  0.00    +0.170 C 
ATOM     31  C   UNL     1       0.857   7.689  -3.811  0.00  0.00    +0.052 C 
ENDBRANCH  28  30
ENDBRANCH  26  28
ENDBRANCH   1  26
BRANCH   6  32
ATOM     32  O   UNL     1      -0.524  -2.366  -1.795  0.00  0.00    -0.382 OA
BRANCH  32  33
ATOM     33  C   UNL     1      -1.485  -3.058  -2.595  0.00  0.00    +0.387 C 
BRANCH  33  34
ATOM     34  C   UNL     1      -1.187  -4.535  -2.572  0.00  0.00    +0.395 C 
ATOM     35  O   UNL     1      -0.249  -4.952  -1.935  0.00  0.00    -0.242 OA
ATOM     36  O   UNL     1      -1.965  -5.387  -3.258  0.00  0.00    -0.242 OA
ENDBRANCH  33  34
ENDBRANCH  32  33
ENDBRANCH   6  32
TORSDOF 6
