REMARK  Name = ZINC25778070
REMARK  11 active torsions:
REMARK  status: ('A' for Active; 'I' for Inactive)
REMARK    1  A    between atoms: C_1  and  C_2
REMARK    2  A    between atoms: C_2  and  C_3
REMARK    3  A    between atoms: C_2  and  C_4
REMARK    4  A    between atoms: C_4  and  N_5
REMARK    5  A    between atoms: C_6  and  N_36
REMARK    6  A    between atoms: C_7  and  C_14
REMARK    7  A    between atoms: C_14  and  C_16
REMARK    8  A    between atoms: C_14  and  N_24
REMARK    9  A    between atoms: C_19  and  O_22
REMARK   10  A    between atoms: O_22  and  C_23
REMARK   11  A    between atoms: N_27  and  C_30
REMARK                            x       y       z     vdW  Elec       q    Type
REMARK                         _______ _______ _______ _____ _____    ______ ____
ROOT
ATOM      1  C   UNL     1      -0.029  -0.023  -0.019  0.00  0.00    +0.126 C 
ENDROOT
BRANCH   1   4
ATOM      2  N   UNL     1      -2.835  -1.731   1.800  0.00  0.00    -0.281 N 
ATOM      3  C   UNL     1      -1.576  -1.285   1.478  0.00  0.00    +0.110 A 
ATOM      4  C   UNL     1      -1.399  -0.525   0.355  0.00  0.00    +0.076 A 
ATOM      5  C   UNL     1      -2.514  -0.215  -0.440  0.00  0.00    +0.261 A 
ATOM      6  O   UNL     1      -2.381   0.466  -1.443  0.00  0.00    -0.267 OA
ATOM      7  N   UNL     1      -3.730  -0.677  -0.091  0.00  0.00    -0.275 N 
ATOM      8  H   UNL     1      -4.606  -0.446  -0.715  0.00  0.00    +0.173 HD
ATOM      9  C   UNL     1      -3.886  -1.424   1.017  0.00  0.00    +0.331 A 
ATOM     10  O   UNL     1      -4.994  -1.827   1.317  0.00  0.00    -0.246 OA
BRANCH   3  11
ATOM     11  N   UNL     1      -0.506  -1.599   2.277  0.00  0.00    -0.344 N 
ATOM     12  H   UNL     1       0.500  -1.239   2.015  0.00  0.00    +0.144 HD
ATOM     13  H   UNL     1      -0.654  -2.210   3.179  0.00  0.00    +0.144 HD
ENDBRANCH   3  11
BRANCH   2  14
ATOM     14  C   UNL     1      -3.035  -2.546   3.001  0.00  0.00    +0.131 C 
BRANCH  14  16
ATOM     15  C   UNL     1      -3.661  -2.486   5.419  0.00  0.00    +0.009 C 
ATOM     16  C   UNL     1      -3.330  -1.633   4.193  0.00  0.00    +0.003 C 
ATOM     17  C   UNL     1      -2.104  -0.768   4.489  0.00  0.00    +0.009 C 
ENDBRANCH  14  16
ENDBRANCH   2  14
ENDBRANCH   1   4
BRANCH   1  18
ATOM     18  C   UNL     1       0.429  -0.707  -1.282  0.00  0.00    -0.025 A 
ATOM     19  C   UNL     1       0.075  -0.189  -2.514  0.00  0.00    +0.009 A 
ATOM     20  C   UNL     1       0.498  -0.811  -3.673  0.00  0.00    +0.046 A 
ATOM     21  C   UNL     1       1.269  -1.963  -3.599  0.00  0.00    +0.120 A 
ATOM     22  C   UNL     1       1.617  -2.483  -2.361  0.00  0.00    +0.046 A 
ATOM     23  C   UNL     1       1.197  -1.854  -1.206  0.00  0.00    +0.009 A 
BRANCH  21  24
ATOM     24  O   UNL     1       1.681  -2.580  -4.737  0.00  0.00    -0.495 OA
ATOM     25  C   UNL     1       1.284  -1.988  -5.976  0.00  0.00    +0.277 C 
ENDBRANCH  21  24
ENDBRANCH   1  18
BRANCH   1  26
ATOM     26  N   UNL     1      -0.083   1.428  -0.241  0.00  0.00    -0.288 NA
ATOM     27  C   UNL     1       1.248   1.962  -0.563  0.00  0.00    +0.104 C 
ATOM     28  C   UNL     1       1.136   3.458  -0.864  0.00  0.00    +0.120 C 
ATOM     29  N   UNL     1       0.563   4.148   0.301  0.00  0.00    -0.327 N 
ATOM     30  C   UNL     1      -0.768   3.614   0.623  0.00  0.00    +0.120 C 
ATOM     31  C   UNL     1      -0.655   2.118   0.924  0.00  0.00    +0.104 C 
BRANCH  29  32
ATOM     32  C   UNL     1       0.512   5.527   0.090  0.00  0.00    +0.030 A 
ATOM     33  C   UNL     1      -0.698   6.203   0.193  0.00  0.00    +0.023 A 
ATOM     34  C   UNL     1      -0.744   7.568  -0.011  0.00  0.00    +0.002 A 
ATOM     35  C   UNL     1       0.410   8.261  -0.328  0.00  0.00    +0.000 A 
ATOM     36  C   UNL     1       1.615   7.591  -0.435  0.00  0.00    +0.002 A 
ATOM     37  C   UNL     1       1.669   6.227  -0.228  0.00  0.00    +0.023 A 
ENDBRANCH  29  32
ENDBRANCH   1  26
TORSDOF 8
