REMARK  Name = ZINC25182821
REMARK  6 active torsions:
REMARK  status: ('A' for Active; 'I' for Inactive)
REMARK    1  A    between atoms: C_1  and  C_2
REMARK    2  A    between atoms: C_2  and  C_25
REMARK    3  A    between atoms: N_5  and  C_9
REMARK    4  A    between atoms: C_9  and  C_10
REMARK    5  A    between atoms: C_13  and  C_15
REMARK    6  A    between atoms: C_18  and  C_21
REMARK                            x       y       z     vdW  Elec       q    Type
REMARK                         _______ _______ _______ _____ _____    ______ ____
ROOT
ATOM      1  C   UNL     1       1.798  -1.190  -1.278  0.00  0.00    +0.047 C 
ATOM      2  C   UNL     1       1.467  -0.394  -0.014  0.00  0.00    +0.135 C 
ATOM      3  C   UNL     1       0.002  -0.004   0.002  0.00  0.00    +0.251 C 
ATOM      4  O   UNL     1      -0.954  -0.749   0.006  0.00  0.00    -0.272 OA
ATOM      5  N   UNL     1      -0.016   1.343   0.009  0.00  0.00    -0.218 N 
ATOM      6  C   UNL     1       1.220   1.854   0.000  0.00  0.00    +0.310 C 
ATOM      7  O   UNL     1       1.460   3.045   0.005  0.00  0.00    -0.252 OA
ATOM      8  N   UNL     1       2.170   0.901  -0.014  0.00  0.00    -0.281 N 
ATOM      9  H   UNL     1       3.269   0.929  -0.024  0.00  0.00    +0.152 HD
ENDROOT
BRANCH   2  10
ATOM     10  C   UNL     1       1.818  -1.188   1.218  0.00  0.00    -0.012 A 
ATOM     11  C   UNL     1       0.860  -1.979   1.825  0.00  0.00    +0.010 A 
ATOM     12  C   UNL     1       1.178  -2.708   2.955  0.00  0.00    +0.050 A 
ATOM     13  C   UNL     1       2.458  -2.647   3.484  0.00  0.00    +0.162 A 
ATOM     14  C   UNL     1       3.422  -1.854   2.872  0.00  0.00    +0.162 A 
ATOM     15  C   UNL     1       3.098  -1.129   1.735  0.00  0.00    +0.055 A 
ATOM     16  O   UNL     1       4.686  -1.784   3.372  0.00  0.00    -0.485 OA
ATOM     17  C   UNL     1       4.870  -2.228   4.720  0.00  0.00    +0.270 C 
ATOM     18  C   UNL     1       4.142  -3.569   4.888  0.00  0.00    +0.270 C 
ATOM     19  O   UNL     1       2.754  -3.364   4.603  0.00  0.00    -0.485 OA
ENDBRANCH   2  10
BRANCH   5  20
ATOM     20  C   UNL     1      -1.239   2.150   0.020  0.00  0.00    +0.174 C 
BRANCH  20  21
ATOM     21  C   UNL     1      -1.652   2.419   1.444  0.00  0.00    +0.067 A 
ATOM     22  C   UNL     1      -1.269   3.570   2.058  0.00  0.00    +0.072 A 
ATOM     23  S   UNL     1      -2.021   3.352   3.666  0.00  0.00    -0.075 S 
ATOM     24  C   UNL     1      -2.752   1.751   3.349  0.00  0.00    +0.109 A 
ATOM     25  N   UNL     1      -2.376   1.540   2.096  0.00  0.00    -0.242 NA
BRANCH  24  26
ATOM     26  C   UNL     1      -3.559   0.894   4.244  0.00  0.00    +0.007 A 
ATOM     27  C   UNL     1      -4.043  -0.333   3.790  0.00  0.00    +0.011 A 
ATOM     28  C   UNL     1      -4.791  -1.131   4.631  0.00  0.00    +0.013 A 
ATOM     29  C   UNL     1      -5.071  -0.711   5.920  0.00  0.00    +0.055 A 
ATOM     30  C   UNL     1      -4.598   0.507   6.375  0.00  0.00    +0.013 A 
ATOM     31  C   UNL     1      -3.844   1.311   5.545  0.00  0.00    +0.011 A 
BRANCH  29  32
ATOM     32  C   UNL     1      -5.893  -1.584   6.832  0.00  0.00    +0.417 C 
ATOM     33  F   UNL     1      -7.248  -1.267   6.684  0.00  0.00    -0.166 F 
ATOM     34  F   UNL     1      -5.690  -2.928   6.499  0.00  0.00    -0.166 F 
ATOM     35  F   UNL     1      -5.505  -1.369   8.158  0.00  0.00    -0.166 F 
ENDBRANCH  29  32
ENDBRANCH  24  26
ENDBRANCH  20  21
ENDBRANCH   5  20
TORSDOF 5
