REMARK  Name = ZINC59461825
REMARK  7 active torsions:
REMARK  status: ('A' for Active; 'I' for Inactive)
REMARK    1  A    between atoms: C_1  and  C_2
REMARK    2  A    between atoms: C_3  and  C_20
REMARK    3  A    between atoms: C_9  and  C_12
REMARK    4  A    between atoms: C_20  and  C_22
REMARK    5  A    between atoms: C_20  and  C_28
REMARK    6  A    between atoms: C_28  and  C_30
REMARK    7  A    between atoms: C_28  and  C_32
REMARK                            x       y       z     vdW  Elec       q    Type
REMARK                         _______ _______ _______ _____ _____    ______ ____
ROOT
ATOM      1  C   UNL     1       0.128   1.113   0.014  0.00  0.00    +0.065 C 
ATOM      2  C   UNL     1      -0.649   1.573  -1.192  0.00  0.00    +0.039 A 
ATOM      3  C   UNL     1      -0.915   2.855  -1.517  0.00  0.00    +0.048 A 
ATOM      4  C   UNL     1      -1.665   2.858  -2.716  0.00  0.00    +0.277 A 
ATOM      5  N   UNL     1      -1.837   1.575  -3.093  0.00  0.00    -0.194 N 
ATOM      6  N   UNL     1      -1.198   0.764  -2.146  0.00  0.00    -0.292 N 
ATOM      7  C   UNL     1      -2.519   1.136  -4.220  0.00  0.00    +0.196 A 
ATOM      8  N   UNL     1      -2.729  -0.097  -4.643  0.00  0.00    -0.221 NA
ATOM      9  C   UNL     1      -3.411  -0.336  -5.753  0.00  0.00    +0.080 A 
ATOM     10  C   UNL     1      -3.907   0.713  -6.475  0.00  0.00    +0.077 A 
ATOM     11  S   UNL     1      -3.355   2.091  -5.479  0.00  0.00    -0.056 S 
ATOM     12  O   UNL     1      -2.080   3.842  -3.302  0.00  0.00    -0.265 OA
ATOM     13  H   UNL     1      -1.155  -0.205  -2.163  0.00  0.00    +0.187 HD
ENDROOT
BRANCH   9  14
ATOM     14  C   UNL     1      -3.633  -1.730  -6.208  0.00  0.00    +0.001 A 
ATOM     15  C   UNL     1      -4.346  -1.978  -7.381  0.00  0.00    +0.011 A 
ATOM     16  C   UNL     1      -4.549  -3.276  -7.800  0.00  0.00    +0.016 A 
ATOM     17  C   UNL     1      -4.048  -4.332  -7.059  0.00  0.00    +0.018 A 
ATOM     18  C   UNL     1      -3.340  -4.092  -5.894  0.00  0.00    +0.016 A 
ATOM     19  C   UNL     1      -3.126  -2.797  -5.469  0.00  0.00    +0.011 A 
ATOM     20 BR   UNL     1      -4.332  -6.109  -7.639  0.00  0.00    -0.050 Br
ENDBRANCH   9  14
BRANCH   3  21
ATOM     21  C   UNL     1      -0.489   4.072  -0.737  0.00  0.00    +0.082 C 
BRANCH  21  22
ATOM     22  C   UNL     1       0.527   4.849  -1.535  0.00  0.00    -0.038 A 
ATOM     23  C   UNL     1       0.152   5.473  -2.710  0.00  0.00    +0.004 A 
ATOM     24  C   UNL     1       1.083   6.186  -3.441  0.00  0.00    +0.000 A 
ATOM     25  C   UNL     1       2.389   6.276  -2.997  0.00  0.00    +0.000 A 
ATOM     26  C   UNL     1       2.764   5.652  -1.822  0.00  0.00    +0.000 A 
ATOM     27  C   UNL     1       1.832   4.943  -1.088  0.00  0.00    +0.004 A 
ENDBRANCH  21  22
BRANCH  21  28
ATOM     28  C   UNL     1      -1.708   4.956  -0.464  0.00  0.00    +0.189 C 
BRANCH  28  29
ATOM     29  C   UNL     1      -1.281   6.173   0.316  0.00  0.00    +0.228 C 
ATOM     30  O   UNL     1      -1.755   6.388   1.411  0.00  0.00    -0.275 OA
ATOM     31  N   UNL     1      -0.373   7.022  -0.204  0.00  0.00    -0.328 N 
ATOM     32  H   UNL     1       0.006   6.850  -1.080  0.00  0.00    +0.145 HD
ATOM     33  H   UNL     1      -0.098   7.806   0.298  0.00  0.00    +0.145 HD
ENDBRANCH  28  29
BRANCH  28  34
ATOM     34  C   UNL     1      -2.699   4.197   0.315  0.00  0.00    +0.076 C 
ATOM     35  N   UNL     1      -3.465   3.611   0.916  0.00  0.00    -0.196 NA
ENDBRANCH  28  34
ENDBRANCH  21  28
ENDBRANCH   3  21
TORSDOF 6
