REMARK  Name = ZINC40517805
REMARK  8 active torsions:
REMARK  status: ('A' for Active; 'I' for Inactive)
REMARK    1  A    between atoms: C_1  and  C_2
REMARK    2  A    between atoms: C_3  and  C_8
REMARK    3  A    between atoms: C_5  and  C_7
REMARK    4  A    between atoms: C_8  and  C_10
REMARK    5  A    between atoms: C_8  and  N_11
REMARK    6  A    between atoms: N_11  and  C_12
REMARK    7  A    between atoms: C_12  and  C_13
REMARK    8  A    between atoms: C_18  and  O_19
REMARK                            x       y       z     vdW  Elec       q    Type
REMARK                         _______ _______ _______ _____ _____    ______ ____
ROOT
ATOM      1  N   UNL     1       0.978  -0.966  -3.371  0.00  0.00    +0.387 N 
ATOM      2  H   UNL     1       1.883  -0.898  -2.931  0.00  0.00    -0.085 HD
ATOM      3  H   UNL     1       0.700  -1.935  -3.421  0.00  0.00    -0.085 HD
ENDROOT
BRANCH   1   4
ATOM      4  C   UNL     1      -0.008  -0.215  -2.583  0.00  0.00    -0.035 C 
ATOM      5  C   UNL     1      -1.402  -0.420  -3.180  0.00  0.00    -0.008 C 
BRANCH   4   8
ATOM      6  C   UNL     1      -0.018   1.503   0.010  0.00  0.00    +0.066 C 
ATOM      7  C   UNL     1       0.002  -0.004   0.002  0.00  0.00    +0.047 A 
ATOM      8  C   UNL     1       0.006  -0.708  -1.159  0.00  0.00    -0.002 A 
ATOM      9  S   UNL     1       0.032  -2.379  -0.531  0.00  0.00    -0.079 S 
ATOM     10  C   UNL     1       0.036  -2.009   1.111  0.00  0.00    +0.076 A 
ATOM     11  N   UNL     1       0.023  -0.699   1.122  0.00  0.00    -0.249 NA
ATOM     12  C   UNL     1       0.055  -2.955   2.284  0.00  0.00    +0.073 C 
ENDBRANCH   4   8
ENDBRANCH   1   4
BRANCH   1  13
ATOM     13  C   UNL     1       1.049  -0.406  -4.728  0.00  0.00    -0.042 C 
BRANCH  13  14
ATOM     14  C   UNL     1       2.061  -1.177  -5.536  0.00  0.00    -0.020 A 
ATOM     15  C   UNL     1       3.334  -0.671  -5.716  0.00  0.00    +0.025 A 
ATOM     16  C   UNL     1       4.263  -1.377  -6.458  0.00  0.00    +0.043 A 
ATOM     17  C   UNL     1       3.920  -2.593  -7.023  0.00  0.00    +0.043 A 
ATOM     18  C   UNL     1       2.648  -3.104  -6.846  0.00  0.00    +0.084 A 
ATOM     19  C   UNL     1       1.716  -2.398  -6.096  0.00  0.00    +0.136 A 
ATOM     20 CL   UNL     1       2.217  -4.629  -7.555  0.00  0.00    -0.080 Cl
ATOM     21 CL   UNL     1       5.861  -0.738  -6.682  0.00  0.00    -0.083 Cl
BRANCH  19  22
ATOM     22  O   UNL     1       0.466  -2.901  -5.916  0.00  0.00    -0.505 OA
ATOM     23  H   UNL     1      -0.167  -2.634  -6.596  0.00  0.00    +0.292 HD
ENDBRANCH  19  22
ENDBRANCH  13  14
ENDBRANCH   1  13
TORSDOF 5
