REMARK  Name = ZINC32525598
REMARK  8 active torsions:
REMARK  status: ('A' for Active; 'I' for Inactive)
REMARK    1  A    between atoms: C_1  and  C_2
REMARK    2  A    between atoms: C_2  and  O_3
REMARK    3  A    between atoms: O_3  and  C_4
REMARK    4  A    between atoms: C_7  and  N_22
REMARK    5  A    between atoms: C_9  and  S_10
REMARK    6  A    between atoms: S_10  and  N_13
REMARK    7  A    between atoms: N_13  and  C_14
REMARK    8  A    between atoms: C_25  and  C_31
REMARK                            x       y       z     vdW  Elec       q    Type
REMARK                         _______ _______ _______ _____ _____    ______ ____
ROOT
ATOM      1  C   UNL     1       1.321  -4.276  -0.389  0.00  0.00    +0.147 A 
ATOM      2  C   UNL     1       2.168  -3.266   0.043  0.00  0.00    +0.049 A 
ATOM      3  C   UNL     1       1.656  -2.023   0.359  0.00  0.00    +0.029 A 
ATOM      4  C   UNL     1       0.291  -1.788   0.254  0.00  0.00    +0.061 A 
ATOM      5  C   UNL     1      -0.556  -2.799  -0.179  0.00  0.00    +0.057 A 
ATOM      6  C   UNL     1      -0.042  -4.040  -0.500  0.00  0.00    +0.154 A 
ENDROOT
BRANCH   4   7
ATOM      7  N   UNL     1      -0.230  -0.528   0.579  0.00  0.00    -0.143 N 
ATOM      8  C   UNL     1      -1.486  -0.272   0.974  0.00  0.00    +0.243 C 
ATOM      9  O   UNL     1      -2.289  -1.171   1.110  0.00  0.00    -0.273 OA
ATOM     10  C   UNL     1      -1.874   1.151   1.243  0.00  0.00    +0.097 C 
ATOM     11  C   UNL     1      -0.584   1.984   1.461  0.00  0.00    +0.201 C 
ATOM     12  S   UNL     1       0.606   0.922   0.545  0.00  0.00    +0.053 S 
ATOM     13  O   UNL     1       1.785   0.705   1.308  0.00  0.00    -0.155 OA
ATOM     14  O   UNL     1       0.670   1.296  -0.825  0.00  0.00    -0.155 OA
ATOM     15  C   UNL     1      -2.749   1.217   2.496  0.00  0.00    +0.019 C 
ENDBRANCH   4   7
BRANCH   6  16
ATOM     16  S   UNL     1      -1.117  -5.324  -1.049  0.00  0.00    +0.095 S 
ATOM     17  O   UNL     1      -2.431  -4.783  -1.044  0.00  0.00    -0.148 OA
ATOM     18  O   UNL     1      -0.525  -5.877  -2.216  0.00  0.00    -0.148 OA
BRANCH  16  19
ATOM     19  N   UNL     1      -1.089  -6.512   0.105  0.00  0.00    -0.096 NA
BRANCH  19  20
ATOM     20  C   UNL     1      -1.493  -6.226   1.413  0.00  0.00    +0.093 A 
ATOM     21  C   UNL     1      -2.531  -5.332   1.641  0.00  0.00    +0.029 A 
ATOM     22  C   UNL     1      -2.931  -5.055   2.933  0.00  0.00    +0.022 A 
ATOM     23  C   UNL     1      -2.292  -5.659   4.002  0.00  0.00    +0.042 A 
ATOM     24  C   UNL     1      -1.254  -6.547   3.779  0.00  0.00    +0.042 A 
ATOM     25  C   UNL     1      -0.853  -6.832   2.487  0.00  0.00    +0.067 A 
ATOM     26 CL   UNL     1       0.449  -7.945   2.207  0.00  0.00    -0.081 Cl
ATOM     27 CL   UNL     1      -2.793  -5.303   5.625  0.00  0.00    -0.083 Cl
ENDBRANCH  19  20
ENDBRANCH  16  19
ENDBRANCH   6  16
BRANCH   1  28
ATOM     28  O   UNL     1       1.826  -5.498  -0.706  0.00  0.00    -0.490 OA
BRANCH  28  30
ATOM     29  C   UNL     1       3.583  -7.156  -0.793  0.00  0.00    +0.048 C 
ATOM     30  C   UNL     1       3.218  -5.707  -0.461  0.00  0.00    +0.226 C 
ENDBRANCH  28  30
ENDBRANCH   1  28
TORSDOF 6
