REMARK  Name = ZINC39328520
REMARK  4 active torsions:
REMARK  status: ('A' for Active; 'I' for Inactive)
REMARK    1  A    between atoms: C_1  and  C_2
REMARK    2  A    between atoms: C_2  and  C_3
REMARK    3  A    between atoms: C_8  and  N_9
REMARK    4  A    between atoms: C_18  and  C_32
REMARK                            x       y       z     vdW  Elec       q    Type
REMARK                         _______ _______ _______ _____ _____    ______ ____
ROOT
ATOM      1  N   UNL     1      -1.504  -0.314  -2.393  0.00  0.00    -0.210 N 
ATOM      2  C   UNL     1      -0.791  -1.196  -3.154  0.00  0.00    +0.231 C 
ATOM      3  O   UNL     1      -0.367  -2.279  -2.812  0.00  0.00    -0.274 OA
ATOM      4  C   UNL     1      -0.638  -0.539  -4.523  0.00  0.00    +0.101 C 
ATOM      5  C   UNL     1      -0.529   0.902  -3.955  0.00  0.00    +0.114 C 
ATOM      6  C   UNL     1      -1.572   0.950  -2.939  0.00  0.00    +0.232 C 
ATOM      7  O   UNL     1      -2.310   1.867  -2.646  0.00  0.00    -0.274 OA
ATOM      8  C   UNL     1       0.115   1.906  -4.861  0.00  0.00    +0.134 C 
ATOM      9  C   UNL     1       1.573   1.502  -4.490  0.00  0.00    -0.022 A 
ATOM     10  C   UNL     1       2.536   2.389  -4.129  0.00  0.00    +0.005 A 
ATOM     11  C   UNL     1       3.777   1.891  -3.743  0.00  0.00    +0.000 A 
ATOM     12  C   UNL     1       3.995   0.525  -3.727  0.00  0.00    +0.000 A 
ATOM     13  C   UNL     1       3.008  -0.362  -4.125  0.00  0.00    +0.004 A 
ATOM     14  C   UNL     1       1.795   0.133  -4.545  0.00  0.00    -0.035 A 
ATOM     15  C   UNL     1       0.747  -0.776  -5.196  0.00  0.00    +0.062 C 
ATOM     16  C   UNL     1       0.456   0.018  -6.489  0.00  0.00    -0.035 A 
ATOM     17  C   UNL     1       0.076   1.353  -6.299  0.00  0.00    -0.022 A 
ATOM     18  C   UNL     1      -0.290   2.131  -7.368  0.00  0.00    +0.005 A 
ATOM     19  C   UNL     1      -0.249   1.579  -8.641  0.00  0.00    +0.000 A 
ATOM     20  C   UNL     1       0.158   0.271  -8.830  0.00  0.00    +0.000 A 
ATOM     21  C   UNL     1       0.518  -0.531  -7.736  0.00  0.00    +0.004 A 
ENDROOT
BRANCH   1  27
ATOM     22  C   UNL     1      -1.412  -0.526   0.013  0.00  0.00    -0.026 A 
ATOM     23  C   UNL     1      -2.015  -0.864   1.209  0.00  0.00    +0.005 A 
ATOM     24  C   UNL     1      -3.312  -1.342   1.219  0.00  0.00    +0.000 A 
ATOM     25  C   UNL     1      -4.010  -1.483   0.034  0.00  0.00    +0.002 A 
ATOM     26  C   UNL     1      -3.412  -1.147  -1.165  0.00  0.00    +0.024 A 
ATOM     27  C   UNL     1      -2.111  -0.661  -1.179  0.00  0.00    +0.047 A 
BRANCH  22  29
ATOM     28  C   UNL     1      -0.019   1.526   0.010  0.00  0.00    +0.009 C 
ATOM     29  C   UNL     1       0.002  -0.004   0.002  0.00  0.00    +0.033 C 
ENDBRANCH  22  29
ENDBRANCH   1  27
BRANCH   8  30
ATOM     30  C   UNL     1      -0.303   3.343  -4.684  0.00  0.00    +0.371 C 
ATOM     31  O   UNL     1       0.483   4.241  -4.933  0.00  0.00    -0.245 OA
ATOM     32  O   UNL     1      -1.426   3.607  -4.291  0.00  0.00    -0.245 OA
ENDBRANCH   8  30
TORSDOF 3
