REMARK  Name = ZINC17271320
REMARK  9 active torsions:
REMARK  status: ('A' for Active; 'I' for Inactive)
REMARK    1  A    between atoms: C_1  and  C_2
REMARK    2  A    between atoms: C_2  and  C_4
REMARK    3  A    between atoms: C_2  and  S_17
REMARK    4  A    between atoms: N_6  and  C_7
REMARK    5  A    between atoms: C_10  and  S_13
REMARK    6  A    between atoms: S_13  and  N_16
REMARK    7  A    between atoms: S_17  and  C_18
REMARK    8  A    between atoms: C_21  and  C_26
REMARK    9  A    between atoms: N_22  and  C_23
REMARK                            x       y       z     vdW  Elec       q    Type
REMARK                         _______ _______ _______ _____ _____    ______ ____
ROOT
ATOM      1  C   UNL     1      -0.157  -0.939  -1.700  0.00  0.00    +0.029 C 
ATOM      2  C   UNL     1      -0.122  -0.326  -0.299  0.00  0.00    +0.137 C 
ENDROOT
BRANCH   2   3
ATOM      3  C   UNL     1      -0.206   1.175  -0.405  0.00  0.00    +0.230 C 
ATOM      4  O   UNL     1       0.808   1.840  -0.406  0.00  0.00    -0.274 OA
ATOM      5  N   UNL     1      -1.408   1.777  -0.504  0.00  0.00    -0.285 N 
ATOM      6  H   UNL     1      -2.214   1.242  -0.574  0.00  0.00    +0.155 HD
BRANCH   5   7
ATOM      7  C   UNL     1      -1.492   3.174  -0.505  0.00  0.00    +0.034 A 
ATOM      8  C   UNL     1      -2.572   3.806   0.097  0.00  0.00    +0.025 A 
ATOM      9  C   UNL     1      -2.649   5.185   0.100  0.00  0.00    +0.030 A 
ATOM     10  C   UNL     1      -1.659   5.936  -0.508  0.00  0.00    +0.105 A 
ATOM     11  C   UNL     1      -0.586   5.309  -1.114  0.00  0.00    +0.030 A 
ATOM     12  C   UNL     1      -0.500   3.930  -1.114  0.00  0.00    +0.025 A 
BRANCH  10  13
ATOM     13  S   UNL     1      -1.765   7.694  -0.509  0.00  0.00    +0.056 S 
ATOM     14  O   UNL     1      -2.583   8.053   0.596  0.00  0.00    -0.153 OA
ATOM     15  O   UNL     1      -0.439   8.181  -0.665  0.00  0.00    -0.153 OA
BRANCH  13  16
ATOM     16  N   UNL     1      -2.594   8.134  -1.874  0.00  0.00    -0.204 NA
ATOM     17  H   UNL     1      -2.914   7.454  -2.487  0.00  0.00    +0.144 HD
ATOM     18  H   UNL     1      -2.759   9.071  -2.060  0.00  0.00    +0.144 HD
ENDBRANCH  13  16
ENDBRANCH  10  13
ENDBRANCH   5   7
ENDBRANCH   2   3
BRANCH   2  19
ATOM     19  S   UNL     1       1.423  -0.788   0.523  0.00  0.00    -0.073 S 
BRANCH  19  20
ATOM     20  C   UNL     1       1.195  -2.530   0.647  0.00  0.00    +0.193 A 
ATOM     21  N   UNL     1       0.153  -3.212   0.227  0.00  0.00    -0.122 NA
ATOM     22  N   UNL     1       0.313  -4.462   0.475  0.00  0.00    -0.128 NA
ATOM     23  C   UNL     1       1.469  -4.658   1.070  0.00  0.00    +0.172 A 
ATOM     24  N   UNL     1       2.072  -3.426   1.194  0.00  0.00    -0.299 N 
BRANCH  23  25
ATOM     25  C   UNL     1       2.017  -5.949   1.514  0.00  0.00    +0.056 A 
ATOM     26  C   UNL     1       1.618  -7.219   1.181  0.00  0.00    +0.019 A 
ATOM     27  C   UNL     1       2.290  -8.288   1.728  0.00  0.00    +0.008 A 
ATOM     28  C   UNL     1       3.324  -8.056   2.578  0.00  0.00    +0.046 A 
ATOM     29  S   UNL     1       3.380  -6.272   2.622  0.00  0.00    -0.094 S 
ENDBRANCH  23  25
BRANCH  24  30
ATOM     30  C   UNL     1       3.379  -3.135   1.788  0.00  0.00    +0.091 C 
ATOM     31  C   UNL     1       3.672  -1.684   2.175  0.00  0.00    +0.027 C 
ATOM     32  C   UNL     1       4.364  -2.308   0.960  0.00  0.00    +0.027 C 
ENDBRANCH  24  30
ENDBRANCH  19  20
ENDBRANCH   2  19
TORSDOF 8
