REMARK  Name = ZINC40814749
REMARK  6 active torsions:
REMARK  status: ('A' for Active; 'I' for Inactive)
REMARK    1  A    between atoms: C_1  and  C_2
REMARK    2  A    between atoms: C_6  and  C_7
REMARK    3  A    between atoms: N_9  and  C_10
REMARK    4  A    between atoms: N_22  and  N_23
REMARK    5  A    between atoms: N_23  and  C_24
REMARK    6  A    between atoms: C_27  and  N_30
REMARK                            x       y       z     vdW  Elec       q    Type
REMARK                         _______ _______ _______ _____ _____    ______ ____
ROOT
ATOM      1  C   UNL     1      -0.005   1.502   0.010  0.00  0.00    +0.048 C 
ATOM      2  C   UNL     1       0.021  -0.004   0.002  0.00  0.00    +0.009 A 
ATOM      3  C   UNL     1       0.039  -0.839  -1.123  0.00  0.00    +0.042 A 
ATOM      4  C   UNL     1       0.060  -2.138  -0.673  0.00  0.00    +0.115 A 
ATOM      5  O   UNL     1       0.059  -2.112   0.658  0.00  0.00    -0.454 OA
ATOM      6  C   UNL     1       0.039  -0.831   1.091  0.00  0.00    +0.193 A 
ATOM      7  C   UNL     1       0.078  -3.326  -1.600  0.00  0.00    +0.075 C 
ATOM      8  C   UNL     1      -0.439  -2.905  -2.978  0.00  0.00    +0.014 C 
ATOM      9  C   UNL     1       0.330  -1.684  -3.493  0.00  0.00    +0.058 C 
ATOM     10  C   UNL     1       0.040  -0.512  -2.567  0.00  0.00    +0.070 C 
ATOM     11  N   UNL     1      -0.191   0.685  -3.010  0.00  0.00    -0.186 NA
ENDROOT
BRANCH   6  12
ATOM     12  C   UNL     1       0.035  -0.400   2.493  0.00  0.00    +0.284 C 
ATOM     13  O   UNL     1       0.015   0.786   2.765  0.00  0.00    -0.266 OA
ATOM     14  N   UNL     1       0.054  -1.317   3.480  0.00  0.00    -0.278 N 
ATOM     15  H   UNL     1      -0.011  -2.261   3.266  0.00  0.00    +0.155 HD
BRANCH  14  16
ATOM     16  C   UNL     1       0.167  -0.909   4.813  0.00  0.00    +0.054 A 
ATOM     17  C   UNL     1       0.759   0.310   5.120  0.00  0.00    +0.025 A 
ATOM     18  C   UNL     1       0.869   0.711   6.436  0.00  0.00    +0.003 A 
ATOM     19  C   UNL     1       0.391  -0.098   7.451  0.00  0.00    +0.021 A 
ATOM     20  C   UNL     1      -0.200  -1.312   7.150  0.00  0.00    +0.061 A 
ATOM     21  C   UNL     1      -0.318  -1.718   5.833  0.00  0.00    +0.080 A 
ATOM     22 CL   UNL     1      -1.066  -3.239   5.455  0.00  0.00    -0.080 Cl
ATOM     23 CL   UNL     1      -0.799  -2.325   8.427  0.00  0.00    -0.082 Cl
ENDBRANCH  14  16
ENDBRANCH   6  12
BRANCH  11  24
ATOM     24  N   UNL     1      -0.177   0.937  -4.388  0.00  0.00    -0.238 N 
ATOM     25  H   UNL     1       0.004   0.216  -5.011  0.00  0.00    +0.174 HD
BRANCH  24  26
ATOM     26  C   UNL     1      -0.425   2.224  -4.864  0.00  0.00    +0.048 A 
ATOM     27  C   UNL     1      -0.679   3.260  -3.973  0.00  0.00    +0.027 A 
ATOM     28  C   UNL     1      -0.923   4.534  -4.448  0.00  0.00    +0.034 A 
ATOM     29  C   UNL     1      -0.916   4.779  -5.809  0.00  0.00    +0.126 A 
ATOM     30  C   UNL     1      -0.663   3.751  -6.699  0.00  0.00    +0.034 A 
ATOM     31  C   UNL     1      -0.412   2.476  -6.231  0.00  0.00    +0.027 A 
BRANCH  29  32
ATOM     32  N   UNL     1      -1.179   6.151  -6.317  0.00  0.00    +0.056 N 
ATOM     33  O   UNL     1      -1.401   7.050  -5.540  0.00  0.00    -0.126 OA
ATOM     34  O   UNL     1      -1.173   6.367  -7.506  0.00  0.00    -0.126 OA
ENDBRANCH  29  32
ENDBRANCH  24  26
ENDBRANCH  11  24
TORSDOF 5
