REMARK  Name = ZINC60603402
REMARK  4 active torsions:
REMARK  status: ('A' for Active; 'I' for Inactive)
REMARK    1  A    between atoms: C_1  and  C_2
REMARK    2  A    between atoms: C_5  and  C_8
REMARK    3  A    between atoms: N_15  and  N_16
REMARK    4  A    between atoms: C_17  and  C_19
REMARK                            x       y       z     vdW  Elec       q    Type
REMARK                         _______ _______ _______ _____ _____    ______ ____
ROOT
ATOM      1  C   UNL     1       0.059  -4.274  -0.021  0.00  0.00    +0.108 C 
ATOM      2  C   UNL     1      -1.358  -4.819   0.254  0.00  0.00    +0.029 C 
ATOM      3  C   UNL     1      -1.087  -6.054   1.153  0.00  0.00    +0.021 C 
ATOM      4  C   UNL     1       0.124  -5.571   1.989  0.00  0.00    +0.110 C 
ATOM      5  N   UNL     1       0.933  -4.770   1.052  0.00  0.00    -0.277 N 
ATOM      6  C   UNL     1       2.256  -4.532   1.161  0.00  0.00    +0.319 C 
ATOM      7  O   UNL     1       2.840  -3.933   0.280  0.00  0.00    -0.251 OA
ATOM      8  N   UNL     1       2.929  -4.958   2.248  0.00  0.00    -0.218 N 
ATOM      9  H   UNL     1       2.480  -5.498   2.917  0.00  0.00    +0.174 HD
ENDROOT
BRANCH   1  14
ATOM     10  C   UNL     1      -0.018   1.504   0.017  0.00  0.00    +0.044 C 
ATOM     11  C   UNL     1       0.002  -0.003   0.007  0.00  0.00    -0.050 A 
ATOM     12  C   UNL     1       0.005  -0.686  -1.194  0.00  0.00    +0.004 A 
ATOM     13  C   UNL     1       0.024  -2.068  -1.204  0.00  0.00    +0.006 A 
ATOM     14  C   UNL     1       0.040  -2.767  -0.011  0.00  0.00    -0.027 A 
ATOM     15  C   UNL     1       0.037  -2.084   1.191  0.00  0.00    +0.006 A 
ATOM     16  C   UNL     1       0.023  -0.702   1.200  0.00  0.00    +0.004 A 
ENDBRANCH   1  14
BRANCH   8  17
ATOM     17  N   UNL     1       4.279  -4.620   2.412  0.00  0.00    -0.229 N 
ATOM     18  C   UNL     1       4.980  -5.129   3.445  0.00  0.00    +0.260 C 
ATOM     19  O   UNL     1       4.441  -5.880   4.234  0.00  0.00    -0.269 OA
ATOM     20  H   UNL     1       4.709  -4.021   1.782  0.00  0.00    +0.173 HD
BRANCH  18  21
ATOM     21  C   UNL     1       6.404  -4.773   3.618  0.00  0.00    +0.038 A 
ATOM     22  C   UNL     1       7.024  -3.906   2.716  0.00  0.00    +0.016 A 
ATOM     23  C   UNL     1       8.352  -3.577   2.882  0.00  0.00    +0.039 A 
ATOM     24  C   UNL     1       9.072  -4.105   3.942  0.00  0.00    +0.123 A 
ATOM     25  C   UNL     1       8.461  -4.967   4.840  0.00  0.00    +0.039 A 
ATOM     26  C   UNL     1       7.132  -5.298   4.687  0.00  0.00    +0.016 A 
ATOM     27  F   UNL     1      10.374  -3.780   4.100  0.00  0.00    -0.205 F 
ENDBRANCH  18  21
ENDBRANCH   8  17
TORSDOF 3
