REMARK  Name = ZINC08157395
REMARK  10 active torsions:
REMARK  status: ('A' for Active; 'I' for Inactive)
REMARK    1  A    between atoms: C_1  and  C_2
REMARK    2  A    between atoms: C_2  and  C_3
REMARK    3  A    between atoms: C_3  and  C_26
REMARK    4  A    between atoms: N_6  and  C_10
REMARK    5  A    between atoms: C_10  and  C_12
REMARK    6  A    between atoms: C_10  and  C_13
REMARK    7  A    between atoms: N_15  and  C_16
REMARK    8  A    between atoms: C_19  and  N_22
REMARK    9  A    between atoms: C_23  and  C_25
REMARK   10  A    between atoms: C_29  and  C_32
REMARK                            x       y       z     vdW  Elec       q    Type
REMARK                         _______ _______ _______ _____ _____    ______ ____
ROOT
ATOM      1  C   UNL     1       0.074   3.716  -0.192  0.00  0.00    +0.138 C 
ATOM      2  C   UNL     1       0.730   2.352  -0.102  0.00  0.00    +0.252 C 
ATOM      3  O   UNL     1       1.917   2.113  -0.037  0.00  0.00    -0.272 OA
ATOM      4  N   UNL     1      -0.281   1.460  -0.109  0.00  0.00    -0.212 N 
ATOM      5  C   UNL     1      -1.471   2.065  -0.196  0.00  0.00    +0.310 C 
ATOM      6  O   UNL     1      -2.531   1.470  -0.224  0.00  0.00    -0.252 OA
ATOM      7  N   UNL     1      -1.365   3.405  -0.245  0.00  0.00    -0.281 N 
ATOM      8  H   UNL     1      -2.093   4.042  -0.307  0.00  0.00    +0.152 HD
ENDROOT
BRANCH   1   9
ATOM      9  C   UNL     1       0.509   4.431  -1.445  0.00  0.00    -0.015 A 
ATOM     10  C   UNL     1       1.617   5.257  -1.421  0.00  0.00    +0.006 A 
ATOM     11  C   UNL     1       2.018   5.909  -2.572  0.00  0.00    +0.004 A 
ATOM     12  C   UNL     1       1.306   5.743  -3.745  0.00  0.00    -0.050 A 
ATOM     13  C   UNL     1       0.194   4.921  -3.768  0.00  0.00    +0.004 A 
ATOM     14  C   UNL     1      -0.204   4.265  -2.618  0.00  0.00    +0.006 A 
ATOM     15  C   UNL     1       1.740   6.458  -4.998  0.00  0.00    +0.044 C 
ENDBRANCH   1   9
BRANCH   1  17
ATOM     16  C   UNL     1      -0.102   3.828   2.298  0.00  0.00    +0.007 C 
ATOM     17  C   UNL     1       0.399   4.552   1.047  0.00  0.00    +0.037 C 
ENDBRANCH   1  17
BRANCH   4  18
ATOM     18  C   UNL     1      -0.098   0.009  -0.037  0.00  0.00    +0.168 C 
ATOM     19  C   UNL     1      -0.692  -0.642  -1.288  0.00  0.00    +0.038 C 
BRANCH  18  20
ATOM     20  C   UNL     1      -0.796  -0.526   1.187  0.00  0.00    +0.238 C 
ATOM     21  O   UNL     1      -1.388   0.232   1.927  0.00  0.00    -0.273 OA
ATOM     22  N   UNL     1      -0.763  -1.845   1.460  0.00  0.00    -0.284 N 
ATOM     23  H   UNL     1      -0.353  -2.460   0.831  0.00  0.00    +0.155 HD
BRANCH  22  24
ATOM     24  C   UNL     1      -1.319  -2.328   2.651  0.00  0.00    +0.034 A 
ATOM     25  C   UNL     1      -1.266  -1.557   3.805  0.00  0.00    +0.025 A 
ATOM     26  C   UNL     1      -1.819  -2.031   4.978  0.00  0.00    +0.025 A 
ATOM     27  C   UNL     1      -2.418  -3.284   5.006  0.00  0.00    +0.033 A 
ATOM     28  C   UNL     1      -2.466  -4.057   3.854  0.00  0.00    +0.025 A 
ATOM     29  C   UNL     1      -1.918  -3.581   2.680  0.00  0.00    +0.025 A 
BRANCH  27  30
ATOM     30  N   UNL     1      -2.974  -3.767   6.198  0.00  0.00    -0.286 N 
ATOM     31  C   UNL     1      -3.580  -2.918   7.051  0.00  0.00    +0.214 C 
ATOM     32  O   UNL     1      -3.572  -1.726   6.829  0.00  0.00    -0.276 OA
ATOM     33  C   UNL     1      -4.268  -3.451   8.282  0.00  0.00    +0.109 C 
ATOM     34  H   UNL     1      -2.922  -4.713   6.408  0.00  0.00    +0.155 HD
ENDBRANCH  27  30
ENDBRANCH  22  24
ENDBRANCH  18  20
ENDBRANCH   4  18
TORSDOF 6
