REMARK  Name = ZINC20704876
REMARK  5 active torsions:
REMARK  status: ('A' for Active; 'I' for Inactive)
REMARK    1  A    between atoms: C_4  and  N_33
REMARK    2  A    between atoms: C_6  and  C_7
REMARK    3  A    between atoms: C_18  and  C_23
REMARK    4  A    between atoms: N_25  and  C_26
REMARK    5  A    between atoms: C_26  and  C_27
REMARK                            x       y       z     vdW  Elec       q    Type
REMARK                         _______ _______ _______ _____ _____    ______ ____
ROOT
ATOM      1  C   UNL     1       2.450  -2.873  -0.051  0.00  0.00    +0.105 C 
ATOM      2  C   UNL     1       3.599  -2.411  -0.928  0.00  0.00    +0.029 C 
ATOM      3  C   UNL     1       4.873  -3.267  -0.922  0.00  0.00    +0.033 C 
ATOM      4  C   UNL     1       5.949  -2.220  -1.220  0.00  0.00    -0.030 C 
ATOM      5  C   UNL     1       5.537  -1.022  -0.826  0.00  0.00    -0.023 C 
ATOM      6  C   UNL     1       4.192  -1.160  -0.211  0.00  0.00    +0.049 C 
ATOM      7  C   UNL     1       3.184  -0.080  -0.280  0.00  0.00    -0.019 A 
ATOM      8  C   UNL     1       3.531   1.242  -0.410  0.00  0.00    +0.019 A 
ATOM      9  C   UNL     1       2.543   2.230  -0.434  0.00  0.00    +0.037 A 
ATOM     10  C   UNL     1       1.197   1.865  -0.326  0.00  0.00    +0.015 A 
ATOM     11  C   UNL     1       0.852   0.540  -0.204  0.00  0.00    +0.024 A 
ATOM     12  C   UNL     1       1.834  -0.448  -0.186  0.00  0.00    +0.031 A 
ATOM     13  N   UNL     1       1.449  -1.786  -0.097  0.00  0.00    -0.336 N 
ATOM     14  H   UNL     1       0.376  -2.024  -0.061  0.00  0.00    +0.147 HD
ENDROOT
BRANCH   1  20
ATOM     15  C   UNL     1       3.429  -4.310   1.750  0.00  0.00    +0.007 A 
ATOM     16  C   UNL     1       3.871  -4.500   3.045  0.00  0.00    +0.022 A 
ATOM     17  C   UNL     1       3.800  -3.464   3.959  0.00  0.00    +0.071 A 
ATOM     18  C   UNL     1       3.291  -2.237   3.574  0.00  0.00    +0.145 A 
ATOM     19  C   UNL     1       2.854  -2.046   2.277  0.00  0.00    +0.039 A 
ATOM     20  C   UNL     1       2.926  -3.082   1.364  0.00  0.00    -0.025 A 
ATOM     21 CL   UNL     1       4.348  -3.705   5.589  0.00  0.00    -0.081 Cl
BRANCH  18  22
ATOM     22  N   UNL     1       3.214  -1.128   4.552  0.00  0.00    +0.058 N 
ATOM     23  O   UNL     1       2.767  -0.047   4.212  0.00  0.00    -0.126 OA
ATOM     24  O   UNL     1       3.599  -1.296   5.695  0.00  0.00    -0.126 OA
ENDBRANCH  18  22
ENDBRANCH   1  20
BRANCH   9  25
ATOM     25  C   UNL     1       2.917   3.650  -0.573  0.00  0.00    +0.244 C 
ATOM     26  O   UNL     1       4.087   3.964  -0.666  0.00  0.00    -0.270 OA
ATOM     27  N   UNL     1       1.960   4.599  -0.595  0.00  0.00    -0.309 N 
ATOM     28  H   UNL     1       0.901   4.315  -0.511  0.00  0.00    +0.149 HD
BRANCH  27  29
ATOM     29  C   UNL     1       2.332   6.010  -0.733  0.00  0.00    +0.136 C 
BRANCH  29  30
ATOM     30  C   UNL     1       1.068   6.872  -0.731  0.00  0.00    +0.135 C 
ATOM     31  C   UNL     1       1.440   8.348  -0.991  0.00  0.00    +0.035 C 
ATOM     32  C   UNL     1       0.482   9.104  -0.031  0.00  0.00    +0.031 C 
ATOM     33  C   UNL     1       0.408   8.109   1.155  0.00  0.00    +0.160 C 
ATOM     34  O   UNL     1       0.436   6.805   0.553  0.00  0.00    -0.375 OA
ENDBRANCH  29  30
ENDBRANCH  27  29
ENDBRANCH   9  25
TORSDOF 5
