REMARK  Name = ZINC36601955
REMARK  9 active torsions:
REMARK  status: ('A' for Active; 'I' for Inactive)
REMARK    1  A    between atoms: C_1  and  O_2
REMARK    2  A    between atoms: O_2  and  C_3
REMARK    3  A    between atoms: C_3  and  C_5
REMARK    4  A    between atoms: C_5  and  C_7
REMARK    5  A    between atoms: C_5  and  N_11
REMARK    6  A    between atoms: C_7  and  C_8
REMARK    7  A    between atoms: C_8  and  S_9
REMARK    8  A    between atoms: S_9  and  C_10
REMARK    9  A    between atoms: C_23  and  C_25
REMARK                            x       y       z     vdW  Elec       q    Type
REMARK                         _______ _______ _______ _____ _____    ______ ____
ROOT
ATOM      1  N   UNL     1      -0.528  -2.384   3.497  0.00  0.00    -0.286 N 
ATOM      2  C   UNL     1       0.795  -2.640   3.468  0.00  0.00    +0.304 C 
ATOM      3  O   UNL     1       1.394  -2.624   2.410  0.00  0.00    -0.253 OA
ATOM      4  N   UNL     1       1.453  -2.915   4.611  0.00  0.00    -0.273 N 
ATOM      5  C   UNL     1       2.913  -3.091   4.616  0.00  0.00    +0.116 C 
ATOM      6  C   UNL     1       3.549  -1.977   5.458  0.00  0.00    +0.074 C 
ATOM      7  C   UNL     1       2.765  -1.825   6.735  0.00  0.00    +0.040 A 
ATOM      8  C   UNL     1       1.514  -2.292   6.932  0.00  0.00    +0.062 A 
ATOM      9  N   UNL     1       1.141  -1.971   8.173  0.00  0.00    -0.348 N 
ATOM     10  C   UNL     1       2.115  -1.323   8.758  0.00  0.00    +0.171 A 
ATOM     11  N   UNL     1       3.148  -1.214   7.890  0.00  0.00    -0.349 N 
ATOM     12  H   UNL     1       3.999  -0.781   8.060  0.00  0.00    +0.166 HD
ATOM     13  C   UNL     1       0.728  -3.042   5.888  0.00  0.00    +0.156 C 
ATOM     14  H   UNL     1      -1.021  -2.472   4.328  0.00  0.00    +0.151 HD
ATOM     15  H   UNL     1       0.285  -2.184   8.576  0.00  0.00    +0.167 HD
ENDROOT
BRANCH  13  16
ATOM     16  C   UNL     1       0.623  -4.494   6.277  0.00  0.00    -0.021 A 
ATOM     17  C   UNL     1       1.766  -5.220   6.554  0.00  0.00    +0.007 A 
ATOM     18  C   UNL     1       1.671  -6.551   6.911  0.00  0.00    +0.015 A 
ATOM     19  C   UNL     1       0.430  -7.158   6.991  0.00  0.00    +0.018 A 
ATOM     20  C   UNL     1      -0.714  -6.432   6.713  0.00  0.00    +0.015 A 
ATOM     21  C   UNL     1      -0.617  -5.099   6.361  0.00  0.00    +0.007 A 
ATOM     22 BR   UNL     1       0.299  -8.981   7.478  0.00  0.00    -0.050 Br
ENDBRANCH  13  16
BRANCH   1  23
ATOM     23  C   UNL     1      -1.221  -1.970   2.274  0.00  0.00    +0.184 C 
BRANCH  23  24
ATOM     24  C   UNL     1      -1.622  -3.191   1.487  0.00  0.00    +0.327 C 
ATOM     25  O   UNL     1      -1.356  -4.293   1.905  0.00  0.00    -0.249 OA
BRANCH  24  27
ATOM     26  C   UNL     1      -2.624  -4.254  -0.371  0.00  0.00    +0.280 C 
ATOM     27  O   UNL     1      -2.275  -3.054   0.322  0.00  0.00    -0.467 OA
ENDBRANCH  24  27
ENDBRANCH  23  24
BRANCH  23  28
ATOM     28  C   UNL     1      -2.471  -1.168   2.643  0.00  0.00    +0.044 C 
BRANCH  28  29
ATOM     29  C   UNL     1      -2.056   0.133   3.333  0.00  0.00    +0.071 C 
BRANCH  29  30
ATOM     30  S   UNL     1      -3.538   1.085   3.769  0.00  0.00    -0.164 S 
ATOM     31  C   UNL     1      -2.882   2.576   4.567  0.00  0.00    +0.084 C 
ENDBRANCH  29  30
ENDBRANCH  28  29
ENDBRANCH  23  28
ENDBRANCH   1  23
TORSDOF 7
