REMARK  Name = ZINC05488783
REMARK  8 active torsions:
REMARK  status: ('A' for Active; 'I' for Inactive)
REMARK    1  A    between atoms: C_1  and  C_2
REMARK    2  A    between atoms: C_2  and  N_3
REMARK    3  A    between atoms: N_11  and  C_25
REMARK    4  A    between atoms: C_15  and  C_21
REMARK    5  A    between atoms: C_15  and  C_23
REMARK    6  A    between atoms: C_16  and  N_20
REMARK    7  A    between atoms: C_17  and  C_18
REMARK    8  A    between atoms: C_25  and  C_26
REMARK                            x       y       z     vdW  Elec       q    Type
REMARK                         _______ _______ _______ _____ _____    ______ ____
ROOT
ATOM      1  N   UNL     1       4.269   1.240  -5.619  0.00  0.00    +0.380 N 
ATOM      2  C   UNL     1       3.619  -0.063  -5.814  0.00  0.00    -0.074 C 
ATOM      3  C   UNL     1       2.352  -0.134  -4.954  0.00  0.00    +0.012 C 
ATOM      4  C   UNL     1       2.732   0.189  -3.523  0.00  0.00    -0.068 C 
ATOM      5  C   UNL     1       2.341  -0.586  -2.519  0.00  0.00    -0.021 C 
ATOM      6  C   UNL     1       2.136  -0.016  -1.129  0.00  0.00    +0.063 C 
ATOM      7  C   UNL     1       1.942   1.489  -1.222  0.00  0.00    +0.097 C 
ATOM      8  N   UNL     1       1.168   1.989  -0.081  0.00  0.00    -0.298 NA
ATOM      9  C   UNL     1      -0.194   1.434  -0.109  0.00  0.00    +0.111 C 
ATOM     10  C   UNL     1      -0.107  -0.067  -0.089  0.00  0.00    -0.009 C 
ATOM     11  C   UNL     1       0.930  -0.708  -0.545  0.00  0.00    -0.025 C 
ATOM     12  C   UNL     1       0.948  -2.221  -0.494  0.00  0.00    +0.202 C 
ATOM     13  C   UNL     1       1.442  -2.774  -1.800  0.00  0.00    +0.058 C 
ATOM     14  C   UNL     1       2.093  -2.029  -2.723  0.00  0.00    +0.075 C 
ATOM     15  C   UNL     1       3.567   1.428  -3.277  0.00  0.00    +0.012 C 
ATOM     16  C   UNL     1       4.761   1.396  -4.245  0.00  0.00    -0.074 C 
ATOM     17  H   UNL     1       3.509   2.017  -5.788  0.00  0.00    -0.082 HD
ENDROOT
BRANCH  13  18
ATOM     18  N   UNL     1       1.223  -4.096  -2.070  0.00  0.00    -0.358 N 
ATOM     19  H   UNL     1       1.573  -4.529  -3.018  0.00  0.00    +0.142 HD
ATOM     20  H   UNL     1       0.696  -4.726  -1.338  0.00  0.00    +0.142 HD
ENDBRANCH  13  18
BRANCH   1  22
ATOM     21  C   UNL     1       5.836   2.888  -6.526  0.00  0.00    -0.017 C 
ATOM     22  C   UNL     1       5.351   1.439  -6.592  0.00  0.00    -0.082 C 
ENDBRANCH   1  22
BRANCH  14  23
ATOM     23  C   UNL     1       2.553  -2.654  -3.926  0.00  0.00    +0.101 C 
ATOM     24  N   UNL     1       2.918  -3.149  -4.881  0.00  0.00    -0.191 NA
ENDBRANCH  14  23
BRANCH  12  25
ATOM     25  C   UNL     1       1.838  -2.663   0.592  0.00  0.00    +0.095 C 
ATOM     26  N   UNL     1       2.526  -3.004   1.429  0.00  0.00    -0.194 NA
ENDBRANCH  12  25
BRANCH  12  27
ATOM     27  C   UNL     1      -0.415  -2.718  -0.240  0.00  0.00    +0.095 C 
ATOM     28  N   UNL     1      -1.466  -3.101  -0.044  0.00  0.00    -0.194 NA
ENDBRANCH  12  27
BRANCH   8  29
ATOM     29  C   UNL     1       1.138   3.457  -0.069  0.00  0.00    +0.081 C 
ATOM     30  C   UNL     1       0.520   3.944   1.244  0.00  0.00    +0.020 C 
ENDBRANCH   8  29
TORSDOF 6
