REMARK  Name = ZINC11787746
REMARK  6 active torsions:
REMARK  status: ('A' for Active; 'I' for Inactive)
REMARK    1  A    between atoms: C_11  and  C_14
REMARK    2  A    between atoms: C_14  and  N_71
REMARK    3  A    between atoms: C_15  and  N_71
REMARK    4  A    between atoms: N_18  and  C_21
REMARK    5  A    between atoms: C_24  and  N_27
REMARK    6  A    between atoms: C_28  and  C_30
REMARK                            x       y       z     vdW  Elec       q    Type
REMARK                         _______ _______ _______ _____ _____    ______ ____
ROOT
ATOM      1  C   UNL     1      -0.145  -8.915  -0.503  0.00  0.00    -0.069 C 
ATOM      2  C   UNL     1       0.576  -8.207   0.646  0.00  0.00    +0.003 C 
ATOM      3  C   UNL     1       0.537  -6.695   0.412  0.00  0.00    +0.103 C 
ATOM      4  N   UNL     1      -0.859  -6.246   0.336  0.00  0.00    -0.330 N 
ATOM      5  C   UNL     1      -1.559  -6.878  -0.790  0.00  0.00    +0.103 C 
ATOM      6  C   UNL     1      -1.583  -8.395  -0.591  0.00  0.00    +0.003 C 
ENDROOT
BRANCH   4   7
ATOM      7  C   UNL     1      -0.933  -4.851   0.254  0.00  0.00    +0.030 A 
ATOM      8  C   UNL     1      -2.171  -4.226   0.173  0.00  0.00    +0.025 A 
ATOM      9  C   UNL     1      -2.244  -2.849   0.093  0.00  0.00    +0.025 A 
ATOM     10  C   UNL     1      -1.081  -2.091   0.092  0.00  0.00    +0.034 A 
ATOM     11  C   UNL     1       0.156  -2.717   0.166  0.00  0.00    +0.025 A 
ATOM     12  C   UNL     1       0.230  -4.093   0.253  0.00  0.00    +0.025 A 
BRANCH  10  13
ATOM     13  N   UNL     1      -1.156  -0.694   0.009  0.00  0.00    -0.285 N 
ATOM     14  C   UNL     1      -2.169  -0.037   0.608  0.00  0.00    +0.220 C 
ATOM     15  O   UNL     1      -3.061  -0.658   1.146  0.00  0.00    -0.275 OA
ATOM     16  H   UNL     1      -0.478  -0.200  -0.478  0.00  0.00    +0.155 HD
BRANCH  14  17
ATOM     17  C   UNL     1      -2.194   1.470   0.609  0.00  0.00    +0.075 C 
ATOM     18  C   UNL     1      -0.974   2.018   1.377  0.00  0.00    +0.013 C 
ATOM     19  C   UNL     1      -1.520   3.264   2.118  0.00  0.00    +0.001 C 
ATOM     20  C   UNL     1      -2.939   2.814   2.543  0.00  0.00    +0.001 C 
ATOM     21  C   UNL     1      -3.444   1.976   1.350  0.00  0.00    +0.013 C 
ENDBRANCH  14  17
ENDBRANCH  10  13
ENDBRANCH   4   7
BRANCH   1  22
ATOM     22  N   UNL     1      -0.160 -10.368  -0.245  0.00  0.00    +0.381 N 
ATOM     23  H   UNL     1       0.713 -10.637   0.225  0.00  0.00    -0.086 HD
ATOM     24  H   UNL     1      -0.958 -10.596   0.359  0.00  0.00    -0.086 HD
BRANCH  22  25
ATOM     25  C   UNL     1      -0.280 -11.112  -1.513  0.00  0.00    -0.077 C 
BRANCH  25  36
ATOM     26  C   UNL     1      -4.675 -15.386   2.283  0.00  0.00    +0.039 A 
ATOM     27  C   UNL     1      -4.902 -14.944   0.989  0.00  0.00    +0.116 A 
ATOM     28  N   UNL     1      -3.870 -14.634   0.223  0.00  0.00    -0.223 NA
ATOM     29  C   UNL     1      -2.631 -14.741   0.680  0.00  0.00    +0.218 A 
ATOM     30  N   UNL     1      -2.379 -15.165   1.909  0.00  0.00    -0.223 NA
ATOM     31  C   UNL     1      -3.367 -15.487   2.729  0.00  0.00    +0.116 A 
ATOM     32  N   UNL     1      -1.574 -14.408  -0.149  0.00  0.00    -0.299 N 
ATOM     33  C   UNL     1      -1.620 -15.180  -1.398  0.00  0.00    +0.108 C 
ATOM     34  C   UNL     1      -0.364 -14.894  -2.223  0.00  0.00    +0.019 C 
ATOM     35  C   UNL     1      -0.290 -13.396  -2.530  0.00  0.00    +0.005 C 
ATOM     36  C   UNL     1      -0.292 -12.612  -1.214  0.00  0.00    -0.011 C 
ATOM     37  C   UNL     1      -1.551 -12.964  -0.418  0.00  0.00    +0.109 C 
ENDBRANCH  25  36
ENDBRANCH  22  25
ENDBRANCH   1  22
TORSDOF 6
