REMARK  Name = ZINC32689974
REMARK  10 active torsions:
REMARK  status: ('A' for Active; 'I' for Inactive)
REMARK    1  A    between atoms: C_1  and  N_2
REMARK    2  A    between atoms: N_2  and  C_3
REMARK    3  A    between atoms: C_5  and  C_10
REMARK    4  A    between atoms: C_10  and  N_11
REMARK    5  A    between atoms: C_12  and  C_14
REMARK    6  A    between atoms: C_14  and  C_16
REMARK    7  A    between atoms: C_14  and  N_23
REMARK    8  A    between atoms: C_16  and  C_17
REMARK    9  A    between atoms: N_23  and  S_24
REMARK   10  A    between atoms: S_24  and  C_27
REMARK                            x       y       z     vdW  Elec       q    Type
REMARK                         _______ _______ _______ _____ _____    ______ ____
ROOT
ATOM      1  C   UNL     1      -2.925  -4.107   2.125  0.00  0.00    +0.166 C 
ENDROOT
BRANCH   1   3
ATOM      2  N   UNL     1      -1.033  -4.825   0.702  0.00  0.00    -0.310 N 
ATOM      3  C   UNL     1      -1.660  -4.893   1.893  0.00  0.00    +0.232 C 
ATOM      4  O   UNL     1      -1.207  -5.588   2.778  0.00  0.00    -0.274 OA
ATOM      5  H   UNL     1      -1.395  -4.269  -0.005  0.00  0.00    +0.149 HD
BRANCH   2   6
ATOM      6  C   UNL     1       0.197  -5.589   0.477  0.00  0.00    +0.143 C 
BRANCH   6  11
ATOM      7  C   UNL     1       0.750  -2.175   0.045  0.00  0.00    +0.130 C 
ATOM      8  N   UNL     1       1.690  -3.268  -0.216  0.00  0.00    -0.323 N 
ATOM      9  C   UNL     1       2.913  -3.388   0.581  0.00  0.00    +0.130 C 
ATOM     10  C   UNL     1       1.421  -4.191  -1.220  0.00  0.00    +0.103 A 
ATOM     11  C   UNL     1       0.693  -5.339  -0.924  0.00  0.00    +0.008 A 
ATOM     12  C   UNL     1       0.433  -6.249  -1.932  0.00  0.00    +0.010 A 
ATOM     13  C   UNL     1       0.910  -5.979  -3.208  0.00  0.00    +0.018 A 
ATOM     14  C   UNL     1       1.625  -4.820  -3.431  0.00  0.00    +0.084 A 
ATOM     15  N   UNL     1       1.854  -3.966  -2.451  0.00  0.00    -0.349 N 
ATOM     16  H   UNL     1       2.356  -3.157  -2.636  0.00  0.00    +0.167 HD
ENDBRANCH   6  11
ENDBRANCH   2   6
ENDBRANCH   1   3
BRANCH   1  17
ATOM     17  N   UNL     1      -3.408  -4.350   3.487  0.00  0.00    -0.178 NA
ATOM     18  H   UNL     1      -2.898  -4.027   4.247  0.00  0.00    +0.149 HD
BRANCH  17  19
ATOM     19  S   UNL     1      -4.823  -5.175   3.729  0.00  0.00    +0.062 S 
ATOM     20  O   UNL     1      -5.039  -5.207   5.133  0.00  0.00    -0.153 OA
ATOM     21  O   UNL     1      -5.772  -4.627   2.825  0.00  0.00    -0.153 OA
BRANCH  19  22
ATOM     22  C   UNL     1      -4.548  -6.840   3.223  0.00  0.00    +0.140 A 
ATOM     23  C   UNL     1      -4.611  -7.864   4.149  0.00  0.00    +0.031 A 
ATOM     24  C   UNL     1      -4.396  -9.170   3.753  0.00  0.00    +0.002 A 
ATOM     25  C   UNL     1      -4.117  -9.454   2.429  0.00  0.00    +0.003 A 
ATOM     26  C   UNL     1      -4.053  -8.433   1.500  0.00  0.00    +0.040 A 
ATOM     27  C   UNL     1      -4.274  -7.124   1.896  0.00  0.00    +0.150 A 
ATOM     28  F   UNL     1      -4.217  -6.125   0.988  0.00  0.00    -0.203 F 
ENDBRANCH  19  22
ENDBRANCH  17  19
ENDBRANCH   1  17
BRANCH   1  29
ATOM     29  C   UNL     1      -2.638  -2.615   1.944  0.00  0.00    +0.065 C 
BRANCH  29  30
ATOM     30  C   UNL     1      -3.925  -1.839   2.054  0.00  0.00    -0.045 A 
ATOM     31  C   UNL     1      -4.687  -1.600   0.926  0.00  0.00    +0.004 A 
ATOM     32  C   UNL     1      -5.868  -0.888   1.028  0.00  0.00    +0.000 A 
ATOM     33  C   UNL     1      -6.287  -0.417   2.257  0.00  0.00    +0.000 A 
ATOM     34  C   UNL     1      -5.526  -0.657   3.386  0.00  0.00    +0.000 A 
ATOM     35  C   UNL     1      -4.348  -1.373   3.285  0.00  0.00    +0.004 A 
ENDBRANCH  29  30
ENDBRANCH   1  29
TORSDOF 8
