REMARK  Name = ZINC34915512
REMARK  11 active torsions:
REMARK  status: ('A' for Active; 'I' for Inactive)
REMARK    1  A    between atoms: C_1  and  O_2
REMARK    2  A    between atoms: O_2  and  C_3
REMARK    3  A    between atoms: C_3  and  C_5
REMARK    4  A    between atoms: C_8  and  C_11
REMARK    5  A    between atoms: C_11  and  O_12
REMARK    6  A    between atoms: O_12  and  C_13
REMARK    7  A    between atoms: C_13  and  C_15
REMARK    8  A    between atoms: C_13  and  C_32
REMARK    9  A    between atoms: C_15  and  N_16
REMARK   10  A    between atoms: C_22  and  C_24
REMARK   11  A    between atoms: C_27  and  C_30
REMARK                            x       y       z     vdW  Elec       q    Type
REMARK                         _______ _______ _______ _____ _____    ______ ____
ROOT
ATOM      1  C   UNL     1      -1.666  -8.918   1.689  0.00  0.00    +0.132 C 
ENDROOT
BRANCH   1   2
ATOM      2  C   UNL     1      -3.052  -9.495   1.823  0.00  0.00    -0.021 A 
ATOM      3  C   UNL     1      -4.014  -8.821   2.552  0.00  0.00    +0.007 A 
ATOM      4  C   UNL     1      -5.285  -9.350   2.675  0.00  0.00    +0.020 A 
ATOM      5  C   UNL     1      -5.595 -10.553   2.068  0.00  0.00    +0.041 A 
ATOM      6  C   UNL     1      -4.632 -11.227   1.338  0.00  0.00    +0.020 A 
ATOM      7  C   UNL     1      -3.363 -10.695   1.211  0.00  0.00    +0.007 A 
ATOM      8 CL   UNL     1      -7.191 -11.219   2.222  0.00  0.00    -0.084 Cl
ENDBRANCH   1   2
BRANCH   1   9
ATOM      9  O   UNL     1      -1.748  -7.492   1.631  0.00  0.00    -0.369 OA
BRANCH   9  10
ATOM     10  C   UNL     1      -1.882  -6.970   0.308  0.00  0.00    +0.195 C 
BRANCH  10  14
ATOM     11  C   UNL     1      -2.098  -2.703   0.472  0.00  0.00    +0.059 A 
ATOM     12  C   UNL     1      -0.861  -3.338   0.349  0.00  0.00    +0.015 A 
ATOM     13  C   UNL     1      -0.798  -4.715   0.296  0.00  0.00    +0.007 A 
ATOM     14  C   UNL     1      -1.958  -5.466   0.366  0.00  0.00    -0.022 A 
ATOM     15  C   UNL     1      -3.187  -4.843   0.487  0.00  0.00    +0.007 A 
ATOM     16  C   UNL     1      -3.264  -3.467   0.547  0.00  0.00    +0.015 A 
BRANCH  11  17
ATOM     17  C   UNL     1      -2.173  -1.228   0.529  0.00  0.00    +0.339 C 
ATOM     18  O   UNL     1      -3.250  -0.679   0.641  0.00  0.00    -0.245 OA
BRANCH  17  20
ATOM     19  C   UNL     1      -1.192   0.927   0.518  0.00  0.00    +0.280 C 
ATOM     20  O   UNL     1      -1.046  -0.494   0.456  0.00  0.00    -0.464 OA
ENDBRANCH  17  20
ENDBRANCH  11  17
ENDBRANCH  10  14
ENDBRANCH   9  10
ENDBRANCH   1   9
BRANCH   1  21
ATOM     21  C   UNL     1      -0.823  -9.332   2.896  0.00  0.00    -0.042 C 
BRANCH  21  22
ATOM     22  N   UNL     1       0.554  -8.852   2.719  0.00  0.00    +0.384 N 
ATOM     23  C   UNL     1       1.322  -9.109   3.944  0.00  0.00    -0.059 C 
ATOM     24  C   UNL     1       2.724  -8.508   3.803  0.00  0.00    +0.089 C 
ATOM     25  N   UNL     1       3.339  -9.042   2.578  0.00  0.00    -0.301 N 
ATOM     26  C   UNL     1       2.567  -8.973   1.328  0.00  0.00    +0.089 C 
ATOM     27  C   UNL     1       1.173  -9.553   1.586  0.00  0.00    -0.059 C 
ATOM     28  C   UNL     1       4.576  -9.578   2.601  0.00  0.00    +0.246 C 
ATOM     29  O   UNL     1       5.160  -9.714   3.658  0.00  0.00    -0.270 OA
ATOM     30  H   UNL     1       0.543  -7.861   2.534  0.00  0.00    -0.082 HD
BRANCH  28  31
ATOM     31  C   UNL     1       5.221 -10.001   1.339  0.00  0.00    +0.037 A 
ATOM     32  C   UNL     1       4.968  -9.303   0.157  0.00  0.00    +0.014 A 
ATOM     33  C   UNL     1       5.570  -9.696  -1.018  0.00  0.00    +0.019 A 
ATOM     34  C   UNL     1       6.433 -10.794  -1.026  0.00  0.00    +0.052 A 
ATOM     35  C   UNL     1       6.686 -11.493   0.156  0.00  0.00    +0.019 A 
ATOM     36  C   UNL     1       6.088 -11.095   1.332  0.00  0.00    +0.014 A 
BRANCH  34  37
ATOM     37  C   UNL     1       7.058 -11.204  -2.248  0.00  0.00    +0.099 C 
ATOM     38  N   UNL     1       7.553 -11.530  -3.217  0.00  0.00    -0.191 NA
ENDBRANCH  34  37
ENDBRANCH  28  31
ENDBRANCH  21  22
ENDBRANCH   1  21
TORSDOF 10
