REMARK  Name = ZINC21081772
REMARK  8 active torsions:
REMARK  status: ('A' for Active; 'I' for Inactive)
REMARK    1  A    between atoms: C_1  and  C_2
REMARK    2  A    between atoms: C_3  and  N_9
REMARK    3  A    between atoms: C_10  and  C_12
REMARK    4  A    between atoms: C_12  and  S_13
REMARK    5  A    between atoms: S_13  and  C_14
REMARK    6  A    between atoms: N_19  and  N_20
REMARK    7  A    between atoms: C_21  and  C_22
REMARK    8  A    between atoms: C_21  and  C_23
REMARK                            x       y       z     vdW  Elec       q    Type
REMARK                         _______ _______ _______ _____ _____    ______ ____
ROOT
ATOM      1  C   UNL     1       1.083   1.784   0.032  0.00  0.00    +0.211 A 
ATOM      2  N   UNL     1      -0.011   0.967   0.043  0.00  0.00    -0.186 NA
ATOM      3  C   UNL     1      -1.128   1.756   0.063  0.00  0.00    +0.232 A 
ATOM      4  N   UNL     1      -0.739   3.008   0.072  0.00  0.00    -0.245 N 
ATOM      5  N   UNL     1       0.661   3.026   0.049  0.00  0.00    -0.144 NA
ATOM      6  N   UNL     1      -2.442   1.309   0.075  0.00  0.00    -0.205 N 
ATOM      7  H   UNL     1      -2.656   0.230   0.069  0.00  0.00    +0.177 HD
ATOM      8  H   UNL     1      -1.486   3.815   0.095  0.00  0.00    +0.192 HD
ENDROOT
BRANCH   6   9
ATOM      9  N   UNL     1      -3.495   2.232   0.095  0.00  0.00    -0.184 NA
ATOM     10  C   UNL     1      -4.724   1.815   0.106  0.00  0.00    +0.063 C 
ATOM     11  C   UNL     1      -5.018   0.337   0.098  0.00  0.00    +0.068 C 
BRANCH  10  12
ATOM     12  C   UNL     1      -5.833   2.786   0.128  0.00  0.00    -0.002 A 
ATOM     13  C   UNL     1      -7.157   2.340   0.134  0.00  0.00    +0.011 A 
ATOM     14  C   UNL     1      -8.189   3.254   0.158  0.00  0.00    +0.016 A 
ATOM     15  C   UNL     1      -7.916   4.612   0.166  0.00  0.00    +0.018 A 
ATOM     16  C   UNL     1      -6.606   5.061   0.155  0.00  0.00    +0.016 A 
ATOM     17  C   UNL     1      -5.564   4.157   0.136  0.00  0.00    +0.011 A 
ATOM     18 BR   UNL     1      -9.338   5.858   0.194  0.00  0.00    -0.050 Br
ENDBRANCH  10  12
ENDBRANCH   6   9
BRANCH   1  19
ATOM     19  S   UNL     1       2.766   1.262   0.001  0.00  0.00    -0.075 S 
BRANCH  19  20
ATOM     20  C   UNL     1       3.706   2.813  -0.002  0.00  0.00    +0.173 C 
BRANCH  20  22
ATOM     21  N   UNL     1       6.079   3.511  -0.035  0.00  0.00    -0.285 N 
ATOM     22  C   UNL     1       5.181   2.506  -0.028  0.00  0.00    +0.227 C 
ATOM     23  O   UNL     1       5.561   1.354  -0.043  0.00  0.00    -0.275 OA
ATOM     24  H   UNL     1       5.737   4.554  -0.113  0.00  0.00    +0.155 HD
BRANCH  21  27
ATOM     25  C   UNL     1       7.917   5.401  -1.107  0.00  0.00    +0.047 C 
ATOM     26  C   UNL     1       8.378   4.124  -0.453  0.00  0.00    -0.011 A 
ATOM     27  C   UNL     1       7.446   3.229   0.057  0.00  0.00    +0.038 A 
ATOM     28  C   UNL     1       7.875   2.051   0.654  0.00  0.00    +0.023 A 
ATOM     29  C   UNL     1       9.225   1.774   0.744  0.00  0.00    +0.003 A 
ATOM     30  C   UNL     1      10.151   2.669   0.240  0.00  0.00    +0.020 A 
ATOM     31  C   UNL     1       9.728   3.845  -0.355  0.00  0.00    +0.046 A 
ATOM     32 CL   UNL     1      10.893   4.965  -0.986  0.00  0.00    -0.083 Cl
ENDBRANCH  21  27
ENDBRANCH  20  22
ENDBRANCH  19  20
ENDBRANCH   1  19
TORSDOF 6
