REMARK  Name = ZINC48374860
REMARK  8 active torsions:
REMARK  status: ('A' for Active; 'I' for Inactive)
REMARK    1  A    between atoms: C_3  and  N_27
REMARK    2  A    between atoms: C_6  and  C_7
REMARK    3  A    between atoms: C_7  and  N_8
REMARK    4  A    between atoms: C_9  and  C_11
REMARK    5  A    between atoms: C_11  and  C_12
REMARK    6  A    between atoms: C_12  and  C_13
REMARK    7  A    between atoms: C_13  and  C_14
REMARK    8  A    between atoms: C_14  and  C_15
REMARK                            x       y       z     vdW  Elec       q    Type
REMARK                         _______ _______ _______ _____ _____    ______ ____
ROOT
ATOM      1  N   UNL     1      -1.589  -1.267  -1.319  0.00  0.00    -0.311 N 
ATOM      2  C   UNL     1      -2.703  -1.992  -1.542  0.00  0.00    +0.213 C 
ATOM      3  O   UNL     1      -3.456  -2.243  -0.626  0.00  0.00    -0.276 OA
ATOM      4  H   UNL     1      -0.986  -1.066  -2.052  0.00  0.00    +0.149 HD
ENDROOT
BRANCH   1   5
ATOM      5  C   UNL     1      -1.289  -0.781   0.030  0.00  0.00    +0.141 C 
BRANCH   5  11
ATOM      6  C   UNL     1      -0.008   1.364  -0.228  0.00  0.00    +0.010 A 
ATOM      7  C   UNL     1       1.199   2.041  -0.238  0.00  0.00    +0.042 A 
ATOM      8  C   UNL     1       2.374   1.332  -0.013  0.00  0.00    +0.099 A 
ATOM      9  N   UNL     1       2.342   0.027   0.208  0.00  0.00    -0.349 N 
ATOM     10  C   UNL     1       1.206  -0.644   0.224  0.00  0.00    +0.089 A 
ATOM     11  C   UNL     1       0.002  -0.004   0.009  0.00  0.00    -0.014 A 
ATOM     12  H   UNL     1       3.174  -0.448   0.363  0.00  0.00    +0.167 HD
BRANCH   8  13
ATOM     13  N   UNL     1       3.594   1.999  -0.022  0.00  0.00    -0.317 N 
ATOM     14  C   UNL     1       3.594   3.441  -0.119  0.00  0.00    +0.106 C 
ATOM     15  C   UNL     1       3.619   3.861  -1.610  0.00  0.00    +0.019 C 
ATOM     16  C   UNL     1       4.936   3.575  -2.199  0.00  0.00    +0.002 C 
ATOM     17  C   UNL     1       5.308   2.095  -2.217  0.00  0.00    +0.002 C 
ATOM     18  C   UNL     1       5.923   1.718  -0.892  0.00  0.00    +0.019 C 
ATOM     19  C   UNL     1       4.835   1.206   0.075  0.00  0.00    +0.106 C 
ENDBRANCH   8  13
ENDBRANCH   5  11
ENDBRANCH   1   5
BRANCH   2  20
ATOM     20  C   UNL     1      -3.011  -2.491  -2.930  0.00  0.00    +0.096 C 
BRANCH  20  21
ATOM     21  C   UNL     1      -4.322  -3.281  -2.909  0.00  0.00    +0.009 C 
BRANCH  21  22
ATOM     22  C   UNL     1      -4.635  -3.788  -4.318  0.00  0.00    +0.002 C 
BRANCH  22  23
ATOM     23  C   UNL     1      -5.945  -4.577  -4.296  0.00  0.00    +0.016 C 
BRANCH  23  24
ATOM     24  C   UNL     1      -6.259  -5.084  -5.705  0.00  0.00    +0.069 C 
ATOM     25  C   UNL     1      -7.554  -5.924  -5.717  0.00  0.00    +0.108 C 
ATOM     26  C   UNL     1      -8.442  -5.669  -6.939  0.00  0.00    +0.105 C 
ATOM     27  C   UNL     1      -7.870  -4.616  -7.912  0.00  0.00    +0.093 C 
ATOM     28  S   UNL     1      -6.717  -3.690  -6.824  0.00  0.00    -0.154 S 
ATOM     29  N   UNL     1      -9.696  -5.153  -6.368  0.00  0.00    -0.294 N 
ATOM     30  C   UNL     1      -9.582  -5.107  -5.034  0.00  0.00    +0.300 C 
ATOM     31  O   UNL     1     -10.474  -4.718  -4.305  0.00  0.00    -0.253 OA
ATOM     32  N   UNL     1      -8.399  -5.520  -4.582  0.00  0.00    -0.294 N 
ATOM     33  H   UNL     1     -10.479  -4.890  -6.876  0.00  0.00    +0.151 HD
ATOM     34  H   UNL     1      -8.140  -5.551  -3.648  0.00  0.00    +0.151 HD
ENDBRANCH  23  24
ENDBRANCH  22  23
ENDBRANCH  21  22
ENDBRANCH  20  21
ENDBRANCH   2  20
TORSDOF 8
