REMARK  Name = ZINC09795190
REMARK  7 active torsions:
REMARK  status: ('A' for Active; 'I' for Inactive)
REMARK    1  A    between atoms: C_3  and  C_6
REMARK    2  A    between atoms: C_6  and  N_45
REMARK    3  A    between atoms: C_7  and  C_8
REMARK    4  A    between atoms: C_7  and  N_45
REMARK    5  A    between atoms: C_13  and  C_14
REMARK    6  A    between atoms: C_13  and  N_45
REMARK    7  A    between atoms: N_16  and  C_17
REMARK                            x       y       z     vdW  Elec       q    Type
REMARK                         _______ _______ _______ _____ _____    ______ ____
ROOT
ATOM      1  C   UNL     1       2.215  -0.004  -3.577  0.00  0.00    +0.201 C 
ATOM      2  O   UNL     1       2.787   0.876  -4.185  0.00  0.00    -0.278 OA
ATOM      3  N   UNL     1       1.900  -1.157  -4.199  0.00  0.00    -0.286 N 
ATOM      4  H   UNL     1       1.386  -1.835  -3.732  0.00  0.00    +0.155 HD
ENDROOT
BRANCH   3   5
ATOM      5  C   UNL     1       2.316  -1.378  -5.518  0.00  0.00    +0.049 A 
ATOM      6  C   UNL     1       3.397  -0.676  -6.030  0.00  0.00    +0.052 A 
ATOM      7  C   UNL     1       3.806  -0.897  -7.336  0.00  0.00    +0.069 A 
ATOM      8  C   UNL     1       3.128  -1.824  -8.131  0.00  0.00    +0.068 A 
ATOM      9  C   UNL     1       2.048  -2.523  -7.614  0.00  0.00    +0.045 A 
ATOM     10  C   UNL     1       1.647  -2.305  -6.311  0.00  0.00    +0.041 A 
ATOM     11 BR   UNL     1       0.179  -3.264  -5.603  0.00  0.00    -0.048 Br
ATOM     12  N   UNL     1       3.761  -1.826  -9.374  0.00  0.00    -0.306 N 
ATOM     13  H   UNL     1       3.513  -2.372 -10.137  0.00  0.00    +0.170 HD
ATOM     14  C   UNL     1       4.775  -0.941  -9.335  0.00  0.00    +0.325 A 
ATOM     15  O   UNL     1       5.530  -0.699 -10.258  0.00  0.00    -0.247 OA
ATOM     16  N   UNL     1       4.827  -0.364  -8.119  0.00  0.00    -0.306 N 
ATOM     17  H   UNL     1       5.468   0.307  -7.837  0.00  0.00    +0.170 HD
ENDBRANCH   3   5
BRANCH   1  18
ATOM     18  C   UNL     1       1.857   0.193  -2.127  0.00  0.00    +0.020 C 
BRANCH  18  19
ATOM     19  N   UNL     1       2.320   1.530  -1.700  0.00  0.00    +0.393 N 
ATOM     20  H   UNL     1       2.069   2.216  -2.422  0.00  0.00    -0.080 HD
BRANCH  19  21
ATOM     21  C   UNL     1       3.789   1.526  -1.533  0.00  0.00    -0.002 C 
BRANCH  21  24
ATOM     22  C   UNL     1       4.855   4.863  -0.387  0.00  0.00    +0.041 A 
ATOM     23  C   UNL     1       4.394   3.552  -0.125  0.00  0.00    +0.042 A 
ATOM     24  C   UNL     1       4.257   2.942  -1.316  0.00  0.00    +0.089 A 
ATOM     25  O   UNL     1       4.614   3.808  -2.280  0.00  0.00    -0.470 OA
ATOM     26  C   UNL     1       4.972   4.976  -1.722  0.00  0.00    +0.195 A 
ENDBRANCH  21  24
ENDBRANCH  19  21
BRANCH  19  27
ATOM     27  C   UNL     1       1.668   1.910  -0.429  0.00  0.00    -0.034 C 
BRANCH  27  28
ATOM     28  C   UNL     1       0.199   2.127  -0.683  0.00  0.00    -0.027 A 
ATOM     29  C   UNL     1      -0.820   1.235  -0.621  0.00  0.00    +0.009 A 
ATOM     30  C   UNL     1      -2.104   1.662  -0.902  0.00  0.00    +0.008 A 
ATOM     31  C   UNL     1      -2.308   2.964  -1.222  0.00  0.00    +0.045 A 
ATOM     32  S   UNL     1      -0.653   3.627  -1.144  0.00  0.00    -0.103 S 
ENDBRANCH  27  28
ENDBRANCH  19  27
ENDBRANCH  18  19
ENDBRANCH   1  18
TORSDOF 7
