REMARK  Name = ZINC20082328
REMARK  13 active torsions:
REMARK  status: ('A' for Active; 'I' for Inactive)
REMARK    1  A    between atoms: C_1  and  C_2
REMARK    2  A    between atoms: C_5  and  N_9
REMARK    3  A    between atoms: C_7  and  C_8
REMARK    4  A    between atoms: C_10  and  C_12
REMARK    5  A    between atoms: C_12  and  S_13
REMARK    6  A    between atoms: S_13  and  C_14
REMARK    7  A    between atoms: C_15  and  C_35
REMARK    8  A    between atoms: C_16  and  C_28
REMARK    9  A    between atoms: C_18  and  C_22
REMARK   10  A    between atoms: C_19  and  C_21
REMARK   11  A    between atoms: C_22  and  O_24
REMARK   12  A    between atoms: O_24  and  C_25
REMARK   13  A    between atoms: C_25  and  C_26
REMARK                            x       y       z     vdW  Elec       q    Type
REMARK                         _______ _______ _______ _____ _____    ______ ____
ROOT
ATOM      1  C   UNL     1      -4.395   2.168  -1.314  0.00  0.00    +0.080 C 
ATOM      2  C   UNL     1      -3.318   1.340  -1.361  0.00  0.00    +0.069 C 
ATOM      3  C   UNL     1      -2.533   1.012  -0.122  0.00  0.00    +0.100 C 
ATOM      4  C   UNL     1      -3.309   1.370   1.113  0.00  0.00    +0.066 C 
ATOM      5  C   UNL     1      -4.375   2.187   1.065  0.00  0.00    +0.016 C 
ATOM      6  N   UNL     1      -4.801   2.721  -0.119  0.00  0.00    -0.312 N 
ATOM      7  C   UNL     1      -5.112   2.521   2.337  0.00  0.00    +0.061 C 
ATOM      8  H   UNL     1      -5.470   3.595  -0.117  0.00  0.00    +0.152 HD
ENDROOT
BRANCH   3   9
ATOM      9  C   UNL     1      -1.239   1.783  -0.136  0.00  0.00    -0.035 A 
ATOM     10  C   UNL     1      -0.032   1.109  -0.145  0.00  0.00    +0.006 A 
ATOM     11  C   UNL     1       1.155   1.816  -0.164  0.00  0.00    +0.020 A 
ATOM     12  C   UNL     1       1.136   3.200  -0.167  0.00  0.00    +0.041 A 
ATOM     13  C   UNL     1      -0.072   3.874  -0.152  0.00  0.00    +0.020 A 
ATOM     14  C   UNL     1      -1.259   3.166  -0.133  0.00  0.00    +0.006 A 
ATOM     15 CL   UNL     1       2.627   4.089  -0.191  0.00  0.00    -0.084 Cl
ENDBRANCH   3   9
BRANCH   4  16
ATOM     16  C   UNL     1      -2.909   0.834   2.357  0.00  0.00    +0.338 C 
ATOM     17  O   UNL     1      -3.218  -0.304   2.658  0.00  0.00    -0.245 OA
BRANCH  16  18
ATOM     18  O   UNL     1      -2.183   1.583   3.213  0.00  0.00    -0.457 OA
BRANCH  18  19
ATOM     19  C   UNL     1      -1.812   0.978   4.453  0.00  0.00    +0.259 C 
BRANCH  19  20
ATOM     20  C   UNL     1      -1.012   1.957   5.272  0.00  0.00    +0.006 C 
ATOM     21  C   UNL     1      -1.270   2.110   6.547  0.00  0.00    +0.007 C 
ENDBRANCH  19  20
ENDBRANCH  18  19
ENDBRANCH  16  18
ENDBRANCH   4  16
BRANCH   2  22
ATOM     22  C   UNL     1      -2.923   0.772  -2.614  0.00  0.00    +0.098 C 
ATOM     23  N   UNL     1      -2.609   0.321  -3.608  0.00  0.00    -0.191 NA
ENDBRANCH   2  22
BRANCH   1  24
ATOM     24  S   UNL     1      -5.279   2.537  -2.793  0.00  0.00    -0.100 S 
BRANCH  24  25
ATOM     25  C   UNL     1      -6.553   3.640  -2.131  0.00  0.00    +0.171 C 
BRANCH  25  27
ATOM     26  N   UNL     1      -8.482   4.928  -2.992  0.00  0.00    -0.285 N 
ATOM     27  C   UNL     1      -7.454   4.095  -3.250  0.00  0.00    +0.227 C 
ATOM     28  O   UNL     1      -7.255   3.711  -4.383  0.00  0.00    -0.275 OA
ATOM     29  H   UNL     1      -8.617   5.336  -1.979  0.00  0.00    +0.155 HD
BRANCH  26  34
ATOM     30  C   UNL     1     -12.105   6.332  -7.125  0.00  0.00    +0.044 C 
ATOM     31  C   UNL     1     -11.142   5.958  -6.027  0.00  0.00    -0.047 A 
ATOM     32  C   UNL     1      -9.804   5.767  -6.318  0.00  0.00    +0.005 A 
ATOM     33  C   UNL     1      -8.919   5.430  -5.314  0.00  0.00    +0.023 A 
ATOM     34  C   UNL     1      -9.375   5.274  -4.011  0.00  0.00    +0.034 A 
ATOM     35  C   UNL     1     -10.720   5.467  -3.722  0.00  0.00    +0.027 A 
ATOM     36  C   UNL     1     -11.599   5.809  -4.731  0.00  0.00    -0.046 A 
ATOM     37  C   UNL     1     -13.058   6.018  -4.418  0.00  0.00    +0.044 C 
ENDBRANCH  26  34
ENDBRANCH  25  27
ENDBRANCH  24  25
ENDBRANCH   1  24
TORSDOF 10
