REMARK  Name = ZINC43073564
REMARK  6 active torsions:
REMARK  status: ('A' for Active; 'I' for Inactive)
REMARK    1  A    between atoms: C_1  and  N_2
REMARK    2  A    between atoms: N_6  and  C_7
REMARK    3  A    between atoms: C_11  and  C_13
REMARK    4  A    between atoms: C_13  and  C_14
REMARK    5  A    between atoms: C_14  and  C_15
REMARK    6  A    between atoms: C_21  and  N_23
REMARK                            x       y       z     vdW  Elec       q    Type
REMARK                         _______ _______ _______ _____ _____    ______ ____
ROOT
ATOM      1  C   UNL     1       0.074  -4.832  -1.219  0.00  0.00    +0.040 A 
ATOM      2  C   UNL     1      -0.743  -4.482  -2.300  0.00  0.00    +0.025 A 
ATOM      3  C   UNL     1      -0.721  -5.241  -3.450  0.00  0.00    +0.002 A 
ATOM      4  C   UNL     1       0.107  -6.348  -3.538  0.00  0.00    +0.004 A 
ATOM      5  C   UNL     1       0.918  -6.700  -2.474  0.00  0.00    -0.045 A 
ATOM      6  C   UNL     1       0.912  -5.948  -1.318  0.00  0.00    +0.029 A 
ENDROOT
BRANCH   1  12
ATOM      7  C   UNL     1      -4.726  -3.265   2.610  0.00  0.00    +0.148 C 
ATOM      8  N   UNL     1      -3.455  -3.472   1.910  0.00  0.00    -0.354 N 
ATOM      9  C   UNL     1      -3.421  -4.317   0.848  0.00  0.00    +0.087 A 
ATOM     10  C   UNL     1      -2.280  -4.544   0.168  0.00  0.00    +0.045 A 
ATOM     11  C   UNL     1      -1.089  -3.886   0.570  0.00  0.00    +0.063 A 
ATOM     12  N   UNL     1       0.058  -4.087  -0.079  0.00  0.00    -0.354 N 
ATOM     13  C   UNL     1      -1.155  -2.979   1.722  0.00  0.00    +0.065 A 
ATOM     14  C   UNL     1      -2.347  -2.807   2.343  0.00  0.00    +0.110 A 
ATOM     15  H   UNL     1       0.881  -3.702   0.261  0.00  0.00    +0.166 HD
BRANCH  13  16
ATOM     16  N   UNL     1      -0.011  -2.300   2.167  0.00  0.00    -0.355 N 
ATOM     17  H   UNL     1       0.836  -2.429   1.712  0.00  0.00    +0.142 HD
ATOM     18  H   UNL     1      -0.067  -1.703   2.929  0.00  0.00    +0.142 HD
ENDBRANCH  13  16
ENDBRANCH   1  12
BRANCH   5  19
ATOM     19  C   UNL     1       1.815  -7.907  -2.581  0.00  0.00    +0.040 C 
BRANCH  19  20
ATOM     20  C   UNL     1       3.173  -7.484  -3.145  0.00  0.00    +0.040 C 
BRANCH  20  21
ATOM     21  C   UNL     1       4.070  -8.691  -3.252  0.00  0.00    -0.047 A 
ATOM     22  C   UNL     1       4.877  -9.048  -2.188  0.00  0.00    +0.003 A 
ATOM     23  C   UNL     1       5.700 -10.155  -2.285  0.00  0.00    +0.000 A 
ATOM     24  C   UNL     1       5.715 -10.904  -3.447  0.00  0.00    +0.000 A 
ATOM     25  C   UNL     1       4.908 -10.547  -4.511  0.00  0.00    +0.000 A 
ATOM     26  C   UNL     1       4.082  -9.443  -4.411  0.00  0.00    +0.003 A 
ENDBRANCH  20  21
ENDBRANCH  19  20
ENDBRANCH   5  19
TORSDOF 5
