REMARK  Name = ZINC19852926
REMARK  6 active torsions:
REMARK  status: ('A' for Active; 'I' for Inactive)
REMARK    1  A    between atoms: C_1  and  C_2
REMARK    2  A    between atoms: C_5  and  C_7
REMARK    3  A    between atoms: C_16  and  C_24
REMARK    4  A    between atoms: C_17  and  N_23
REMARK    5  A    between atoms: C_18  and  C_19
REMARK    6  A    between atoms: C_18  and  C_21
REMARK                            x       y       z     vdW  Elec       q    Type
REMARK                         _______ _______ _______ _____ _____    ______ ____
ROOT
ATOM      1  C   UNL     1       0.052  -3.276   1.622  0.00  0.00    +0.104 C 
ATOM      2  C   UNL     1      -1.190  -3.256   2.514  0.00  0.00    +0.059 C 
ATOM      3  C   UNL     1      -2.456  -3.497   1.722  0.00  0.00    +0.169 C 
ATOM      4  O   UNL     1      -3.154  -2.283   1.452  0.00  0.00    -0.375 OA
ATOM      5  C   UNL     1      -3.534  -1.578   2.642  0.00  0.00    +0.187 C 
ATOM      6  C   UNL     1      -2.266  -1.189   3.364  0.00  0.00    +0.006 C 
ATOM      7  C   UNL     1      -1.207  -1.951   3.260  0.00  0.00    -0.024 C 
ATOM      8  C   UNL     1       0.069  -1.503   3.871  0.00  0.00    +0.074 C 
ATOM      9  C   UNL     1       1.229  -2.100   3.497  0.00  0.00    +0.054 C 
ATOM     10  C   UNL     1       1.300  -3.223   2.503  0.00  0.00    +0.191 C 
ENDROOT
BRANCH   1  15
ATOM     11  C   UNL     1      -0.018   1.503   0.010  0.00  0.00    +0.086 C 
ATOM     12  C   UNL     1       0.002  -0.004   0.002  0.00  0.00    +0.102 A 
ATOM     13  C   UNL     1       0.008  -0.785  -1.093  0.00  0.00    +0.044 A 
ATOM     14  C   UNL     1       0.028  -2.124  -0.642  0.00  0.00    +0.045 A 
ATOM     15  C   UNL     1       0.033  -2.082   0.703  0.00  0.00    +0.112 A 
ATOM     16  O   UNL     1       0.023  -0.795   1.087  0.00  0.00    -0.464 OA
ENDBRANCH   1  15
BRANCH   9  17
ATOM     17  N   UNL     1       2.395  -1.656   4.055  0.00  0.00    -0.358 N 
ATOM     18  H   UNL     1       2.379  -0.931   4.699  0.00  0.00    +0.142 HD
ATOM     19  H   UNL     1       3.239  -2.065   3.806  0.00  0.00    +0.142 HD
ENDBRANCH   9  17
BRANCH  10  20
ATOM     20  C   UNL     1       1.430  -4.498   3.228  0.00  0.00    +0.091 C 
ATOM     21  N   UNL     1       1.530  -5.482   3.788  0.00  0.00    -0.194 NA
ENDBRANCH  10  20
BRANCH  10  22
ATOM     22  C   UNL     1       2.484  -3.038   1.649  0.00  0.00    +0.091 C 
ATOM     23  N   UNL     1       3.398  -2.894   0.989  0.00  0.00    -0.194 NA
ENDBRANCH  10  22
BRANCH   8  24
ATOM     24  C   UNL     1       0.076  -0.452   4.843  0.00  0.00    +0.101 C 
ATOM     25  N   UNL     1       0.081   0.382   5.615  0.00  0.00    -0.191 NA
ENDBRANCH   8  24
TORSDOF 5
