REMARK  Name = ZINC46876463
REMARK  4 active torsions:
REMARK  status: ('A' for Active; 'I' for Inactive)
REMARK    1  A    between atoms: C_8  and  C_11
REMARK    2  A    between atoms: C_11  and  N_12
REMARK    3  A    between atoms: N_18  and  C_21
REMARK    4  A    between atoms: C_26  and  O_27
REMARK                            x       y       z     vdW  Elec       q    Type
REMARK                         _______ _______ _______ _____ _____    ______ ____
ROOT
ATOM      1  N   UNL     1       5.194  -3.268   0.112  0.00  0.00    -0.296 N 
ATOM      2  C   UNL     1       6.058  -4.168  -0.397  0.00  0.00    +0.302 C 
ATOM      3  O   UNL     1       5.666  -5.010  -1.182  0.00  0.00    -0.253 OA
ATOM      4  N   UNL     1       7.356  -4.135  -0.037  0.00  0.00    -0.283 N 
ATOM      5  C   UNL     1       7.821  -3.202   0.999  0.00  0.00    +0.128 C 
ATOM      6  C   UNL     1       8.537  -4.003   2.094  0.00  0.00    +0.124 C 
ATOM      7  N   UNL     1       9.513  -4.899   1.458  0.00  0.00    -0.324 N 
ATOM      8  C   UNL     1       9.048  -5.831   0.422  0.00  0.00    +0.124 C 
ATOM      9  C   UNL     1       8.331  -5.035  -0.669  0.00  0.00    +0.128 C 
ATOM     10  H   UNL     1       5.490  -2.642   0.792  0.00  0.00    +0.150 HD
ENDROOT
BRANCH   7  11
ATOM     11  C   UNL     1      10.861  -4.864   1.832  0.00  0.00    +0.072 A 
ATOM     12  C   UNL     1      11.320  -5.679   2.857  0.00  0.00    +0.027 A 
ATOM     13  C   UNL     1      12.652  -5.644   3.224  0.00  0.00    +0.002 A 
ATOM     14  C   UNL     1      13.530  -4.796   2.573  0.00  0.00    +0.004 A 
ATOM     15  C   UNL     1      13.079  -3.981   1.552  0.00  0.00    +0.047 A 
ATOM     16  C   UNL     1      11.747  -4.014   1.174  0.00  0.00    +0.138 A 
BRANCH  16  17
ATOM     17  O   UNL     1      11.304  -3.216   0.166  0.00  0.00    -0.505 OA
ATOM     18  H   UNL     1      10.998  -2.347   0.458  0.00  0.00    +0.292 HD
ENDBRANCH  16  17
ENDBRANCH   7  11
BRANCH   1  19
ATOM     19  C   UNL     1       3.808  -3.234  -0.361  0.00  0.00    +0.150 C 
BRANCH  19  27
ATOM     20  C   UNL     1      -0.011   1.387  -0.012  0.00  0.00    +0.000 A 
ATOM     21  C   UNL     1       1.180   2.088  -0.022  0.00  0.00    +0.004 A 
ATOM     22  C   UNL     1       2.385   1.416  -0.039  0.00  0.00    +0.046 A 
ATOM     23  C   UNL     1       2.411   0.024  -0.044  0.00  0.00    +0.124 A 
ATOM     24  C   UNL     1       1.208  -0.670  -0.026  0.00  0.00    -0.002 A 
ATOM     25  C   UNL     1       0.006   0.003  -0.014  0.00  0.00    +0.007 A 
ATOM     26  C   UNL     1       1.547  -2.148  -0.013  0.00  0.00    +0.085 C 
ATOM     27  C   UNL     1       3.045  -2.129   0.372  0.00  0.00    +0.195 C 
ATOM     28  O   UNL     1       3.471  -0.830  -0.072  0.00  0.00    -0.487 OA
ENDBRANCH  19  27
ENDBRANCH   1  19
TORSDOF 4
