REMARK  Name = ZINC00390125
REMARK  3 active torsions:
REMARK  status: ('A' for Active; 'I' for Inactive)
REMARK    1  A    between atoms: C_1  and  C_2
REMARK    2  A    between atoms: C_5  and  C_8
REMARK    3  A    between atoms: N_15  and  N_18
REMARK                            x       y       z     vdW  Elec       q    Type
REMARK                         _______ _______ _______ _____ _____    ______ ____
ROOT
ATOM      1  C   UNL     1       0.146   5.267   0.028  0.00  0.00    +0.004 A 
ATOM      2  C   UNL     1       1.410   5.755   0.018  0.00  0.00    +0.056 A 
ATOM      3  S   UNL     1       2.420   4.286   0.001  0.00  0.00    -0.076 S 
ATOM      4  C   UNL     1       1.135   3.063   0.007  0.00  0.00    +0.116 A 
ATOM      5  C   UNL     1      -0.047   3.822   0.022  0.00  0.00    +0.081 A 
ATOM      6  C   UNL     1      -1.266   3.071   0.030  0.00  0.00    +0.279 A 
ATOM      7  O   UNL     1      -2.344   3.641   0.042  0.00  0.00    -0.265 OA
ATOM      8  N   UNL     1      -1.204   1.727   0.017  0.00  0.00    -0.221 N 
ATOM      9  C   UNL     1      -0.013   1.076   0.008  0.00  0.00    +0.222 A 
ATOM     10  N   UNL     1       1.116   1.733   0.001  0.00  0.00    -0.228 NA
ENDROOT
BRANCH   1  15
ATOM     11  C   UNL     1      -4.374   8.833   0.089  0.00  0.00    +0.044 C 
ATOM     12  C   UNL     1      -3.191   7.900   0.073  0.00  0.00    -0.050 A 
ATOM     13  C   UNL     1      -2.164   8.073   0.984  0.00  0.00    +0.004 A 
ATOM     14  C   UNL     1      -1.079   7.222   0.974  0.00  0.00    +0.009 A 
ATOM     15  C   UNL     1      -1.018   6.185   0.044  0.00  0.00    -0.017 A 
ATOM     16  C   UNL     1      -2.053   6.018  -0.875  0.00  0.00    +0.009 A 
ATOM     17  C   UNL     1      -3.136   6.873  -0.853  0.00  0.00    +0.004 A 
ENDBRANCH   1  15
BRANCH   8  18
ATOM     18  N   UNL     1      -2.362   1.003   0.019  0.00  0.00    -0.294 N 
ATOM     19  H   UNL     1      -2.170   0.013   0.013  0.00  0.00    +0.163 HD
ATOM     20  H   UNL     1      -2.944   1.254   0.804  0.00  0.00    +0.163 HD
ENDBRANCH   8  18
TORSDOF 2
