REMARK  Name = ZINC06971469
REMARK  2 active torsions:
REMARK  status: ('A' for Active; 'I' for Inactive)
REMARK    1  A    between atoms: C_5  and  N_7
REMARK    2  A    between atoms: C_11  and  C_20
REMARK                            x       y       z     vdW  Elec       q    Type
REMARK                         _______ _______ _______ _____ _____    ______ ____
ROOT
ATOM      1  C   UNL     1      -1.250   1.828   0.271  0.00  0.00    +0.003 A 
ATOM      2  C   UNL     1      -1.266   3.185   0.017  0.00  0.00    +0.006 A 
ATOM      3  C   UNL     1      -0.086   3.868  -0.246  0.00  0.00    -0.017 A 
ATOM      4  C   UNL     1       1.112   3.178  -0.247  0.00  0.00    +0.062 A 
ATOM      5  C   UNL     1       1.125   1.808   0.015  0.00  0.00    +0.147 A 
ATOM      6  C   UNL     1      -0.052   1.138   0.275  0.00  0.00    +0.034 A 
ATOM      7  N   UNL     1       2.331   3.806  -0.502  0.00  0.00    -0.335 N 
ATOM      8  C   UNL     1       2.163   4.979  -1.363  0.00  0.00    +0.106 C 
ATOM      9  C   UNL     1       1.216   5.972  -0.708  0.00  0.00    +0.029 C 
ATOM     10  C   UNL     1      -0.181   5.345  -0.521  0.00  0.00    +0.049 C 
ATOM     11  C   UNL     1      -0.701   6.024   0.736  0.00  0.00    -0.023 C 
ATOM     12  C   UNL     1       0.292   6.498   1.446  0.00  0.00    -0.030 C 
ATOM     13  C   UNL     1       1.617   6.205   0.769  0.00  0.00    +0.033 C 
ATOM     14  H   UNL     1       2.995   3.159  -0.899  0.00  0.00    +0.147 HD
ENDROOT
BRANCH   8  15
ATOM     15  C   UNL     1       1.595   4.548  -2.691  0.00  0.00    -0.009 A 
ATOM     16  C   UNL     1       1.893   3.296  -3.208  0.00  0.00    +0.008 A 
ATOM     17  C   UNL     1       1.345   2.940  -4.431  0.00  0.00    +0.020 A 
ATOM     18  C   UNL     1       0.534   3.842  -5.094  0.00  0.00    +0.111 A 
ATOM     19  N   UNL     1       0.277   5.026  -4.574  0.00  0.00    -0.263 NA
ATOM     20  C   UNL     1       0.777   5.397  -3.411  0.00  0.00    +0.116 A 
ENDBRANCH   8  15
BRANCH   5  21
ATOM     21  N   UNL     1       2.408   1.070   0.015  0.00  0.00    +0.058 N 
ATOM     22  O   UNL     1       2.458  -0.063  -0.427  0.00  0.00    -0.126 OA
ATOM     23  O   UNL     1       3.413   1.597   0.458  0.00  0.00    -0.126 OA
ENDBRANCH   5  21
TORSDOF 2
