REMARK  Name = ZINC06409956
REMARK  12 active torsions:
REMARK  status: ('A' for Active; 'I' for Inactive)
REMARK    1  A    between atoms: C_1  and  C_2
REMARK    2  A    between atoms: C_7  and  C_14
REMARK    3  A    between atoms: C_14  and  C_16
REMARK    4  A    between atoms: C_14  and  N_66
REMARK    5  A    between atoms: N_20  and  C_21
REMARK    6  A    between atoms: C_21  and  C_22
REMARK    7  A    between atoms: C_21  and  C_23
REMARK    8  A    between atoms: C_21  and  C_24
REMARK    9  A    between atoms: C_25  and  C_26
REMARK   10  A    between atoms: C_25  and  N_66
REMARK   11  A    between atoms: C_32  and  C_33
REMARK   12  A    between atoms: C_32  and  N_66
REMARK                            x       y       z     vdW  Elec       q    Type
REMARK                         _______ _______ _______ _____ _____    ______ ____
ROOT
ATOM      1  C   UNL     1      -5.398   1.517   0.607  0.00  0.00    +0.040 C 
ENDROOT
BRANCH   1   8
ATOM      2  C   UNL     1       2.571   1.855   0.689  0.00  0.00    +0.044 C 
ATOM      3  C   UNL     1       1.093   1.593   0.553  0.00  0.00    -0.048 A 
ATOM      4  C   UNL     1       0.655   0.465  -0.127  0.00  0.00    +0.004 A 
ATOM      5  C   UNL     1      -0.679   0.208  -0.261  0.00  0.00    +0.010 A 
ATOM      6  C   UNL     1      -1.614   1.094   0.286  0.00  0.00    -0.001 A 
ATOM      7  C   UNL     1      -3.052   0.848   0.164  0.00  0.00    +0.017 A 
ATOM      8  C   UNL     1      -3.911   1.738   0.718  0.00  0.00    +0.011 A 
ATOM      9  C   UNL     1      -3.418   2.872   1.399  0.00  0.00    +0.251 A 
ATOM     10  O   UNL     1      -4.207   3.660   1.890  0.00  0.00    -0.268 OA
ATOM     11  N   UNL     1      -2.099   3.104   1.520  0.00  0.00    -0.322 N 
ATOM     12  H   UNL     1      -1.794   3.893   1.995  0.00  0.00    +0.169 HD
ATOM     13  C   UNL     1      -1.174   2.237   0.979  0.00  0.00    +0.049 A 
ATOM     14  C   UNL     1       0.191   2.477   1.104  0.00  0.00    +0.029 A 
ENDBRANCH   1   8
BRANCH   1  15
ATOM     15  C   UNL     1      -5.992   2.552  -0.314  0.00  0.00    +0.143 A 
ATOM     16  N   UNL     1      -6.015   3.848  -0.123  0.00  0.00    -0.115 NA
ATOM     17  N   UNL     1      -6.608   4.388  -1.131  0.00  0.00    -0.023 NA
ATOM     18  N   UNL     1      -6.964   3.470  -1.960  0.00  0.00    -0.043 NA
ATOM     19  N   UNL     1      -6.597   2.324  -1.494  0.00  0.00    -0.225 N 
BRANCH  19  20
ATOM     20  C   UNL     1      -6.804   1.020  -2.129  0.00  0.00    +0.059 C 
ATOM     21  C   UNL     1      -7.644   0.132  -1.208  0.00  0.00    +0.036 C 
ATOM     22  C   UNL     1      -7.535   1.211  -3.459  0.00  0.00    +0.036 C 
ATOM     23  C   UNL     1      -5.449   0.356  -2.382  0.00  0.00    +0.036 C 
ENDBRANCH  19  20
ENDBRANCH   1  15
BRANCH   1  24
ATOM     24  N   UNL     1      -6.000   1.658   1.949  0.00  0.00    +0.395 N 
ATOM     25  H   UNL     1      -5.615   2.496   2.401  0.00  0.00    -0.079 HD
BRANCH  24  26
ATOM     26  C   UNL     1      -7.466   1.806   1.832  0.00  0.00    -0.041 C 
BRANCH  26  27
ATOM     27  C   UNL     1      -8.028   2.167   3.183  0.00  0.00    -0.064 A 
ATOM     28  C   UNL     1      -8.446   1.171   4.046  0.00  0.00    +0.002 A 
ATOM     29  C   UNL     1      -8.956   1.502   5.287  0.00  0.00    +0.000 A 
ATOM     30  C   UNL     1      -9.059   2.829   5.661  0.00  0.00    +0.000 A 
ATOM     31  C   UNL     1      -8.647   3.825   4.796  0.00  0.00    +0.000 A 
ATOM     32  C   UNL     1      -8.131   3.494   3.557  0.00  0.00    +0.002 A 
ENDBRANCH  26  27
ENDBRANCH  24  26
BRANCH  24  33
ATOM     33  C   UNL     1      -5.677   0.476   2.775  0.00  0.00    -0.034 C 
BRANCH  33  34
ATOM     34  C   UNL     1      -4.277   0.630   3.311  0.00  0.00    -0.027 A 
ATOM     35  C   UNL     1      -3.826   1.442   4.299  0.00  0.00    +0.009 A 
ATOM     36  C   UNL     1      -2.483   1.416   4.627  0.00  0.00    +0.008 A 
ATOM     37  C   UNL     1      -1.658   0.580   3.952  0.00  0.00    +0.045 A 
ATOM     38  S   UNL     1      -2.783  -0.213   2.816  0.00  0.00    -0.103 S 
ENDBRANCH  33  34
ENDBRANCH  24  33
ENDBRANCH   1  24
TORSDOF 8
