REMARK  Name = ZINC39016068
REMARK  11 active torsions:
REMARK  status: ('A' for Active; 'I' for Inactive)
REMARK    1  A    between atoms: C_1  and  O_2
REMARK    2  A    between atoms: O_2  and  C_3
REMARK    3  A    between atoms: C_9  and  C_32
REMARK    4  A    between atoms: C_11  and  N_13
REMARK    5  A    between atoms: C_14  and  C_16
REMARK    6  A    between atoms: C_16  and  N_17
REMARK    7  A    between atoms: N_20  and  C_23
REMARK    8  A    between atoms: C_23  and  C_24
REMARK    9  A    between atoms: C_25  and  C_26
REMARK   10  A    between atoms: C_32  and  O_34
REMARK   11  A    between atoms: O_34  and  C_35
REMARK                            x       y       z     vdW  Elec       q    Type
REMARK                         _______ _______ _______ _____ _____    ______ ____
ROOT
ATOM      1  N   UNL     1       1.130  -2.813  -0.277  0.00  0.00    -0.285 N 
ATOM      2  C   UNL     1       1.613  -1.565  -0.121  0.00  0.00    +0.231 C 
ATOM      3  O   UNL     1       0.870  -0.664   0.206  0.00  0.00    -0.274 OA
ATOM      4  H   UNL     1       1.737  -3.549  -0.457  0.00  0.00    +0.155 HD
ENDROOT
BRANCH   1  12
ATOM      5  C   UNL     1      -0.350  -5.645  -0.214  0.00  0.00    +0.131 A 
ATOM      6  C   UNL     1      -1.250  -6.672  -0.165  0.00  0.00    +0.046 A 
ATOM      7  C   UNL     1      -2.618  -6.435  -0.060  0.00  0.00    +0.006 A 
ATOM      8  C   UNL     1      -3.142  -5.186   0.000  0.00  0.00    +0.026 A 
ATOM      9  C   UNL     1      -2.298  -4.050  -0.043  0.00  0.00    +0.048 A 
ATOM     10  N   UNL     1      -2.566  -2.759  -0.002  0.00  0.00    -0.367 N 
ATOM     11  C   UNL     1      -1.308  -2.008  -0.083  0.00  0.00    +0.234 C 
ATOM     12  C   UNL     1      -0.210  -3.043  -0.181  0.00  0.00    +0.056 C 
ATOM     13  C   UNL     1      -0.844  -4.268  -0.149  0.00  0.00    +0.059 A 
ATOM     14  H   UNL     1      -3.451  -2.369   0.070  0.00  0.00    +0.161 HD
BRANCH   5  16
ATOM     15  C   UNL     1       1.376  -7.267  -0.375  0.00  0.00    +0.277 C 
ATOM     16  O   UNL     1       0.978  -5.896  -0.317  0.00  0.00    -0.494 OA
ENDBRANCH   5  16
BRANCH  11  17
ATOM     17  C   UNL     1      -1.306  -1.129  -1.307  0.00  0.00    +0.335 C 
ATOM     18  O   UNL     1      -1.990  -1.419  -2.260  0.00  0.00    -0.248 OA
BRANCH  17  19
ATOM     19  O   UNL     1      -0.545  -0.024  -1.338  0.00  0.00    -0.466 OA
ATOM     20  C   UNL     1      -0.592   0.763  -2.530  0.00  0.00    +0.280 C 
ENDBRANCH  17  19
ENDBRANCH  11  17
ENDBRANCH   1  12
BRANCH   2  21
ATOM     21  C   UNL     1       3.076  -1.288  -0.353  0.00  0.00    +0.180 C 
BRANCH  21  22
ATOM     22  N   UNL     1       3.347   0.137  -0.121  0.00  0.00    -0.298 NA
ATOM     23  C   UNL     1       2.675   0.972  -1.126  0.00  0.00    +0.066 C 
ATOM     24  C   UNL     1       2.933   2.448  -0.814  0.00  0.00    -0.063 C 
ATOM     25  N   UNL     1       4.379   2.705  -0.827  0.00  0.00    +0.384 N 
ATOM     26  C   UNL     1       5.034   1.882   0.199  0.00  0.00    -0.063 C 
ATOM     27  C   UNL     1       4.793   0.402  -0.105  0.00  0.00    +0.066 C 
ATOM     28  H   UNL     1       4.754   2.473  -1.734  0.00  0.00    -0.081 HD
BRANCH  25  29
ATOM     29  C   UNL     1       4.626   4.126  -0.545  0.00  0.00    -0.051 C 
BRANCH  29  30
ATOM     30  C   UNL     1       6.099   4.416  -0.679  0.00  0.00    -0.045 C 
ATOM     31  C   UNL     1       6.514   5.376  -1.494  0.00  0.00    +0.002 C 
BRANCH  31  32
ATOM     32  C   UNL     1       7.958   5.660  -1.625  0.00  0.00    -0.025 A 
ATOM     33  C   UNL     1       8.888   4.917  -0.896  0.00  0.00    +0.008 A 
ATOM     34  C   UNL     1      10.235   5.188  -1.023  0.00  0.00    +0.001 A 
ATOM     35  C   UNL     1      10.665   6.194  -1.869  0.00  0.00    +0.000 A 
ATOM     36  C   UNL     1       9.748   6.935  -2.594  0.00  0.00    +0.001 A 
ATOM     37  C   UNL     1       8.399   6.670  -2.481  0.00  0.00    +0.008 A 
ENDBRANCH  31  32
ENDBRANCH  29  30
ENDBRANCH  25  29
ENDBRANCH  21  22
ENDBRANCH   2  21
TORSDOF 9
