REMARK  Name = ZINC29046803
REMARK  6 active torsions:
REMARK  status: ('A' for Active; 'I' for Inactive)
REMARK    1  A    between atoms: C_1  and  C_2
REMARK    2  A    between atoms: C_2  and  C_4
REMARK    3  A    between atoms: C_2  and  N_26
REMARK    4  A    between atoms: C_9  and  N_10
REMARK    5  A    between atoms: C_11  and  C_13
REMARK    6  A    between atoms: C_16  and  N_19
REMARK                            x       y       z     vdW  Elec       q    Type
REMARK                         _______ _______ _______ _____ _____    ______ ____
ROOT
ATOM      1  C   UNL     1       2.378   1.012   0.116  0.00  0.00    -0.006 A 
ATOM      2  C   UNL     1       3.579   1.691   0.040  0.00  0.00    +0.007 A 
ATOM      3  C   UNL     1       3.589   3.063  -0.131  0.00  0.00    +0.000 A 
ATOM      4  C   UNL     1       2.399   3.760  -0.231  0.00  0.00    +0.002 A 
ATOM      5  C   UNL     1       1.195   3.087  -0.161  0.00  0.00    +0.023 A 
ATOM      6  C   UNL     1       1.181   1.708   0.011  0.00  0.00    +0.039 A 
ENDROOT
BRANCH   6   7
ATOM      7  N   UNL     1      -0.037   1.023   0.083  0.00  0.00    -0.281 N 
ATOM      8  C   UNL     1      -1.105   1.607   0.662  0.00  0.00    +0.248 C 
ATOM      9  O   UNL     1      -1.029   2.752   1.062  0.00  0.00    -0.270 OA
ATOM     10  H   UNL     1      -0.122   0.009  -0.333  0.00  0.00    +0.155 HD
BRANCH   8  11
ATOM     11  C   UNL     1      -2.367   0.855   0.810  0.00  0.00    +0.037 A 
ATOM     12  C   UNL     1      -2.457  -0.460   0.345  0.00  0.00    +0.015 A 
ATOM     13  C   UNL     1      -3.634  -1.160   0.489  0.00  0.00    +0.027 A 
ATOM     14  C   UNL     1      -4.735  -0.556   1.088  0.00  0.00    +0.049 A 
ATOM     15  C   UNL     1      -4.650   0.754   1.546  0.00  0.00    +0.027 A 
ATOM     16  C   UNL     1      -3.475   1.458   1.410  0.00  0.00    +0.015 A 
BRANCH  14  17
ATOM     17  N   UNL     1      -5.929  -1.268   1.228  0.00  0.00    -0.284 N 
ATOM     18  C   UNL     1      -6.528  -1.800   0.129  0.00  0.00    +0.095 A 
ATOM     19  C   UNL     1      -7.685  -2.493   0.240  0.00  0.00    +0.018 A 
ATOM     20  C   UNL     1      -8.277  -2.668   1.499  0.00  0.00    +0.007 A 
ATOM     21  C   UNL     1      -7.675  -2.133   2.600  0.00  0.00    +0.071 A 
ATOM     22  C   UNL     1      -6.472  -1.423   2.450  0.00  0.00    +0.256 A 
ATOM     23  O   UNL     1      -5.920  -0.944   3.428  0.00  0.00    -0.267 OA
ENDBRANCH  14  17
ENDBRANCH   8  11
ENDBRANCH   6   7
BRANCH   1  25
ATOM     24  C   UNL     1       2.257  -1.171  -1.053  0.00  0.00    +0.033 C 
ATOM     25  C   UNL     1       2.367  -0.483   0.309  0.00  0.00    +0.101 C 
BRANCH  25  26
ATOM     26  N   UNL     1       3.607  -0.899   0.967  0.00  0.00    -0.322 N 
ATOM     27  C   UNL     1       3.640  -2.075   1.709  0.00  0.00    +0.119 A 
ATOM     28  C   UNL     1       2.489  -2.849   1.825  0.00  0.00    +0.045 A 
ATOM     29  C   UNL     1       2.536  -4.019   2.560  0.00  0.00    +0.025 A 
ATOM     30  C   UNL     1       3.736  -4.373   3.167  0.00  0.00    +0.059 A 
ATOM     31  C   UNL     1       4.838  -3.555   3.014  0.00  0.00    +0.132 A 
ATOM     32  N   UNL     1       4.764  -2.446   2.301  0.00  0.00    -0.239 NA
ATOM     33 CL   UNL     1       3.847  -5.828   4.106  0.00  0.00    -0.082 Cl
ATOM     34  H   UNL     1       4.513  -0.282   0.876  0.00  0.00    +0.148 HD
ENDBRANCH  25  26
ENDBRANCH   1  25
TORSDOF 5
