REMARK  Name = ZINC62048968
REMARK  9 active torsions:
REMARK  status: ('A' for Active; 'I' for Inactive)
REMARK    1  A    between atoms: C_1  and  C_2
REMARK    2  A    between atoms: C_6  and  C_11
REMARK    3  A    between atoms: C_14  and  O_17
REMARK    4  A    between atoms: O_17  and  C_18
REMARK    5  A    between atoms: N_19  and  C_20
REMARK    6  A    between atoms: C_22  and  C_28
REMARK    7  A    between atoms: C_22  and  C_29
REMARK    8  A    between atoms: C_24  and  C_26
REMARK    9  A    between atoms: C_24  and  C_27
REMARK                            x       y       z     vdW  Elec       q    Type
REMARK                         _______ _______ _______ _____ _____    ______ ____
ROOT
ATOM      1  C   UNL     1      -0.714   1.266   0.077  0.00  0.00    +0.088 C 
ATOM      2  C   UNL     1      -0.396  -0.207   0.095  0.00  0.00    +0.129 A 
ATOM      3  N   UNL     1      -0.401  -0.883  -1.040  0.00  0.00    -0.217 NA
ATOM      4  C   UNL     1      -0.129  -2.178  -1.089  0.00  0.00    +0.131 A 
ATOM      5  C   UNL     1       0.178  -2.868   0.114  0.00  0.00    +0.055 A 
ATOM      6  C   UNL     1       0.507  -4.274   0.322  0.00  0.00    +0.002 A 
ATOM      7  C   UNL     1       0.766  -4.703   1.579  0.00  0.00    +0.056 A 
ATOM      8  S   UNL     1       0.580  -3.232   2.568  0.00  0.00    -0.076 S 
ATOM      9  C   UNL     1       0.163  -2.082   1.284  0.00  0.00    +0.114 A 
ATOM     10  N   UNL     1      -0.114  -0.793   1.242  0.00  0.00    -0.225 NA
ATOM     11  N   UNL     1      -0.145  -2.851  -2.298  0.00  0.00    -0.326 N 
ATOM     12  H   UNL     1      -0.039  -3.815  -2.318  0.00  0.00    +0.148 HD
ENDROOT
BRANCH  11  13
ATOM     13  C   UNL     1      -0.321  -2.105  -3.551  0.00  0.00    +0.069 C 
ATOM     14  C   UNL     1       1.044  -1.622  -4.044  0.00  0.00    +0.009 C 
ATOM     15  C   UNL     1       0.879  -0.854  -5.355  0.00  0.00    -0.072 C 
ATOM     16  N   UNL     1       0.166  -1.630  -6.359  0.00  0.00    +0.386 N 
ATOM     17  C   UNL     1      -1.050  -2.312  -5.947  0.00  0.00    -0.072 C 
ATOM     18  C   UNL     1      -0.912  -3.034  -4.611  0.00  0.00    +0.009 C 
ATOM     19  C   UNL     1      -1.366  -3.384  -7.017  0.00  0.00    -0.010 C 
ATOM     20  C   UNL     1      -2.247  -1.359  -5.904  0.00  0.00    -0.010 C 
ATOM     21  C   UNL     1       2.297  -0.572  -5.903  0.00  0.00    -0.010 C 
ATOM     22  C   UNL     1       0.216   0.499  -5.095  0.00  0.00    -0.010 C 
ATOM     23  H   UNL     1      -0.060  -1.012  -7.142  0.00  0.00    -0.084 HD
ATOM     24  H   UNL     1       0.811  -2.325  -6.744  0.00  0.00    -0.084 HD
ENDBRANCH  11  13
BRANCH   6  25
ATOM     25  C   UNL     1       0.558  -5.215  -0.822  0.00  0.00    -0.016 A 
ATOM     26  C   UNL     1       1.479  -5.017  -1.850  0.00  0.00    +0.012 A 
ATOM     27  C   UNL     1       1.524  -5.894  -2.913  0.00  0.00    +0.046 A 
ATOM     28  C   UNL     1       0.653  -6.974  -2.961  0.00  0.00    +0.120 A 
ATOM     29  C   UNL     1      -0.265  -7.175  -1.940  0.00  0.00    +0.046 A 
ATOM     30  C   UNL     1      -0.311  -6.304  -0.871  0.00  0.00    +0.012 A 
BRANCH  28  31
ATOM     31  O   UNL     1       0.700  -7.837  -4.010  0.00  0.00    -0.495 OA
ATOM     32  C   UNL     1      -0.225  -8.927  -3.995  0.00  0.00    +0.277 C 
ENDBRANCH  28  31
ENDBRANCH   6  25
TORSDOF 3
