REMARK  Name = ZINC58849551
REMARK  12 active torsions:
REMARK  status: ('A' for Active; 'I' for Inactive)
REMARK    1  A    between atoms: C_1  and  O_2
REMARK    2  A    between atoms: O_2  and  C_3
REMARK    3  A    between atoms: C_7  and  C_11
REMARK    4  A    between atoms: C_8  and  O_9
REMARK    5  A    between atoms: O_9  and  C_10
REMARK    6  A    between atoms: C_22  and  S_27
REMARK    7  A    between atoms: S_27  and  N_30
REMARK    8  A    between atoms: N_30  and  C_31
REMARK    9  A    between atoms: C_34  and  O_39
REMARK   10  A    between atoms: C_35  and  O_37
REMARK   11  A    between atoms: O_37  and  C_38
REMARK   12  A    between atoms: O_39  and  C_40
REMARK                            x       y       z     vdW  Elec       q    Type
REMARK                         _______ _______ _______ _____ _____    ______ ____
ROOT
ATOM      1  C   UNL     1      -2.020  -5.911  -4.638  0.00  0.00    +0.109 C 
ATOM      2  C   UNL     1      -1.059  -5.391  -3.610  0.00  0.00    +0.029 C 
ATOM      3  C   UNL     1      -0.443  -4.037  -4.018  0.00  0.00    +0.033 C 
ATOM      4  C   UNL     1       0.902  -4.028  -3.321  0.00  0.00    -0.030 C 
ATOM      5  C   UNL     1       1.246  -5.235  -2.954  0.00  0.00    -0.023 C 
ATOM      6  C   UNL     1       0.195  -6.230  -3.380  0.00  0.00    +0.049 C 
ATOM      7  C   UNL     1       0.682  -6.917  -4.624  0.00  0.00    -0.018 A 
ATOM      8  C   UNL     1       1.963  -7.452  -4.622  0.00  0.00    +0.034 A 
ATOM      9  C   UNL     1       2.460  -8.083  -5.744  0.00  0.00    +0.109 A 
ATOM     10  C   UNL     1       1.683  -8.186  -6.884  0.00  0.00    +0.030 A 
ATOM     11  C   UNL     1       0.408  -7.661  -6.895  0.00  0.00    +0.025 A 
ATOM     12  C   UNL     1      -0.098  -7.029  -5.761  0.00  0.00    +0.031 A 
ATOM     13  N   UNL     1      -1.394  -6.552  -5.775  0.00  0.00    -0.336 N 
ATOM     14  H   UNL     1      -1.898  -6.629  -6.601  0.00  0.00    +0.147 HD
ENDROOT
BRANCH   1  19
ATOM     15  C   UNL     1      -4.666  -3.211  -4.833  0.00  0.00    +0.162 A 
ATOM     16  C   UNL     1      -4.383  -2.642  -6.064  0.00  0.00    +0.049 A 
ATOM     17  C   UNL     1      -3.338  -3.130  -6.827  0.00  0.00    +0.004 A 
ATOM     18  C   UNL     1      -2.575  -4.187  -6.365  0.00  0.00    +0.009 A 
ATOM     19  C   UNL     1      -2.853  -4.759  -5.138  0.00  0.00    +0.018 A 
ATOM     20  C   UNL     1      -3.895  -4.271  -4.365  0.00  0.00    +0.166 A 
BRANCH  15  22
ATOM     21  C   UNL     1      -6.442  -1.643  -4.624  0.00  0.00    +0.277 C 
ATOM     22  O   UNL     1      -5.693  -2.732  -4.081  0.00  0.00    -0.491 OA
ENDBRANCH  15  22
BRANCH  20  23
ATOM     23  O   UNL     1      -4.166  -4.829  -3.155  0.00  0.00    -0.491 OA
ATOM     24  C   UNL     1      -5.089  -5.920  -3.136  0.00  0.00    +0.277 C 
ENDBRANCH  20  23
ENDBRANCH   1  19
BRANCH   9  25
ATOM     25  S   UNL     1       4.088  -8.758  -5.725  0.00  0.00    +0.072 S 
ATOM     26  O   UNL     1       4.568  -8.698  -7.061  0.00  0.00    -0.150 OA
ATOM     27  O   UNL     1       4.770  -8.142  -4.642  0.00  0.00    -0.150 OA
BRANCH  25  28
ATOM     28  N   UNL     1       3.947 -10.364  -5.345  0.00  0.00    -0.216 N 
ATOM     29  H   UNL     1       4.225 -11.039  -5.983  0.00  0.00    +0.174 HD
BRANCH  28  30
ATOM     30  C   UNL     1       3.428 -10.746  -4.103  0.00  0.00    +0.052 A 
ATOM     31  C   UNL     1       4.205 -10.622  -2.958  0.00  0.00    +0.028 A 
ATOM     32  C   UNL     1       3.693 -10.998  -1.731  0.00  0.00    +0.051 A 
ATOM     33  C   UNL     1       2.405 -11.501  -1.640  0.00  0.00    +0.162 A 
ATOM     34  C   UNL     1       1.625 -11.627  -2.785  0.00  0.00    +0.163 A 
ATOM     35  C   UNL     1       2.135 -11.243  -4.014  0.00  0.00    +0.074 A 
BRANCH  34  36
ATOM     36  O   UNL     1       0.361 -12.121  -2.696  0.00  0.00    -0.491 OA
ATOM     37  C   UNL     1      -0.382 -12.222  -3.913  0.00  0.00    +0.277 C 
ENDBRANCH  34  36
BRANCH  33  38
ATOM     38  O   UNL     1       1.904 -11.872  -0.430  0.00  0.00    -0.491 OA
ATOM     39  C   UNL     1       2.760 -11.715   0.703  0.00  0.00    +0.277 C 
ENDBRANCH  33  38
ENDBRANCH  28  30
ENDBRANCH  25  28
ENDBRANCH   9  25
TORSDOF 8
