REMARK  Name = ZINC50253766
REMARK  6 active torsions:
REMARK  status: ('A' for Active; 'I' for Inactive)
REMARK    1  A    between atoms: C_1  and  C_2
REMARK    2  A    between atoms: C_4  and  S_8
REMARK    3  A    between atoms: N_6  and  C_7
REMARK    4  A    between atoms: S_8  and  N_11
REMARK    5  A    between atoms: N_11  and  C_12
REMARK    6  A    between atoms: C_12  and  C_20
REMARK                            x       y       z     vdW  Elec       q    Type
REMARK                         _______ _______ _______ _____ _____    ______ ____
ROOT
ATOM      1  N   UNL     1      -0.700  -2.869  -3.141  0.00  0.00    -0.169 NA
ATOM      2  H   UNL     1      -1.638  -3.071  -3.279  0.00  0.00    +0.150 HD
ENDROOT
BRANCH   1   3
ATOM      3  C   UNL     1      -0.031  -1.829  -3.974  0.00  0.00    +0.126 C 
ATOM      4  C   UNL     1       0.268  -0.664  -3.036  0.00  0.00    +0.039 C 
ATOM      5  C   UNL     1       0.932   0.533  -3.732  0.00  0.00    +0.003 C 
ATOM      6  C   UNL     1      -0.167   1.284  -4.513  0.00  0.00    +0.000 C 
ATOM      7  C   UNL     1       0.183   1.265  -6.019  0.00  0.00    +0.000 C 
ATOM      8  C   UNL     1       0.706  -0.131  -6.402  0.00  0.00    +0.000 C 
ATOM      9  C   UNL     1      -0.433  -1.146  -6.421  0.00  0.00    +0.003 C 
ATOM     10  C   UNL     1      -1.018  -1.447  -5.060  0.00  0.00    +0.039 C 
BRANCH   3  11
ATOM     11  C   UNL     1       1.193  -2.449  -4.485  0.00  0.00    +0.086 C 
ATOM     12  N   UNL     1       2.143  -2.930  -4.881  0.00  0.00    -0.195 NA
ENDBRANCH   3  11
ENDBRANCH   1   3
BRANCH   1  13
ATOM     13  S   UNL     1       0.161  -3.679  -1.982  0.00  0.00    +0.078 S 
ATOM     14  O   UNL     1      -0.748  -4.573  -1.353  0.00  0.00    -0.151 OA
ATOM     15  O   UNL     1       0.889  -2.698  -1.256  0.00  0.00    -0.151 OA
BRANCH  13  19
ATOM     16  C   UNL     1       2.563  -6.565  -5.655  0.00  0.00    +0.086 C 
ATOM     17  C   UNL     1       2.305  -5.854  -4.351  0.00  0.00    +0.109 A 
ATOM     18  N   UNL     1       1.237  -5.163  -4.061  0.00  0.00    -0.213 NA
ATOM     19  C   UNL     1       1.351  -4.675  -2.816  0.00  0.00    +0.211 A 
ATOM     20  C   UNL     1       2.534  -5.080  -2.317  0.00  0.00    +0.135 A 
ATOM     21  N   UNL     1       3.137  -5.833  -3.288  0.00  0.00    -0.336 N 
ATOM     22  C   UNL     1       4.443  -6.490  -3.193  0.00  0.00    +0.150 C 
ENDBRANCH  13  19
ENDBRANCH   1  13
TORSDOF 4
