REMARK  Name = ZINC21515433
REMARK  3 active torsions:
REMARK  status: ('A' for Active; 'I' for Inactive)
REMARK    1  A    between atoms: C_6  and  C_7
REMARK    2  A    between atoms: C_7  and  C_9
REMARK    3  A    between atoms: C_7  and  N_17
REMARK                            x       y       z     vdW  Elec       q    Type
REMARK                         _______ _______ _______ _____ _____    ______ ____
ROOT
ATOM      1  C   UNL     1       2.489   1.040  -0.016  0.00  0.00    -0.012 C 
ENDROOT
BRANCH   1   7
ATOM      2  C   UNL     1      -0.013   1.076   0.008  0.00  0.00    +0.006 A 
ATOM      3  C   UNL     1      -1.222   1.749   0.017  0.00  0.00    +0.049 A 
ATOM      4  C   UNL     1      -1.236   3.133   0.030  0.00  0.00    +0.162 A 
ATOM      5  C   UNL     1      -0.042   3.841   0.023  0.00  0.00    +0.162 A 
ATOM      6  C   UNL     1       1.165   3.165   0.007  0.00  0.00    +0.051 A 
ATOM      7  C   UNL     1       1.176   1.781   0.000  0.00  0.00    -0.054 A 
ATOM      8  O   UNL     1      -0.067   5.206   0.031  0.00  0.00    -0.488 OA
ATOM      9  C   UNL     1      -0.566   5.828  -1.155  0.00  0.00    +0.232 C 
ATOM     10  C   UNL     1      -2.084   5.911  -1.123  0.00  0.00    +0.082 C 
ATOM     11  C   UNL     1      -2.739   4.539  -1.141  0.00  0.00    +0.232 C 
ATOM     12  O   UNL     1      -2.421   3.810   0.045  0.00  0.00    -0.488 OA
ENDBRANCH   1   7
BRANCH   1  13
ATOM     13  C   UNL     1       2.818   0.571   1.378  0.00  0.00    -0.038 A 
ATOM     14  C   UNL     1       2.567  -0.738   1.743  0.00  0.00    +0.023 A 
ATOM     15  C   UNL     1       2.875  -1.170   3.021  0.00  0.00    +0.041 A 
ATOM     16  C   UNL     1       3.423  -0.289   3.936  0.00  0.00    +0.021 A 
ATOM     17  C   UNL     1       3.668   1.021   3.572  0.00  0.00    +0.021 A 
ATOM     18  C   UNL     1       3.366   1.452   2.292  0.00  0.00    +0.043 A 
ATOM     19 CL   UNL     1       3.675   3.098   1.835  0.00  0.00    -0.083 Cl
ATOM     20 CL   UNL     1       2.567  -2.817   3.478  0.00  0.00    -0.084 Cl
ENDBRANCH   1  13
BRANCH   1  21
ATOM     21  N   UNL     1       2.385  -0.120  -0.912  0.00  0.00    +0.385 N 
ATOM     22  H   UNL     1       3.343  -0.660  -0.924  0.00  0.00    -0.089 HD
ATOM     23  H   UNL     1       2.144   0.223  -1.929  0.00  0.00    -0.089 HD
ATOM     24  H   UNL     1       1.590  -0.790  -0.553  0.00  0.00    -0.089 HD
ENDBRANCH   1  21
TORSDOF 3
