REMARK  Name = ZINC09102168
REMARK  15 active torsions:
REMARK  status: ('A' for Active; 'I' for Inactive)
REMARK    1  A    between atoms: C_1  and  C_2
REMARK    2  A    between atoms: C_2  and  O_3
REMARK    3  A    between atoms: O_3  and  C_4
REMARK    4  A    between atoms: C_4  and  C_6
REMARK    5  A    between atoms: C_7  and  C_14
REMARK    6  A    between atoms: C_8  and  C_12
REMARK    7  A    between atoms: C_9  and  N_11
REMARK    8  A    between atoms: C_14  and  S_15
REMARK    9  A    between atoms: S_15  and  C_16
REMARK   10  A    between atoms: C_19  and  C_28
REMARK   11  A    between atoms: N_20  and  C_21
REMARK   12  A    between atoms: C_28  and  C_30
REMARK   13  A    between atoms: C_28  and  N_55
REMARK   14  A    between atoms: C_31  and  N_55
REMARK   15  A    between atoms: C_32  and  N_55
REMARK                            x       y       z     vdW  Elec       q    Type
REMARK                         _______ _______ _______ _____ _____    ______ ____
ROOT
ATOM      1  C   UNL     1      -4.718   0.395  -1.341  0.00  0.00    +0.196 A 
ATOM      2  N   UNL     1      -5.263   0.585  -0.163  0.00  0.00    -0.122 NA
ATOM      3  N   UNL     1      -6.469   1.007  -0.301  0.00  0.00    -0.135 NA
ATOM      4  C   UNL     1      -6.766   1.111  -1.566  0.00  0.00    +0.125 A 
ATOM      5  N   UNL     1      -5.659   0.730  -2.276  0.00  0.00    -0.275 N 
ENDROOT
BRANCH   5   6
ATOM      6  C   UNL     1      -5.520   0.688  -3.672  0.00  0.00    +0.050 A 
ATOM      7  C   UNL     1      -5.572   1.862  -4.411  0.00  0.00    +0.028 A 
ATOM      8  C   UNL     1      -5.430   1.819  -5.784  0.00  0.00    +0.022 A 
ATOM      9  C   UNL     1      -5.247   0.606  -6.424  0.00  0.00    +0.041 A 
ATOM     10  C   UNL     1      -5.199  -0.566  -5.690  0.00  0.00    +0.022 A 
ATOM     11  C   UNL     1      -5.335  -0.528  -4.316  0.00  0.00    +0.028 A 
ATOM     12 CL   UNL     1      -5.074   0.554  -8.151  0.00  0.00    -0.084 Cl
ENDBRANCH   5   6
BRANCH   4  13
ATOM     13  C   UNL     1      -8.081   1.572  -2.140  0.00  0.00    -0.003 C 
ATOM     14  C   UNL     1      -9.120   0.459  -1.990  0.00  0.00    -0.005 C 
BRANCH  13  17
ATOM     15  C   UNL     1      -9.757   3.316  -2.030  0.00  0.00    -0.096 C 
ATOM     16  C   UNL     1      -8.745   2.479   0.004  0.00  0.00    -0.096 C 
ATOM     17  N   UNL     1      -8.517   2.788  -1.423  0.00  0.00    +0.382 N 
ATOM     18  H   UNL     1      -7.780   3.500  -1.496  0.00  0.00    -0.082 HD
ENDBRANCH  13  17
ENDBRANCH   4  13
BRANCH   1  19
ATOM     19  S   UNL     1      -3.082  -0.176  -1.659  0.00  0.00    -0.081 S 
BRANCH  19  20
ATOM     20  C   UNL     1      -2.486  -0.385   0.037  0.00  0.00    +0.115 C 
BRANCH  20  22
ATOM     21  C   UNL     1       0.002  -0.004   0.002  0.00  0.00    +0.103 A 
ATOM     22  C   UNL     1      -1.064  -0.881   0.013  0.00  0.00    +0.003 A 
ATOM     23  C   UNL     1      -0.775  -2.236  -0.003  0.00  0.00    +0.084 A 
ATOM     24  C   UNL     1       0.572  -2.617  -0.017  0.00  0.00    +0.082 A 
ATOM     25  S   UNL     1       1.409  -1.099  -0.017  0.00  0.00    -0.066 S 
BRANCH  24  26
ATOM     26  N   UNL     1       1.102  -3.887  -0.030  0.00  0.00    -0.352 N 
ATOM     27  H   UNL     1       2.064  -4.011  -0.039  0.00  0.00    +0.143 HD
ATOM     28  H   UNL     1       0.514  -4.658  -0.029  0.00  0.00    +0.143 HD
ENDBRANCH  24  26
BRANCH  21  29
ATOM     29  C   UNL     1      -0.017   1.414   0.010  0.00  0.00    +0.346 C 
ATOM     30  O   UNL     1      -1.079   2.008   0.018  0.00  0.00    -0.244 OA
BRANCH  29  31
ATOM     31  O   UNL     1       1.142   2.104   0.003  0.00  0.00    -0.461 OA
BRANCH  31  33
ATOM     32  C   UNL     1       2.454   4.134   0.001  0.00  0.00    +0.048 C 
ATOM     33  C   UNL     1       1.048   3.530   0.011  0.00  0.00    +0.229 C 
ENDBRANCH  31  33
ENDBRANCH  29  31
ENDBRANCH  21  29
BRANCH  23  34
ATOM     34  C   UNL     1      -1.820  -3.215   0.001  0.00  0.00    +0.102 C 
ATOM     35  N   UNL     1      -2.649  -3.991   0.005  0.00  0.00    -0.191 NA
ENDBRANCH  23  34
ENDBRANCH  20  22
ENDBRANCH  19  20
ENDBRANCH   1  19
TORSDOF 11
