REMARK  Name = ZINC39532765
REMARK  9 active torsions:
REMARK  status: ('A' for Active; 'I' for Inactive)
REMARK    1  A    between atoms: C_4  and  C_7
REMARK    2  A    between atoms: C_7  and  N_8
REMARK    3  A    between atoms: C_9  and  C_11
REMARK    4  A    between atoms: C_11  and  C_12
REMARK    5  A    between atoms: C_15  and  N_18
REMARK    6  A    between atoms: C_21  and  N_24
REMARK    7  A    between atoms: N_24  and  C_25
REMARK    8  A    between atoms: C_25  and  C_26
REMARK    9  A    between atoms: C_31  and  C_32
REMARK                            x       y       z     vdW  Elec       q    Type
REMARK                         _______ _______ _______ _____ _____    ______ ____
ROOT
ATOM      1  N   UNL     1      10.713  -4.621   2.918  0.00  0.00    -0.330 N 
ATOM      2  C   UNL     1      10.752  -6.087   3.009  0.00  0.00    +0.103 C 
ATOM      3  C   UNL     1      11.568  -6.632   1.833  0.00  0.00    +0.003 C 
ATOM      4  C   UNL     1      12.946  -5.966   1.821  0.00  0.00    -0.069 C 
ATOM      5  C   UNL     1      12.783  -4.456   1.637  0.00  0.00    +0.003 C 
ATOM      6  C   UNL     1      11.980  -3.886   2.805  0.00  0.00    +0.103 C 
ENDROOT
BRANCH   1  10
ATOM      7  C   UNL     1       7.079  -2.588   2.964  0.00  0.00    -0.039 A 
ATOM      8  C   UNL     1       8.266  -1.879   2.978  0.00  0.00    +0.006 A 
ATOM      9  C   UNL     1       9.473  -2.550   2.963  0.00  0.00    +0.023 A 
ATOM     10  C   UNL     1       9.494  -3.939   2.934  0.00  0.00    +0.030 A 
ATOM     11  C   UNL     1       8.299  -4.648   2.921  0.00  0.00    +0.023 A 
ATOM     12  C   UNL     1       7.096  -3.971   2.941  0.00  0.00    +0.006 A 
BRANCH   7  13
ATOM     13  C   UNL     1       5.764  -1.853   2.981  0.00  0.00    +0.130 C 
BRANCH  13  15
ATOM     14  N   UNL     1       4.175  -0.988   4.668  0.00  0.00    -0.311 N 
ATOM     15  C   UNL     1       5.330  -1.631   4.407  0.00  0.00    +0.218 C 
ATOM     16  O   UNL     1       6.021  -2.031   5.320  0.00  0.00    -0.275 OA
ATOM     17  H   UNL     1       3.622  -0.668   3.937  0.00  0.00    +0.149 HD
BRANCH  14  18
ATOM     18  C   UNL     1       3.753  -0.773   6.054  0.00  0.00    +0.139 C 
BRANCH  18  22
ATOM     19  C   UNL     1       0.025   1.312   6.103  0.00  0.00    +0.000 A 
ATOM     20  C   UNL     1       0.044  -0.070   6.079  0.00  0.00    +0.000 A 
ATOM     21  C   UNL     1       1.250  -0.744   6.063  0.00  0.00    +0.005 A 
ATOM     22  C   UNL     1       2.438  -0.037   6.071  0.00  0.00    -0.030 A 
ATOM     23  C   UNL     1       2.419   1.345   6.094  0.00  0.00    +0.005 A 
ATOM     24  C   UNL     1       1.213   2.020   6.111  0.00  0.00    +0.000 A 
ENDBRANCH  18  22
ENDBRANCH  14  18
ENDBRANCH  13  15
ENDBRANCH   7  13
ENDBRANCH   1  10
BRANCH   4  25
ATOM     25  N   UNL     1      13.743  -6.511   0.715  0.00  0.00    +0.382 N 
ATOM     26  H   UNL     1      13.783  -7.517   0.791  0.00  0.00    -0.085 HD
ATOM     27  H   UNL     1      13.316  -6.258  -0.164  0.00  0.00    -0.085 HD
BRANCH  25  28
ATOM     28  C   UNL     1      15.104  -5.962   0.774  0.00  0.00    -0.067 C 
BRANCH  28  29
ATOM     29  C   UNL     1      15.935  -6.529  -0.378  0.00  0.00    +0.066 C 
ATOM     30  C   UNL     1      16.189  -8.010  -0.175  0.00  0.00    +0.115 C 
ATOM     31  N   UNL     1      17.473  -8.144  -0.088  0.00  0.00    -0.161 NA
ATOM     32  N   UNL     1      18.145  -6.932  -0.206  0.00  0.00    -0.153 NA
ATOM     33  C   UNL     1      17.326  -5.927  -0.382  0.00  0.00    +0.077 C 
BRANCH  33  34
ATOM     34  C   UNL     1      17.678  -4.509  -0.547  0.00  0.00    -0.001 A 
ATOM     35  C   UNL     1      16.673  -3.551  -0.720  0.00  0.00    +0.012 A 
ATOM     36  C   UNL     1      17.010  -2.223  -0.874  0.00  0.00    +0.039 A 
ATOM     37  C   UNL     1      18.342  -1.837  -0.858  0.00  0.00    +0.123 A 
ATOM     38  C   UNL     1      19.343  -2.781  -0.688  0.00  0.00    +0.039 A 
ATOM     39  C   UNL     1      19.019  -4.111  -0.527  0.00  0.00    +0.012 A 
ATOM     40  F   UNL     1      18.666  -0.534  -1.010  0.00  0.00    -0.205 F 
ENDBRANCH  33  34
ENDBRANCH  28  29
ENDBRANCH  25  28
ENDBRANCH   4  25
TORSDOF 9
