REMARK  Name = ZINC48319962
REMARK  10 active torsions:
REMARK  status: ('A' for Active; 'I' for Inactive)
REMARK    1  A    between atoms: C_1  and  N_2
REMARK    2  A    between atoms: N_2  and  C_3
REMARK    3  A    between atoms: C_5  and  C_10
REMARK    4  A    between atoms: C_10  and  N_11
REMARK    5  A    between atoms: N_14  and  C_15
REMARK    6  A    between atoms: C_15  and  C_16
REMARK    7  A    between atoms: C_19  and  S_21
REMARK    8  A    between atoms: S_21  and  N_24
REMARK    9  A    between atoms: N_24  and  C_25
REMARK   10  A    between atoms: N_24  and  C_26
REMARK                            x       y       z     vdW  Elec       q    Type
REMARK                         _______ _______ _______ _____ _____    ______ ____
ROOT
ATOM      1  N   UNL     1      -1.688  -2.816   0.650  0.00  0.00    -0.295 N 
ATOM      2  C   UNL     1      -2.053  -3.379   1.819  0.00  0.00    +0.300 C 
ATOM      3  O   UNL     1      -1.215  -3.900   2.530  0.00  0.00    -0.253 OA
ATOM      4  N   UNL     1      -3.345  -3.365   2.200  0.00  0.00    -0.295 N 
ATOM      5  H   UNL     1      -2.357  -2.400   0.083  0.00  0.00    +0.151 HD
ATOM      6  H   UNL     1      -4.013  -2.950   1.632  0.00  0.00    +0.151 HD
ENDROOT
BRANCH   1   7
ATOM      7  C   UNL     1      -0.283  -2.831   0.236  0.00  0.00    +0.144 C 
BRANCH   7  12
ATOM      8  C   UNL     1      -1.597   0.448   0.424  0.00  0.00    +0.130 C 
ATOM      9  N   UNL     1      -0.273   0.003  -0.017  0.00  0.00    -0.323 N 
ATOM     10  C   UNL     1       0.916   0.354   0.764  0.00  0.00    +0.130 C 
ATOM     11  C   UNL     1      -0.144  -0.753  -1.176  0.00  0.00    +0.103 A 
ATOM     12  C   UNL     1      -0.145  -2.142  -1.097  0.00  0.00    +0.008 A 
ATOM     13  C   UNL     1      -0.016  -2.882  -2.259  0.00  0.00    +0.010 A 
ATOM     14  C   UNL     1       0.110  -2.205  -3.465  0.00  0.00    +0.018 A 
ATOM     15  C   UNL     1       0.102  -0.825  -3.470  0.00  0.00    +0.084 A 
ATOM     16  N   UNL     1      -0.028  -0.145  -2.347  0.00  0.00    -0.349 N 
ATOM     17  H   UNL     1      -0.034   0.824  -2.379  0.00  0.00    +0.167 HD
ENDBRANCH   7  12
ENDBRANCH   1   7
BRANCH   4  18
ATOM     18  C   UNL     1      -3.741  -3.978   3.470  0.00  0.00    +0.148 C 
BRANCH  18  19
ATOM     19  C   UNL     1      -5.229  -3.827   3.658  0.00  0.00    +0.009 A 
ATOM     20  C   UNL     1      -6.226  -4.664   3.279  0.00  0.00    +0.015 A 
ATOM     21  C   UNL     1      -7.534  -4.318   3.560  0.00  0.00    +0.037 A 
ATOM     22  C   UNL     1      -7.782  -3.153   4.207  0.00  0.00    +0.143 A 
ATOM     23  S   UNL     1      -6.135  -2.506   4.445  0.00  0.00    -0.072 S 
BRANCH  22  24
ATOM     24  S   UNL     1      -9.327  -2.460   4.693  0.00  0.00    +0.067 S 
ATOM     25  O   UNL     1      -9.126  -1.058   4.808  0.00  0.00    -0.152 OA
ATOM     26  O   UNL     1     -10.312  -3.020   3.834  0.00  0.00    -0.152 OA
BRANCH  24  27
ATOM     27  N   UNL     1      -9.656  -3.018   6.217  0.00  0.00    -0.182 NA
ATOM     28  C   UNL     1      -9.198  -2.265   7.388  0.00  0.00    +0.131 C 
ATOM     29  C   UNL     1     -10.406  -4.264   6.395  0.00  0.00    +0.131 C 
ENDBRANCH  24  27
ENDBRANCH  22  24
ENDBRANCH  18  19
ENDBRANCH   4  18
TORSDOF 6
