REMARK  Name = ZINC35743773
REMARK  16 active torsions:
REMARK  status: ('A' for Active; 'I' for Inactive)
REMARK    1  A    between atoms: C_1  and  C_2
REMARK    2  A    between atoms: C_2  and  C_4
REMARK    3  A    between atoms: C_2  and  N_19
REMARK    4  A    between atoms: N_14  and  C_15
REMARK    5  A    between atoms: C_15  and  C_16
REMARK    6  A    between atoms: C_16  and  O_17
REMARK    7  A    between atoms: O_17  and  C_18
REMARK    8  A    between atoms: N_19  and  C_20
REMARK    9  A    between atoms: C_20  and  C_21
REMARK   10  A    between atoms: C_21  and  C_22
REMARK   11  A    between atoms: C_22  and  C_23
REMARK   12  A    between atoms: C_23  and  C_24
REMARK   13  A    between atoms: C_24  and  C_25
REMARK   14  A    between atoms: C_25  and  N_26
REMARK   15  A    between atoms: C_27  and  C_29
REMARK   16  A    between atoms: C_32  and  C_35
REMARK                            x       y       z     vdW  Elec       q    Type
REMARK                         _______ _______ _______ _____ _____    ______ ____
ROOT
ATOM      1  N   UNL     1      -1.331  -0.528   0.383  0.00  0.00    -0.288 N 
ATOM      2  C   UNL     1      -1.776  -0.906  -0.831  0.00  0.00    +0.247 C 
ATOM      3  O   UNL     1      -2.971  -0.976  -1.046  0.00  0.00    -0.270 OA
ENDROOT
BRANCH   2   4
ATOM      4  C   UNL     1      -0.813  -1.236  -1.901  0.00  0.00    +0.037 A 
ATOM      5  C   UNL     1      -1.024  -2.353  -2.713  0.00  0.00    +0.013 A 
ATOM      6  C   UNL     1      -0.126  -2.659  -3.710  0.00  0.00    +0.009 A 
ATOM      7  C   UNL     1       0.995  -1.854  -3.911  0.00  0.00    -0.018 A 
ATOM      8  C   UNL     1       1.208  -0.739  -3.101  0.00  0.00    +0.009 A 
ATOM      9  C   UNL     1       0.308  -0.428  -2.107  0.00  0.00    +0.013 A 
BRANCH   7  10
ATOM     10  C   UNL     1       1.962  -2.185  -4.985  0.00  0.00    -0.018 A 
ATOM     11  C   UNL     1       1.750  -3.296  -5.800  0.00  0.00    +0.008 A 
ATOM     12  C   UNL     1       2.653  -3.599  -6.799  0.00  0.00    +0.001 A 
ATOM     13  C   UNL     1       3.767  -2.802  -6.992  0.00  0.00    +0.000 A 
ATOM     14  C   UNL     1       3.983  -1.698  -6.187  0.00  0.00    +0.001 A 
ATOM     15  C   UNL     1       3.084  -1.383  -5.188  0.00  0.00    +0.008 A 
ENDBRANCH   7  10
ENDBRANCH   2   4
BRANCH   1  17
ATOM     16  C   UNL     1       0.404   1.089   0.980  0.00  0.00    +0.036 C 
ATOM     17  C   UNL     1       0.106  -0.367   0.619  0.00  0.00    +0.139 C 
BRANCH  17  18
ATOM     18  C   UNL     1       0.532  -1.263   1.754  0.00  0.00    +0.133 A 
ATOM     19  N   UNL     1       0.066  -1.019   2.940  0.00  0.00    -0.232 NA
ATOM     20  C   UNL     1       0.405  -1.782   4.009  0.00  0.00    +0.078 A 
ATOM     21  C   UNL     1      -0.097  -1.520   5.286  0.00  0.00    +0.028 A 
ATOM     22  C   UNL     1       0.274  -2.321   6.342  0.00  0.00    +0.002 A 
ATOM     23  C   UNL     1       1.142  -3.389   6.155  0.00  0.00    +0.001 A 
ATOM     24  C   UNL     1       1.650  -3.667   4.905  0.00  0.00    +0.015 A 
ATOM     25  C   UNL     1       1.287  -2.869   3.822  0.00  0.00    +0.065 A 
ATOM     26  C   UNL     1       1.798  -3.118   2.466  0.00  0.00    +0.262 A 
ATOM     27  O   UNL     1       2.561  -4.038   2.237  0.00  0.00    -0.267 OA
ATOM     28  N   UNL     1       1.381  -2.289   1.481  0.00  0.00    -0.292 N 
BRANCH  28  29
ATOM     29  C   UNL     1       1.853  -2.495   0.110  0.00  0.00    +0.154 C 
BRANCH  29  30
ATOM     30  C   UNL     1       3.061  -1.595  -0.154  0.00  0.00    +0.181 C 
BRANCH  30  31
ATOM     31  O   UNL     1       4.154  -2.010   0.668  0.00  0.00    -0.381 OA
ATOM     32  C   UNL     1       5.339  -1.230   0.497  0.00  0.00    +0.194 C 
ENDBRANCH  30  31
ENDBRANCH  29  30
ENDBRANCH  28  29
ENDBRANCH  17  18
ENDBRANCH   1  17
BRANCH   1  33
ATOM     33  C   UNL     1      -2.284  -0.278   1.468  0.00  0.00    +0.109 C 
BRANCH  33  34
ATOM     34  C   UNL     1      -2.816   1.153   1.358  0.00  0.00    +0.019 C 
BRANCH  34  35
ATOM     35  C   UNL     1      -3.811   1.414   2.491  0.00  0.00    +0.001 C 
BRANCH  35  36
ATOM     36  C   UNL     1      -4.344   2.844   2.381  0.00  0.00    -0.002 C 
BRANCH  36  37
ATOM     37  C   UNL     1      -5.339   3.106   3.514  0.00  0.00    -0.020 C 
BRANCH  37  38
ATOM     38  C   UNL     1      -5.871   4.536   3.405  0.00  0.00    -0.086 C 
BRANCH  38  39
ATOM     39  N   UNL     1      -6.827   4.787   4.492  0.00  0.00    +0.378 N 
ATOM     40  H   UNL     1      -7.595   4.136   4.422  0.00  0.00    -0.090 HD
ATOM     41  H   UNL     1      -6.364   4.667   5.380  0.00  0.00    -0.090 HD
ATOM     42  H   UNL     1      -7.178   5.730   4.420  0.00  0.00    -0.090 HD
ENDBRANCH  38  39
ENDBRANCH  37  38
ENDBRANCH  36  37
ENDBRANCH  35  36
ENDBRANCH  34  35
ENDBRANCH  33  34
ENDBRANCH   1  33
TORSDOF 14
