REMARK  Name = ZINC17157128
REMARK  10 active torsions:
REMARK  status: ('A' for Active; 'I' for Inactive)
REMARK    1  A    between atoms: C_1  and  C_2
REMARK    2  A    between atoms: C_6  and  C_8
REMARK    3  A    between atoms: N_10  and  C_11
REMARK    4  A    between atoms: C_11  and  C_13
REMARK    5  A    between atoms: C_11  and  C_17
REMARK    6  A    between atoms: C_13  and  C_14
REMARK    7  A    between atoms: C_14  and  S_15
REMARK    8  A    between atoms: S_15  and  C_16
REMARK    9  A    between atoms: N_19  and  N_20
REMARK   10  A    between atoms: C_21  and  C_23
REMARK                            x       y       z     vdW  Elec       q    Type
REMARK                         _______ _______ _______ _____ _____    ______ ____
ROOT
ATOM      1  C   UNL     1      -2.822  -2.584  -0.109  0.00  0.00    +0.249 C 
ATOM      2  O   UNL     1      -3.279  -3.293   0.763  0.00  0.00    -0.272 OA
ATOM      3  N   UNL     1      -3.575  -2.263  -1.179  0.00  0.00    -0.233 N 
ATOM      4  H   UNL     1      -3.210  -1.696  -1.877  0.00  0.00    +0.173 HD
ENDROOT
BRANCH   3   5
ATOM      5  N   UNL     1      -4.886  -2.747  -1.284  0.00  0.00    -0.234 N 
ATOM      6  C   UNL     1      -5.639  -2.426  -2.355  0.00  0.00    +0.235 C 
ATOM      7  O   UNL     1      -5.183  -1.718  -3.227  0.00  0.00    -0.274 OA
ATOM      8  H   UNL     1      -5.251  -3.314  -0.587  0.00  0.00    +0.173 HD
BRANCH   6   9
ATOM      9  C   UNL     1      -7.049  -2.947  -2.468  0.00  0.00    +0.049 C 
ATOM     10  C   UNL     1      -7.028  -4.477  -2.476  0.00  0.00    +0.019 C 
ATOM     11  C   UNL     1      -8.459  -5.006  -2.591  0.00  0.00    -0.009 C 
ATOM     12  C   UNL     1      -9.088  -4.497  -3.890  0.00  0.00    +0.007 C 
ATOM     13  C   UNL     1      -9.109  -2.967  -3.882  0.00  0.00    -0.009 C 
ATOM     14  C   UNL     1      -7.678  -2.438  -3.767  0.00  0.00    +0.019 C 
ATOM     15  C   UNL     1      -9.932  -2.475  -2.689  0.00  0.00    +0.007 C 
ATOM     16  C   UNL     1      -9.303  -2.983  -1.391  0.00  0.00    -0.009 C 
ATOM     17  C   UNL     1      -9.282  -4.513  -1.399  0.00  0.00    +0.007 C 
ATOM     18  C   UNL     1      -7.872  -2.455  -1.276  0.00  0.00    +0.019 C 
ENDBRANCH   6   9
ENDBRANCH   3   5
BRANCH   1  19
ATOM     19  C   UNL     1      -1.413  -2.063   0.004  0.00  0.00    +0.161 C 
BRANCH  19  22
ATOM     20  C   UNL     1       0.529  -2.662   1.350  0.00  0.00    +0.245 C 
ATOM     21  O   UNL     1       1.237  -2.358   0.410  0.00  0.00    -0.270 OA
ATOM     22  N   UNL     1      -0.810  -2.550   1.248  0.00  0.00    -0.300 N 
ATOM     23  H   UNL     1      -1.375  -2.793   1.998  0.00  0.00    +0.150 HD
BRANCH  20  29
ATOM     24  C   UNL     1       4.581  -3.858   4.005  0.00  0.00    +0.044 C 
ATOM     25  C   UNL     1       3.084  -3.730   3.886  0.00  0.00    -0.050 A 
ATOM     26  C   UNL     1       2.275  -4.075   4.955  0.00  0.00    +0.003 A 
ATOM     27  C   UNL     1       0.900  -3.961   4.854  0.00  0.00    +0.001 A 
ATOM     28  C   UNL     1       0.326  -3.503   3.686  0.00  0.00    +0.013 A 
ATOM     29  C   UNL     1       1.137  -3.153   2.605  0.00  0.00    +0.037 A 
ATOM     30  C   UNL     1       2.523  -3.275   2.711  0.00  0.00    +0.016 A 
ENDBRANCH  20  29
ENDBRANCH  19  22
BRANCH  19  31
ATOM     31  C   UNL     1      -1.433  -0.534   0.013  0.00  0.00    +0.042 C 
BRANCH  31  32
ATOM     32  C   UNL     1       0.002  -0.004   0.002  0.00  0.00    +0.071 C 
BRANCH  32  33
ATOM     33  S   UNL     1      -0.022   1.810   0.012  0.00  0.00    -0.164 S 
ATOM     34  C   UNL     1       1.731   2.272  -0.002  0.00  0.00    +0.084 C 
ENDBRANCH  32  33
ENDBRANCH  31  32
ENDBRANCH  19  31
ENDBRANCH   1  19
TORSDOF 8
