REMARK  Name = ZINC09642591
REMARK  2 active torsions:
REMARK  status: ('A' for Active; 'I' for Inactive)
REMARK    1  A    between atoms: C_8  and  C_11
REMARK    2  A    between atoms: C_16  and  C_19
REMARK                            x       y       z     vdW  Elec       q    Type
REMARK                         _______ _______ _______ _____ _____    ______ ____
ROOT
ATOM      1  C   UNL     1       1.909   3.094  -0.021  0.00  0.00    +0.269 C 
ATOM      2  O   UNL     1       1.172   4.055  -0.118  0.00  0.00    -0.268 OA
ATOM      3  N   UNL     1       3.241   3.273   0.071  0.00  0.00    -0.296 N 
ATOM      4  C   UNL     1       4.152   2.120   0.089  0.00  0.00    +0.109 C 
ATOM      5  C   UNL     1       5.056   2.219   1.317  0.00  0.00    +0.032 C 
ATOM      6  C   UNL     1       5.761   3.578   1.321  0.00  0.00    +0.078 C 
ATOM      7  C   UNL     1       4.718   4.695   1.396  0.00  0.00    +0.032 C 
ATOM      8  C   UNL     1       3.811   4.625   0.163  0.00  0.00    +0.109 C 
ENDROOT
BRANCH   1  16
ATOM      9  C   UNL     1      -1.488  -2.111   0.153  0.00  0.00    +0.019 A 
ATOM     10  C   UNL     1      -2.752  -2.586   0.093  0.00  0.00    +0.046 A 
ATOM     11  S   UNL     1      -3.700  -1.114  -0.254  0.00  0.00    -0.101 S 
ATOM     12  C   UNL     1      -2.409   0.018  -0.308  0.00  0.00    +0.001 A 
ATOM     13  C   UNL     1      -1.284  -0.745  -0.045  0.00  0.00    +0.030 A 
ATOM     14  C   UNL     1       0.003  -0.004   0.001  0.00  0.00    +0.172 A 
ATOM     15  C   UNL     1      -0.016   1.373   0.021  0.00  0.00    +0.032 A 
ATOM     16  C   UNL     1       1.342   1.723  -0.006  0.00  0.00    +0.172 A 
ATOM     17  N   UNL     1       2.012   0.588  -0.015  0.00  0.00    -0.073 NA
ATOM     18  O   UNL     1       1.270  -0.378  -0.001  0.00  0.00    -0.354 OA
ATOM     19  C   UNL     1      -1.261   2.201   0.090  0.00  0.00    +0.046 C 
ATOM     20  C   UNL     1      -2.430   1.483  -0.596  0.00  0.00    +0.048 C 
ENDBRANCH   1  16
BRANCH   6  21
ATOM     21  C   UNL     1       6.676   3.665   2.515  0.00  0.00    +0.214 C 
ATOM     22  O   UNL     1       6.511   4.535   3.344  0.00  0.00    -0.276 OA
ATOM     23  N   UNL     1       7.679   2.776   2.661  0.00  0.00    -0.329 N 
ATOM     24  H   UNL     1       7.811   2.080   1.998  0.00  0.00    +0.145 HD
ATOM     25  H   UNL     1       8.268   2.832   3.430  0.00  0.00    +0.145 HD
ENDBRANCH   6  21
TORSDOF 2
