REMARK  Name = ZINC63857779
REMARK  7 active torsions:
REMARK  status: ('A' for Active; 'I' for Inactive)
REMARK    1  A    between atoms: C_4  and  C_7
REMARK    2  A    between atoms: N_9  and  C_10
REMARK    3  A    between atoms: C_10  and  C_12
REMARK    4  A    between atoms: C_10  and  C_22
REMARK    5  A    between atoms: C_12  and  C_13
REMARK    6  A    between atoms: N_24  and  N_25
REMARK    7  A    between atoms: C_26  and  C_27
REMARK                            x       y       z     vdW  Elec       q    Type
REMARK                         _______ _______ _______ _____ _____    ______ ____
ROOT
ATOM      1  C   UNL     1       4.997  -2.744  -0.061  0.00  0.00    +0.165 C 
ENDROOT
BRANCH   1   4
ATOM      2  C   UNL     1       3.696  -0.685  -0.037  0.00  0.00    +0.245 C 
ATOM      3  O   UNL     1       4.738  -0.060  -0.044  0.00  0.00    -0.270 OA
ATOM      4  N   UNL     1       3.717  -2.032  -0.045  0.00  0.00    -0.300 N 
ATOM      5  H   UNL     1       2.885  -2.531  -0.039  0.00  0.00    +0.150 HD
BRANCH   2   9
ATOM      6  C   UNL     1      -0.017   1.379   0.010  0.00  0.00    +0.000 A 
ATOM      7  C   UNL     1       1.168   2.094   0.002  0.00  0.00    +0.001 A 
ATOM      8  C   UNL     1       2.377   1.429  -0.013  0.00  0.00    +0.013 A 
ATOM      9  C   UNL     1       2.403   0.034  -0.021  0.00  0.00    +0.037 A 
ATOM     10  C   UNL     1       1.204  -0.681  -0.013  0.00  0.00    +0.013 A 
ATOM     11  C   UNL     1       0.002  -0.004   0.002  0.00  0.00    +0.001 A 
ENDBRANCH   2   9
ENDBRANCH   1   4
BRANCH   1  12
ATOM     12  C   UNL     1       4.805  -4.111  -0.667  0.00  0.00    +0.253 C 
ATOM     13  O   UNL     1       3.706  -4.456  -1.048  0.00  0.00    -0.272 OA
ATOM     14  N   UNL     1       5.853  -4.949  -0.786  0.00  0.00    -0.205 N 
ATOM     15  H   UNL     1       6.732  -4.673  -0.482  0.00  0.00    +0.177 HD
BRANCH  14  16
ATOM     16  N   UNL     1       5.674  -6.219  -1.349  0.00  0.00    -0.188 NA
ATOM     17  C   UNL     1       6.684  -7.026  -1.464  0.00  0.00    +0.139 C 
BRANCH  17  18
ATOM     18  C   UNL     1       6.495  -8.364  -2.057  0.00  0.00    +0.013 A 
ATOM     19  C   UNL     1       7.575  -9.247  -2.181  0.00  0.00    +0.012 A 
ATOM     20  C   UNL     1       7.345 -10.489  -2.744  0.00  0.00    +0.020 A 
ATOM     21  C   UNL     1       6.068 -10.817  -3.163  0.00  0.00    +0.111 A 
ATOM     22  N   UNL     1       5.069  -9.965  -3.034  0.00  0.00    -0.263 NA
ATOM     23  C   UNL     1       5.235  -8.773  -2.499  0.00  0.00    +0.120 A 
ENDBRANCH  17  18
ENDBRANCH  14  16
ENDBRANCH   1  12
BRANCH   1  24
ATOM     24  C   UNL     1       5.519  -2.890   1.370  0.00  0.00    +0.065 C 
BRANCH  24  25
ATOM     25  C   UNL     1       5.828  -1.526   1.933  0.00  0.00    -0.039 C 
ATOM     26  C   UNL     1       5.017  -0.759   2.697  0.00  0.00    -0.001 A 
ATOM     27  C   UNL     1       3.656  -0.956   3.211  0.00  0.00    +0.010 A 
ATOM     28  C   UNL     1       3.093   0.015   3.966  0.00  0.00    +0.001 A 
ATOM     29  C   UNL     1       3.775   1.201   4.269  0.00  0.00    +0.002 A 
ATOM     30  C   UNL     1       5.027   1.454   3.833  0.00  0.00    +0.026 A 
ATOM     31  C   UNL     1       5.715   0.502   3.031  0.00  0.00    +0.043 A 
ATOM     32  N   UNL     1       6.912   0.514   2.496  0.00  0.00    -0.380 N 
ATOM     33  C   UNL     1       7.110  -0.742   1.765  0.00  0.00    +0.144 C 
ATOM     34  H   UNL     1       7.559   1.232   2.573  0.00  0.00    +0.160 HD
ENDBRANCH  24  25
ENDBRANCH   1  24
TORSDOF 7
