REMARK  Name = ZINC39687230
REMARK  7 active torsions:
REMARK  status: ('A' for Active; 'I' for Inactive)
REMARK    1  A    between atoms: C_1  and  C_2
REMARK    2  A    between atoms: C_5  and  C_8
REMARK    3  A    between atoms: C_12  and  C_21
REMARK    4  A    between atoms: N_23  and  C_24
REMARK    5  A    between atoms: C_24  and  C_26
REMARK    6  A    between atoms: C_24  and  C_33
REMARK    7  A    between atoms: C_26  and  C_27
REMARK                            x       y       z     vdW  Elec       q    Type
REMARK                         _______ _______ _______ _____ _____    ______ ____
ROOT
ATOM      1  C   UNL     1       1.641  -3.474   0.746  0.00  0.00    +0.247 C 
ATOM      2  O   UNL     1       1.649  -2.270   0.912  0.00  0.00    -0.270 OA
ATOM      3  N   UNL     1       1.300  -4.292   1.762  0.00  0.00    -0.296 N 
ATOM      4  C   UNL     1       0.844  -3.912   3.120  0.00  0.00    +0.121 C 
ATOM      5  C   UNL     1      -0.269  -4.930   3.457  0.00  0.00    +0.100 C 
ATOM      6  C   UNL     1       0.034  -6.150   2.571  0.00  0.00    -0.004 C 
ATOM      7  C   UNL     1       1.289  -5.775   1.771  0.00  0.00    +0.115 C 
ATOM      8  C   UNL     1      -1.130  -6.416   1.621  0.00  0.00    -0.010 C 
ATOM      9  C   UNL     1      -0.830  -7.667   0.792  0.00  0.00    -0.082 C 
ATOM     10  N   UNL     1      -0.631  -8.814   1.686  0.00  0.00    +0.379 N 
ATOM     11  C   UNL     1       0.547  -8.590   2.533  0.00  0.00    -0.082 C 
ATOM     12  C   UNL     1       0.305  -7.377   3.437  0.00  0.00    -0.010 C 
ATOM     13  H   UNL     1      -1.446  -8.929   2.270  0.00  0.00    -0.086 HD
ATOM     14  H   UNL     1      -0.494  -9.648   1.136  0.00  0.00    -0.086 HD
ENDROOT
BRANCH   1  19
ATOM     15  C   UNL     1       3.059  -5.685  -4.374  0.00  0.00    +0.044 C 
ATOM     16  C   UNL     1       2.688  -5.106  -3.033  0.00  0.00    -0.050 A 
ATOM     17  C   UNL     1       2.932  -5.830  -1.879  0.00  0.00    +0.004 A 
ATOM     18  C   UNL     1       2.594  -5.305  -0.648  0.00  0.00    +0.013 A 
ATOM     19  C   UNL     1       2.006  -4.042  -0.569  0.00  0.00    +0.037 A 
ATOM     20  C   UNL     1       1.762  -3.318  -1.737  0.00  0.00    +0.013 A 
ATOM     21  C   UNL     1       2.110  -3.851  -2.961  0.00  0.00    +0.004 A 
ENDBRANCH   1  19
BRANCH   5  22
ATOM     22  C   UNL     1      -0.210  -5.309   4.914  0.00  0.00    +0.219 C 
ATOM     23  O   UNL     1       0.849  -5.284   5.505  0.00  0.00    -0.275 OA
ATOM     24  N   UNL     1      -1.334  -5.675   5.562  0.00  0.00    -0.303 N 
ATOM     25  H   UNL     1      -2.181  -5.695   5.089  0.00  0.00    +0.149 HD
BRANCH  24  26
ATOM     26  C   UNL     1      -1.277  -6.043   6.978  0.00  0.00    +0.163 C 
BRANCH  26  27
ATOM     27  C   UNL     1      -0.903  -7.497   7.105  0.00  0.00    +0.236 C 
ATOM     28  O   UNL     1      -1.178  -8.274   6.215  0.00  0.00    -0.274 OA
ATOM     29  N   UNL     1      -0.262  -7.935   8.207  0.00  0.00    -0.300 N 
ATOM     30  C   UNL     1      -0.026  -7.034   9.343  0.00  0.00    +0.108 C 
ATOM     31  C   UNL     1      -0.575  -7.689  10.614  0.00  0.00    +0.019 C 
ATOM     32  C   UNL     1       0.045  -9.079  10.775  0.00  0.00    +0.003 C 
ATOM     33  C   UNL     1      -0.338  -9.952   9.578  0.00  0.00    +0.019 C 
ATOM     34  C   UNL     1       0.208  -9.324   8.297  0.00  0.00    +0.108 C 
ENDBRANCH  26  27
BRANCH  26  35
ATOM     35  C   UNL     1      -2.645  -5.811   7.622  0.00  0.00    +0.067 C 
BRANCH  35  36
ATOM     36  C   UNL     1      -2.971  -4.339   7.592  0.00  0.00    -0.045 A 
ATOM     37  C   UNL     1      -2.591  -3.526   8.643  0.00  0.00    +0.004 A 
ATOM     38  C   UNL     1      -2.889  -2.176   8.616  0.00  0.00    +0.000 A 
ATOM     39  C   UNL     1      -3.568  -1.641   7.537  0.00  0.00    +0.000 A 
ATOM     40  C   UNL     1      -3.948  -2.454   6.486  0.00  0.00    +0.000 A 
ATOM     41  C   UNL     1      -3.645  -3.803   6.511  0.00  0.00    +0.004 A 
ENDBRANCH  35  36
ENDBRANCH  26  35
ENDBRANCH  24  26
ENDBRANCH   5  22
TORSDOF 6
