REMARK  Name = ZINC43466797
REMARK  7 active torsions:
REMARK  status: ('A' for Active; 'I' for Inactive)
REMARK    1  A    between atoms: C_1  and  N_2
REMARK    2  A    between atoms: N_2  and  C_3
REMARK    3  A    between atoms: N_2  and  C_4
REMARK    4  A    between atoms: C_4  and  C_6
REMARK    5  A    between atoms: C_4  and  C_21
REMARK    6  A    between atoms: C_6  and  N_7
REMARK    7  A    between atoms: N_10  and  C_11
REMARK                            x       y       z     vdW  Elec       q    Type
REMARK                         _______ _______ _______ _____ _____    ______ ____
ROOT
ATOM      1  N   UNL     1       0.044  -2.014   1.012  0.00  0.00    -0.301 N 
ATOM      2  C   UNL     1       0.458  -3.278   1.232  0.00  0.00    +0.300 C 
ATOM      3  O   UNL     1       0.107  -4.171   0.484  0.00  0.00    -0.253 OA
ATOM      4  N   UNL     1       1.260  -3.553   2.279  0.00  0.00    -0.294 N 
ATOM      5  H   UNL     1       0.325  -1.302   1.609  0.00  0.00    +0.150 HD
ATOM      6  H   UNL     1       1.540  -2.841   2.875  0.00  0.00    +0.151 HD
ENDROOT
BRANCH   4   7
ATOM      7  C   UNL     1       1.709  -4.927   2.518  0.00  0.00    +0.037 C 
ATOM      8  C   UNL     1       0.494  -5.830   2.736  0.00  0.00    +0.029 C 
ATOM      9  C   UNL     1       0.963  -7.265   2.985  0.00  0.00    -0.008 C 
ATOM     10  C   UNL     1       1.856  -7.301   4.227  0.00  0.00    +0.007 C 
ATOM     11  C   UNL     1       3.071  -6.398   4.008  0.00  0.00    -0.008 C 
ATOM     12  C   UNL     1       2.602  -4.963   3.760  0.00  0.00    +0.029 C 
ATOM     13  C   UNL     1       3.863  -6.893   2.796  0.00  0.00    +0.007 C 
ATOM     14  C   UNL     1       2.970  -6.857   1.554  0.00  0.00    -0.008 C 
ATOM     15  C   UNL     1       1.755  -7.760   1.773  0.00  0.00    +0.007 C 
ATOM     16  C   UNL     1       2.501  -5.422   1.306  0.00  0.00    +0.029 C 
ENDBRANCH   4   7
BRANCH   1  17
ATOM     17  C   UNL     1      -0.828  -1.716  -0.126  0.00  0.00    +0.095 C 
BRANCH  17  18
ATOM     18  C   UNL     1      -1.251  -0.247  -0.073  0.00  0.00    -0.014 C 
BRANCH  18  19
ATOM     19  C   UNL     1      -2.103  -0.013   1.148  0.00  0.00    -0.022 A 
ATOM     20  C   UNL     1      -1.753   0.526   2.342  0.00  0.00    +0.009 A 
ATOM     21  C   UNL     1      -2.712   0.645   3.330  0.00  0.00    +0.008 A 
ATOM     22  C   UNL     1      -3.974   0.219   3.076  0.00  0.00    +0.045 A 
ATOM     23  S   UNL     1      -3.835  -0.366   1.395  0.00  0.00    -0.103 S 
ENDBRANCH  18  19
BRANCH  18  25
ATOM     24  C   UNL     1      -2.489   1.475  -1.195  0.00  0.00    -0.096 C 
ATOM     25  N   UNL     1      -2.022   0.085  -1.279  0.00  0.00    +0.382 N 
ATOM     26  C   UNL     1      -1.170  -0.075  -2.465  0.00  0.00    -0.096 C 
ATOM     27  H   UNL     1      -2.817  -0.533  -1.350  0.00  0.00    -0.082 HD
ENDBRANCH  18  25
ENDBRANCH  17  18
ENDBRANCH   1  17
TORSDOF 5
