REMARK  Name = ZINC05446652
REMARK  5 active torsions:
REMARK  status: ('A' for Active; 'I' for Inactive)
REMARK    1  A    between atoms: C_1  and  C_2
REMARK    2  A    between atoms: C_2  and  C_3
REMARK    3  A    between atoms: C_3  and  N_13
REMARK    4  A    between atoms: N_13  and  N_14
REMARK    5  A    between atoms: C_15  and  C_17
REMARK                            x       y       z     vdW  Elec       q    Type
REMARK                         _______ _______ _______ _____ _____    ______ ____
ROOT
ATOM      1  N   UNL     1       0.046  -0.616  -2.449  0.00  0.00    -0.268 N 
ATOM      2  H   UNL     1       0.496  -0.973  -3.230  0.00  0.00    +0.170 HD
ENDROOT
BRANCH   1   3
ATOM      3  C   UNL     1       0.703  -0.515  -1.283  0.00  0.00    +0.033 C 
ATOM      4  C   UNL     1       2.064  -0.823  -1.220  0.00  0.00    +0.043 C 
ATOM      5  C   UNL     1       2.802  -0.597  -0.037  0.00  0.00    +0.033 C 
ATOM      6  C   UNL     1       4.126  -0.903   0.005  0.00  0.00    +0.043 C 
ATOM      7  C   UNL     1       4.784  -1.440  -1.099  0.00  0.00    +0.044 C 
ATOM      8  C   UNL     1       4.131  -1.682  -2.269  0.00  0.00    +0.090 C 
ATOM      9  C   UNL     1       2.758  -1.395  -2.381  0.00  0.00    +0.206 C 
ATOM     10  O   UNL     1       2.157  -1.613  -3.424  0.00  0.00    -0.286 OA
ATOM     11 CL   UNL     1       4.990  -2.352  -3.620  0.00  0.00    -0.080 Cl
ATOM     12 CL   UNL     1       5.016  -0.618   1.468  0.00  0.00    -0.083 Cl
BRANCH   3  14
ATOM     13  C   UNL     1      -0.057   1.458   0.011  0.00  0.00    +0.010 C 
ATOM     14  C   UNL     1      -0.027  -0.070  -0.043  0.00  0.00    +0.049 C 
ENDBRANCH   3  14
ENDBRANCH   1   3
BRANCH   1  15
ATOM     15  N   UNL     1      -1.290  -0.204  -2.537  0.00  0.00    -0.233 N 
ATOM     16  C   UNL     1      -1.982  -0.400  -3.678  0.00  0.00    +0.260 C 
ATOM     17  O   UNL     1      -1.421  -0.848  -4.659  0.00  0.00    -0.269 OA
ATOM     18  H   UNL     1      -1.718   0.221  -1.777  0.00  0.00    +0.173 HD
BRANCH  16  19
ATOM     19  C   UNL     1      -3.420  -0.069  -3.735  0.00  0.00    +0.038 A 
ATOM     20  C   UNL     1      -4.041   0.550  -2.648  0.00  0.00    +0.016 A 
ATOM     21  C   UNL     1      -5.383   0.857  -2.707  0.00  0.00    +0.039 A 
ATOM     22  C   UNL     1      -6.117   0.552  -3.844  0.00  0.00    +0.123 A 
ATOM     23  C   UNL     1      -5.506  -0.063  -4.926  0.00  0.00    +0.039 A 
ATOM     24  C   UNL     1      -4.163  -0.368  -4.879  0.00  0.00    +0.016 A 
ATOM     25  F   UNL     1      -7.433   0.855  -3.896  0.00  0.00    -0.205 F 
ENDBRANCH  16  19
ENDBRANCH   1  15
TORSDOF 4
