REMARK  Name = ZINC67285583
REMARK  7 active torsions:
REMARK  status: ('A' for Active; 'I' for Inactive)
REMARK    1  A    between atoms: C_1  and  O_2
REMARK    2  A    between atoms: O_2  and  C_3
REMARK    3  A    between atoms: C_3  and  C_5
REMARK    4  A    between atoms: C_6  and  C_20
REMARK    5  A    between atoms: C_11  and  C_13
REMARK    6  A    between atoms: C_20  and  N_21
REMARK    7  A    between atoms: N_24  and  C_27
REMARK                            x       y       z     vdW  Elec       q    Type
REMARK                         _______ _______ _______ _____ _____    ______ ____
ROOT
ATOM      1  C   UNL     1      -1.376  -2.198  -0.671  0.00  0.00    +0.079 C 
ATOM      2  C   UNL     1      -2.396  -2.654   0.088  0.00  0.00    +0.038 C 
ATOM      3  N   UNL     1      -2.305  -3.846   0.748  0.00  0.00    -0.271 N 
ATOM      4  C   UNL     1      -1.229  -4.641   0.701  0.00  0.00    +0.304 C 
ATOM      5  O   UNL     1      -1.241  -5.685   1.323  0.00  0.00    -0.252 OA
ATOM      6  N   UNL     1      -0.132  -4.322  -0.015  0.00  0.00    -0.288 N 
ATOM      7  C   UNL     1      -0.132  -3.057  -0.769  0.00  0.00    +0.144 C 
ATOM      8  H   UNL     1      -3.063  -4.133   1.282  0.00  0.00    +0.156 HD
ATOM      9  H   UNL     1       0.637  -4.912  -0.035  0.00  0.00    +0.151 HD
ENDROOT
BRANCH   7  10
ATOM     10  C   UNL     1       1.038  -2.237  -0.291  0.00  0.00    -0.021 A 
ATOM     11  C   UNL     1       1.271  -2.090   1.064  0.00  0.00    +0.006 A 
ATOM     12  C   UNL     1       2.344  -1.338   1.504  0.00  0.00    +0.002 A 
ATOM     13  C   UNL     1       3.184  -0.731   0.589  0.00  0.00    +0.020 A 
ATOM     14  C   UNL     1       2.951  -0.877  -0.767  0.00  0.00    +0.041 A 
ATOM     15  C   UNL     1       1.881  -1.635  -1.206  0.00  0.00    +0.025 A 
ATOM     16 CL   UNL     1       4.006  -0.115  -1.916  0.00  0.00    -0.084 Cl
ENDBRANCH   7  10
BRANCH   1  17
ATOM     17  C   UNL     1      -1.469  -0.964  -1.356  0.00  0.00    +0.339 C 
ATOM     18  O   UNL     1      -2.519  -0.349  -1.361  0.00  0.00    -0.245 OA
BRANCH  17  20
ATOM     19  C   UNL     1      -0.559   0.782  -2.673  0.00  0.00    +0.280 C 
ATOM     20  O   UNL     1      -0.393  -0.469  -2.003  0.00  0.00    -0.465 OA
ENDBRANCH  17  20
ENDBRANCH   1  17
BRANCH   2  21
ATOM     21  C   UNL     1      -3.654  -1.833   0.209  0.00  0.00    +0.135 C 
BRANCH  21  22
ATOM     22  N   UNL     1      -4.545  -2.133  -0.920  0.00  0.00    -0.300 NA
ATOM     23  C   UNL     1      -5.133  -3.473  -0.785  0.00  0.00    +0.066 C 
ATOM     24  C   UNL     1      -6.005  -3.770  -2.007  0.00  0.00    -0.063 C 
ATOM     25  N   UNL     1      -7.065  -2.758  -2.109  0.00  0.00    +0.383 N 
ATOM     26  C   UNL     1      -6.462  -1.428  -2.268  0.00  0.00    -0.063 C 
ATOM     27  C   UNL     1      -5.595  -1.113  -1.048  0.00  0.00    +0.066 C 
ATOM     28  H   UNL     1      -7.627  -2.775  -1.272  0.00  0.00    -0.081 HD
BRANCH  25  29
ATOM     29  C   UNL     1      -7.913  -3.054  -3.272  0.00  0.00    -0.068 C 
ATOM     30  C   UNL     1      -8.543  -4.438  -3.107  0.00  0.00    -0.015 C 
ATOM     31  C   UNL     1      -9.425  -4.745  -4.318  0.00  0.00    -0.002 C 
ATOM     32  C   UNL     1     -10.530  -3.692  -4.425  0.00  0.00    -0.000 C 
ATOM     33  C   UNL     1      -9.900  -2.308  -4.590  0.00  0.00    -0.002 C 
ATOM     34  C   UNL     1      -9.018  -2.000  -3.379  0.00  0.00    -0.015 C 
ENDBRANCH  25  29
ENDBRANCH  21  22
ENDBRANCH   2  21
TORSDOF 6
