REMARK  Name = ZINC40058016
REMARK  10 active torsions:
REMARK  status: ('A' for Active; 'I' for Inactive)
REMARK    1  A    between atoms: C_1  and  C_2
REMARK    2  A    between atoms: C_4  and  C_36
REMARK    3  A    between atoms: C_13  and  C_27
REMARK    4  A    between atoms: N_15  and  C_18
REMARK    5  A    between atoms: C_18  and  C_19
REMARK    6  A    between atoms: C_22  and  O_25
REMARK    7  A    between atoms: O_25  and  C_26
REMARK    8  A    between atoms: C_30  and  O_35
REMARK    9  A    between atoms: C_31  and  O_33
REMARK   10  A    between atoms: O_33  and  C_34
REMARK                            x       y       z     vdW  Elec       q    Type
REMARK                         _______ _______ _______ _____ _____    ______ ____
ROOT
ATOM      1  C   UNL     1      -0.523   1.450   0.038  0.00  0.00    +0.044 C 
ATOM      2  C   UNL     1      -0.237  -0.029   0.015  0.00  0.00    -0.047 A 
ATOM      3  C   UNL     1      -0.233  -0.708  -1.195  0.00  0.00    +0.007 A 
ATOM      4  C   UNL     1       0.027  -2.050  -1.231  0.00  0.00    -0.036 A 
ATOM      5  C   UNL     1       0.289  -2.735  -0.045  0.00  0.00    +0.067 A 
ATOM      6  C   UNL     1       0.282  -2.060   1.186  0.00  0.00    +0.140 A 
ATOM      7  C   UNL     1       0.022  -0.690   1.195  0.00  0.00    +0.050 A 
ATOM      8  O   UNL     1       0.518  -2.692   2.358  0.00  0.00    -0.450 OA
ATOM      9  C   UNL     1       1.001  -3.950   2.351  0.00  0.00    +0.199 A 
ATOM     10  C   UNL     1       1.051  -4.714   1.220  0.00  0.00    +0.072 A 
ATOM     11  C   UNL     1       0.581  -4.191  -0.067  0.00  0.00    +0.199 A 
ATOM     12  O   UNL     1       0.444  -4.884  -1.060  0.00  0.00    -0.287 OA
ATOM     13  C   UNL     1       1.631  -6.039   1.591  0.00  0.00    +0.145 C 
ATOM     14  N   UNL     1       1.915  -5.964   3.033  0.00  0.00    -0.279 N 
ATOM     15  C   UNL     1       1.545  -4.742   3.468  0.00  0.00    +0.283 C 
ATOM     16  O   UNL     1       1.646  -4.351   4.614  0.00  0.00    -0.267 OA
ATOM     17  C   UNL     1       0.031  -2.784  -2.547  0.00  0.00    +0.044 C 
ENDROOT
BRANCH  13  18
ATOM     18  C   UNL     1       2.903  -6.284   0.821  0.00  0.00    -0.019 A 
ATOM     19  C   UNL     1       4.079  -5.679   1.222  0.00  0.00    +0.009 A 
ATOM     20  C   UNL     1       5.249  -5.900   0.519  0.00  0.00    +0.049 A 
ATOM     21  C   UNL     1       5.244  -6.729  -0.590  0.00  0.00    +0.158 A 
ATOM     22  C   UNL     1       4.060  -7.339  -0.994  0.00  0.00    +0.162 A 
ATOM     23  C   UNL     1       2.892  -7.117  -0.282  0.00  0.00    +0.055 A 
BRANCH  22  24
ATOM     24  O   UNL     1       4.050  -8.154  -2.083  0.00  0.00    -0.491 OA
ATOM     25  C   UNL     1       2.799  -8.745  -2.439  0.00  0.00    +0.277 C 
ENDBRANCH  22  24
BRANCH  21  26
ATOM     26  O   UNL     1       6.394  -6.947  -1.283  0.00  0.00    -0.503 OA
ATOM     27  H   UNL     1       6.906  -7.703  -0.967  0.00  0.00    +0.292 HD
ENDBRANCH  21  26
ENDBRANCH  13  18
BRANCH  14  28
ATOM     28  C   UNL     1       2.498  -7.029   3.853  0.00  0.00    +0.144 C 
BRANCH  28  29
ATOM     29  C   UNL     1       3.999  -6.900   3.851  0.00  0.00    -0.030 A 
ATOM     30  C   UNL     1       4.747  -7.544   2.883  0.00  0.00    +0.009 A 
ATOM     31  C   UNL     1       6.123  -7.428   2.880  0.00  0.00    +0.046 A 
ATOM     32  C   UNL     1       6.756  -6.662   3.849  0.00  0.00    +0.120 A 
ATOM     33  C   UNL     1       6.003  -6.016   4.819  0.00  0.00    +0.046 A 
ATOM     34  C   UNL     1       4.627  -6.132   4.815  0.00  0.00    +0.009 A 
BRANCH  32  35
ATOM     35  O   UNL     1       8.110  -6.546   3.848  0.00  0.00    -0.495 OA
ATOM     36  C   UNL     1       8.693  -5.742   4.875  0.00  0.00    +0.277 C 
ENDBRANCH  32  35
ENDBRANCH  28  29
ENDBRANCH  14  28
TORSDOF 6
