REMARK  Name = ZINC64538298
REMARK  9 active torsions:
REMARK  status: ('A' for Active; 'I' for Inactive)
REMARK    1  A    between atoms: C_1  and  C_2
REMARK    2  A    between atoms: C_7  and  C_8
REMARK    3  A    between atoms: N_9  and  C_19
REMARK    4  A    between atoms: C_12  and  C_15
REMARK    5  A    between atoms: C_19  and  C_21
REMARK    6  A    between atoms: C_19  and  C_22
REMARK    7  A    between atoms: N_24  and  C_25
REMARK    8  A    between atoms: C_25  and  C_26
REMARK    9  A    between atoms: C_26  and  C_27
REMARK                            x       y       z     vdW  Elec       q    Type
REMARK                         _______ _______ _______ _____ _____    ______ ____
ROOT
ATOM      1  C   UNL     1       0.242   1.499   0.072  0.00  0.00    +0.044 C 
ATOM      2  C   UNL     1       0.193  -0.007   0.047  0.00  0.00    -0.046 A 
ATOM      3  C   UNL     1       0.133  -0.676  -1.163  0.00  0.00    +0.028 A 
ATOM      4  C   UNL     1       0.087  -2.058  -1.182  0.00  0.00    +0.050 A 
ATOM      5  C   UNL     1       0.099  -2.777   0.015  0.00  0.00    +0.058 A 
ATOM      6  C   UNL     1       0.163  -2.100   1.222  0.00  0.00    +0.029 A 
ATOM      7  C   UNL     1       0.215  -0.717   1.233  0.00  0.00    -0.046 A 
ATOM      8  C   UNL     1       0.290   0.019   2.546  0.00  0.00    +0.044 C 
ATOM      9  N   UNL     1       0.041  -4.176  -0.018  0.00  0.00    -0.256 N 
ATOM     10  C   UNL     1       0.261  -4.845  -1.166  0.00  0.00    +0.250 C 
ATOM     11  O   UNL     1       0.163  -6.054  -1.183  0.00  0.00    -0.273 OA
ATOM     12  C   UNL     1       0.625  -4.109  -2.430  0.00  0.00    +0.262 C 
ATOM     13  N   UNL     1       0.032  -2.764  -2.391  0.00  0.00    -0.325 N 
ATOM     14  H   UNL     1      -0.385  -2.379  -3.177  0.00  0.00    +0.147 HD
ENDROOT
BRANCH  12  15
ATOM     15  C   UNL     1       2.147  -3.995  -2.535  0.00  0.00    +0.416 C 
ATOM     16  F   UNL     1       2.710  -5.276  -2.563  0.00  0.00    -0.168 F 
ATOM     17  F   UNL     1       2.484  -3.313  -3.709  0.00  0.00    -0.168 F 
ATOM     18  F   UNL     1       2.640  -3.294  -1.430  0.00  0.00    -0.168 F 
ENDBRANCH  12  15
BRANCH   9  19
ATOM     19  C   UNL     1      -0.261  -4.918   1.208  0.00  0.00    +0.164 C 
ATOM     20  C   UNL     1       0.882  -5.889   1.511  0.00  0.00    +0.038 C 
BRANCH  19  21
ATOM     21  C   UNL     1      -1.541  -5.692   1.023  0.00  0.00    +0.234 C 
ATOM     22  O   UNL     1      -2.142  -5.629  -0.028  0.00  0.00    -0.274 OA
ATOM     23  N   UNL     1      -2.018  -6.454   2.027  0.00  0.00    -0.313 N 
ATOM     24  H   UNL     1      -1.538  -6.504   2.869  0.00  0.00    +0.149 HD
BRANCH  23  25
ATOM     25  C   UNL     1      -3.263  -7.206   1.849  0.00  0.00    +0.108 C 
BRANCH  25  26
ATOM     26  C   UNL     1      -3.578  -7.982   3.129  0.00  0.00    +0.052 C 
BRANCH  26  27
ATOM     27  C   UNL     1      -4.858  -8.755   2.945  0.00  0.00    -0.040 C 
ATOM     28  C   UNL     1      -4.980 -10.049   2.567  0.00  0.00    -0.001 A 
ATOM     29  C   UNL     1      -3.995 -11.082   2.227  0.00  0.00    +0.010 A 
ATOM     30  C   UNL     1      -4.430 -12.314   1.878  0.00  0.00    +0.001 A 
ATOM     31  C   UNL     1      -5.795 -12.628   1.833  0.00  0.00    +0.002 A 
ATOM     32  C   UNL     1      -6.760 -11.732   2.132  0.00  0.00    +0.026 A 
ATOM     33  C   UNL     1      -6.416 -10.405   2.512  0.00  0.00    +0.043 A 
ATOM     34  N   UNL     1      -7.153  -9.373   2.843  0.00  0.00    -0.380 N 
ATOM     35  C   UNL     1      -6.267  -8.245   3.151  0.00  0.00    +0.144 C 
ATOM     36  H   UNL     1      -8.122  -9.359   2.881  0.00  0.00    +0.160 HD
ENDBRANCH  26  27
ENDBRANCH  25  26
ENDBRANCH  23  25
ENDBRANCH  19  21
ENDBRANCH   9  19
TORSDOF 6
