REMARK  Name = ZINC08695693
REMARK  11 active torsions:
REMARK  status: ('A' for Active; 'I' for Inactive)
REMARK    1  A    between atoms: C_1  and  N_2
REMARK    2  A    between atoms: N_2  and  C_3
REMARK    3  A    between atoms: N_2  and  C_4
REMARK    4  A    between atoms: C_7  and  N_10
REMARK    5  A    between atoms: C_11  and  C_13
REMARK    6  A    between atoms: C_13  and  C_15
REMARK    7  A    between atoms: C_13  and  N_25
REMARK    8  A    between atoms: N_25  and  C_26
REMARK    9  A    between atoms: C_26  and  C_27
REMARK   10  A    between atoms: C_34  and  C_36
REMARK   11  A    between atoms: C_36  and  N_37
REMARK                            x       y       z     vdW  Elec       q    Type
REMARK                         _______ _______ _______ _____ _____    ______ ____
ROOT
ATOM      1  C   UNL     1      -1.858   3.647   1.759  0.00  0.00    +0.195 C 
ENDROOT
BRANCH   1   2
ATOM      2  C   UNL     1      -2.138   4.959   1.072  0.00  0.00    +0.007 A 
ATOM      3  C   UNL     1      -2.561   5.124  -0.192  0.00  0.00    +0.089 A 
ATOM      4  N   UNL     1      -2.710   6.456  -0.464  0.00  0.00    -0.360 N 
ATOM      5  H   UNL     1      -3.007   6.822  -1.311  0.00  0.00    +0.165 HD
ATOM      6  C   UNL     1      -2.369   7.201   0.643  0.00  0.00    +0.047 A 
ATOM      7  C   UNL     1      -1.996   6.295   1.654  0.00  0.00    +0.005 A 
ATOM      8  C   UNL     1      -1.596   6.772   2.903  0.00  0.00    +0.010 A 
ATOM      9  C   UNL     1      -1.569   8.118   3.139  0.00  0.00    +0.001 A 
ATOM     10  C   UNL     1      -1.935   9.015   2.146  0.00  0.00    +0.002 A 
ATOM     11  C   UNL     1      -2.333   8.566   0.905  0.00  0.00    +0.026 A 
ENDBRANCH   1   2
BRANCH   1  13
ATOM     12  N   UNL     1       0.510   4.033   2.364  0.00  0.00    -0.284 N 
ATOM     13  C   UNL     1      -0.389   3.327   1.650  0.00  0.00    +0.242 C 
ATOM     14  O   UNL     1      -0.016   2.434   0.919  0.00  0.00    -0.273 OA
ATOM     15  H   UNL     1       0.207   4.692   3.008  0.00  0.00    +0.155 HD
BRANCH  12  19
ATOM     16  C   UNL     1       4.591   3.383   1.806  0.00  0.00    +0.029 A 
ATOM     17  C   UNL     1       4.119   4.667   2.044  0.00  0.00    +0.025 A 
ATOM     18  C   UNL     1       2.768   4.882   2.229  0.00  0.00    +0.025 A 
ATOM     19  C   UNL     1       1.881   3.814   2.176  0.00  0.00    +0.034 A 
ATOM     20  C   UNL     1       2.354   2.530   1.944  0.00  0.00    +0.025 A 
ATOM     21  C   UNL     1       3.704   2.315   1.753  0.00  0.00    +0.025 A 
BRANCH  16  23
ATOM     22  C   UNL     1       6.896   4.291   1.673  0.00  0.00    +0.129 C 
ATOM     23  N   UNL     1       5.960   3.165   1.618  0.00  0.00    -0.336 N 
ATOM     24  C   UNL     1       6.459   1.810   1.366  0.00  0.00    +0.129 C 
ENDBRANCH  16  23
ENDBRANCH  12  19
ENDBRANCH   1  13
BRANCH   1  25
ATOM     25  N   UNL     1      -2.638   2.584   1.121  0.00  0.00    -0.280 N 
ATOM     26  C   UNL     1      -3.595   1.940   1.817  0.00  0.00    +0.235 C 
ATOM     27  O   UNL     1      -3.747   2.173   2.998  0.00  0.00    -0.274 OA
BRANCH  25  28
ATOM     28  C   UNL     1      -2.378   2.222  -0.275  0.00  0.00    +0.144 C 
BRANCH  28  29
ATOM     29  C   UNL     1      -2.312   0.722  -0.400  0.00  0.00    -0.030 A 
ATOM     30  C   UNL     1      -1.160   0.049  -0.038  0.00  0.00    +0.008 A 
ATOM     31  C   UNL     1      -1.096  -1.326  -0.158  0.00  0.00    +0.038 A 
ATOM     32  C   UNL     1      -2.186  -2.030  -0.641  0.00  0.00    +0.123 A 
ATOM     33  C   UNL     1      -3.339  -1.355  -1.004  0.00  0.00    +0.038 A 
ATOM     34  C   UNL     1      -3.401   0.020  -0.883  0.00  0.00    +0.008 A 
ATOM     35  F   UNL     1      -2.124  -3.375  -0.759  0.00  0.00    -0.205 F 
ENDBRANCH  28  29
ENDBRANCH  25  28
BRANCH  26  36
ATOM     36  C   UNL     1      -4.477   0.930   1.129  0.00  0.00    +0.210 C 
BRANCH  36  37
ATOM     37  N   UNL     1      -5.545   0.513   2.041  0.00  0.00    -0.255 N 
ATOM     38  C   UNL     1      -6.785   1.140   2.137  0.00  0.00    +0.048 A 
ATOM     39  C   UNL     1      -7.315   2.233   1.463  0.00  0.00    +0.024 A 
ATOM     40  C   UNL     1      -8.596   2.670   1.746  0.00  0.00    +0.002 A 
ATOM     41  C   UNL     1      -9.368   2.027   2.700  0.00  0.00    +0.001 A 
ATOM     42  C   UNL     1      -8.861   0.938   3.380  0.00  0.00    +0.014 A 
ATOM     43  C   UNL     1      -7.569   0.491   3.103  0.00  0.00    +0.048 A 
ATOM     44  C   UNL     1      -6.751  -0.613   3.638  0.00  0.00    +0.250 C 
ATOM     45  O   UNL     1      -7.059  -1.417   4.493  0.00  0.00    -0.282 OA
ATOM     46  C   UNL     1      -5.455  -0.528   2.887  0.00  0.00    +0.292 C 
ATOM     47  O   UNL     1      -4.498  -1.262   3.022  0.00  0.00    -0.266 OA
ENDBRANCH  36  37
ENDBRANCH  26  36
ENDBRANCH   1  25
TORSDOF 9
