REMARK  Name = ZINC17170178
REMARK  5 active torsions:
REMARK  status: ('A' for Active; 'I' for Inactive)
REMARK    1  A    between atoms: C_3  and  S_6
REMARK    2  A    between atoms: S_6  and  N_9
REMARK    3  A    between atoms: N_9  and  C_10
REMARK    4  A    between atoms: N_19  and  S_20
REMARK    5  A    between atoms: S_20  and  C_23
REMARK                            x       y       z     vdW  Elec       q    Type
REMARK                         _______ _______ _______ _____ _____    ______ ____
ROOT
ATOM      1  C   UNL     1      -3.438   2.297   2.237  0.00  0.00    +0.048 A 
ATOM      2  C   UNL     1      -2.576   3.368   2.037  0.00  0.00    +0.026 A 
ATOM      3  C   UNL     1      -2.711   4.508   2.802  0.00  0.00    +0.027 A 
ATOM      4  C   UNL     1      -3.699   4.583   3.777  0.00  0.00    +0.055 A 
ATOM      5  C   UNL     1      -4.558   3.515   3.980  0.00  0.00    -0.023 A 
ATOM      6  C   UNL     1      -4.425   2.373   3.209  0.00  0.00    +0.030 A 
ATOM      7  C   UNL     1      -5.646   3.567   5.021  0.00  0.00    +0.039 C 
ATOM      8  C   UNL     1      -5.331   4.631   6.072  0.00  0.00    +0.025 C 
ATOM      9  C   UNL     1      -5.016   5.954   5.360  0.00  0.00    +0.132 C 
ATOM     10  N   UNL     1      -3.808   5.749   4.549  0.00  0.00    -0.202 N 
ENDROOT
BRANCH  10  11
ATOM     11  S   UNL     1      -2.595   6.877   4.546  0.00  0.00    +0.081 S 
ATOM     12  O   UNL     1      -2.814   7.712   5.675  0.00  0.00    -0.149 OA
ATOM     13  O   UNL     1      -1.381   6.167   4.348  0.00  0.00    -0.149 OA
BRANCH  11  14
ATOM     14  C   UNL     1      -2.827   7.887   3.121  0.00  0.00    +0.146 A 
ATOM     15  C   UNL     1      -3.545   9.030   2.992  0.00  0.00    +0.036 A 
ATOM     16  C   UNL     1      -3.584   9.661   1.763  0.00  0.00    +0.010 A 
ATOM     17  C   UNL     1      -2.904   9.119   0.723  0.00  0.00    +0.047 A 
ATOM     18  S   UNL     1      -2.169   7.676   1.474  0.00  0.00    -0.077 S 
ENDBRANCH  11  14
ENDBRANCH  10  11
BRANCH   1  19
ATOM     19  N   UNL     1      -3.308   1.139   1.460  0.00  0.00    -0.216 N 
ATOM     20  H   UNL     1      -3.325   0.267   1.884  0.00  0.00    +0.174 HD
BRANCH  19  21
ATOM     21  S   UNL     1      -3.125   1.260  -0.181  0.00  0.00    +0.079 S 
ATOM     22  O   UNL     1      -3.133  -0.068  -0.689  0.00  0.00    -0.149 OA
ATOM     23  O   UNL     1      -2.044   2.154  -0.404  0.00  0.00    -0.149 OA
BRANCH  21  26
ATOM     24  C   UNL     1      -6.054   3.766  -1.450  0.00  0.00    +0.010 A 
ATOM     25  C   UNL     1      -4.844   3.372  -0.912  0.00  0.00    +0.036 A 
ATOM     26  C   UNL     1      -4.569   2.048  -0.810  0.00  0.00    +0.146 A 
ATOM     27  S   UNL     1      -6.052   1.311  -1.478  0.00  0.00    -0.077 S 
ATOM     28  C   UNL     1      -6.934   2.817  -1.856  0.00  0.00    +0.047 A 
ENDBRANCH  21  26
ENDBRANCH  19  21
ENDBRANCH   1  19
TORSDOF 5
