REMARK  Name = ZINC21952913
REMARK  1 active torsions:
REMARK  status: ('A' for Active; 'I' for Inactive)
REMARK    1  A    between atoms: C_14  and  C_15
REMARK                            x       y       z     vdW  Elec       q    Type
REMARK                         _______ _______ _______ _____ _____    ______ ____
ROOT
ATOM      1  C   UNL     1      -5.133   1.039   3.447  0.00  0.00    +0.060 A 
ATOM      2  C   UNL     1      -4.328   1.014   2.303  0.00  0.00    +0.016 A 
ATOM      3  C   UNL     1      -4.899   0.685   1.046  0.00  0.00    +0.051 A 
ATOM      4  C   UNL     1      -6.272   0.391   0.977  0.00  0.00    +0.075 A 
ATOM      5  C   UNL     1      -7.037   0.424   2.109  0.00  0.00    +0.164 A 
ATOM      6  C   UNL     1      -6.466   0.747   3.350  0.00  0.00    +0.163 A 
ATOM      7  O   UNL     1      -7.228   0.774   4.477  0.00  0.00    -0.485 OA
ATOM      8  C   UNL     1      -8.646   0.842   4.294  0.00  0.00    +0.270 C 
ATOM      9  C   UNL     1      -9.043  -0.189   3.228  0.00  0.00    +0.270 C 
ATOM     10  O   UNL     1      -8.365   0.140   2.012  0.00  0.00    -0.485 OA
ATOM     11  N   UNL     1      -4.133   0.660  -0.042  0.00  0.00    -0.358 N 
ATOM     12  C   UNL     1      -2.841   0.930  -0.012  0.00  0.00    +0.020 A 
ATOM     13  C   UNL     1      -2.208   1.262   1.176  0.00  0.00    -0.013 A 
ATOM     14  C   UNL     1      -2.946   1.308   2.361  0.00  0.00    +0.077 A 
ATOM     15  C   UNL     1      -0.739   1.584   1.256  0.00  0.00    +0.038 C 
ATOM     16  C   UNL     1      -0.013   1.086   0.008  0.00  0.00    +0.005 C 
ATOM     17  C   UNL     1      -0.765   1.599  -1.225  0.00  0.00    +0.006 C 
ATOM     18  C   UNL     1      -2.096   0.858  -1.323  0.00  0.00    +0.053 C 
ATOM     19  H   UNL     1      -4.572   0.406  -1.018  0.00  0.00    +0.166 HD
ENDROOT
BRANCH  14  20
ATOM     20  C   UNL     1      -2.298   1.656   3.643  0.00  0.00    +0.387 C 
ATOM     21  O   UNL     1      -2.242   2.815   4.000  0.00  0.00    -0.241 OA
ATOM     22  O   UNL     1      -1.771   0.686   4.415  0.00  0.00    -0.241 OA
ENDBRANCH  14  20
TORSDOF 1
