REMARK  Name = ZINC05413195
REMARK  1 active torsions:
REMARK  status: ('A' for Active; 'I' for Inactive)
REMARK    1  A    between atoms: C_10  and  C_12
REMARK                            x       y       z     vdW  Elec       q    Type
REMARK                         _______ _______ _______ _____ _____    ______ ____
ROOT
ATOM      1  C   UNL     1      -0.019   1.525   0.010  0.00  0.00    +0.006 C 
ATOM      2  C   UNL     1       1.412   2.072  -0.000  0.00  0.00    +0.006 C 
ATOM      3  C   UNL     1       2.063   1.779   1.361  0.00  0.00    +0.044 C 
ATOM      4  C   UNL     1       1.795   0.354   1.710  0.00  0.00    +0.014 A 
ATOM      5  C   UNL     1       0.893  -0.488   1.140  0.00  0.00    +0.054 A 
ATOM      6  N   UNL     1       0.852  -1.721   1.637  0.00  0.00    -0.229 NA
ATOM      7  C   UNL     1       1.636  -2.107   2.623  0.00  0.00    +0.165 A 
ATOM      8  S   UNL     1       2.553  -0.665   2.946  0.00  0.00    -0.057 S 
ATOM      9  N   UNL     1       1.711  -3.345   3.245  0.00  0.00    -0.257 N 
ATOM     10  C   UNL     1       2.590  -3.544   4.247  0.00  0.00    +0.305 C 
ATOM     11  O   UNL     1       3.316  -2.640   4.606  0.00  0.00    -0.265 OA
ATOM     12  C   UNL     1       0.002  -0.004   0.002  0.00  0.00    +0.056 C 
ATOM     13  H   UNL     1       1.131  -4.068   2.958  0.00  0.00    +0.157 HD
ENDROOT
BRANCH  10  14
ATOM     14  C   UNL     1       2.671  -4.876   4.915  0.00  0.00    +0.305 C 
ATOM     15  O   UNL     1       1.944  -5.780   4.556  0.00  0.00    -0.265 OA
ATOM     16  N   UNL     1       3.549  -5.075   5.917  0.00  0.00    -0.257 N 
ATOM     17  C   UNL     1       3.624  -6.313   6.538  0.00  0.00    +0.165 A 
ATOM     18  N   UNL     1       2.925  -7.404   6.298  0.00  0.00    -0.229 NA
ATOM     19  C   UNL     1       3.113  -8.530   6.980  0.00  0.00    +0.054 A 
ATOM     20  C   UNL     1       4.063  -8.488   7.951  0.00  0.00    +0.014 A 
ATOM     21  S   UNL     1       4.659  -6.822   7.839  0.00  0.00    -0.057 S 
ATOM     22  C   UNL     1       4.481  -9.585   8.870  0.00  0.00    +0.044 C 
ATOM     23  C   UNL     1       3.420 -10.694   8.809  0.00  0.00    +0.006 C 
ATOM     24  C   UNL     1       3.097 -10.986   7.340  0.00  0.00    +0.006 C 
ATOM     25  C   UNL     1       2.330  -9.813   6.728  0.00  0.00    +0.056 C 
ATOM     26  H   UNL     1       4.130  -4.352   6.204  0.00  0.00    +0.157 HD
ENDBRANCH  10  14
TORSDOF 1
