REMARK  Name = ZINC06050552
REMARK  5 active torsions:
REMARK  status: ('A' for Active; 'I' for Inactive)
REMARK    1  A    between atoms: C_1  and  C_2
REMARK    2  A    between atoms: N_10  and  C_14
REMARK    3  A    between atoms: C_14  and  C_15
REMARK    4  A    between atoms: C_15  and  C_17
REMARK    5  A    between atoms: N_21  and  C_22
REMARK                            x       y       z     vdW  Elec       q    Type
REMARK                         _______ _______ _______ _____ _____    ______ ____
ROOT
ATOM      1  C   UNL     1      -0.019   1.526   0.010  0.00  0.00    +0.007 C 
ATOM      2  C   UNL     1       0.002  -0.004   0.002  0.00  0.00    -0.014 C 
ATOM      3  C   UNL     1       0.716  -0.497  -1.258  0.00  0.00    +0.006 C 
ATOM      4  C   UNL     1       0.727  -2.028  -1.271  0.00  0.00    +0.035 C 
ATOM      5  C   UNL     1       1.442  -2.543  -0.027  0.00  0.00    +0.113 C 
ATOM      6  C   UNL     1       0.753  -2.041   1.238  0.00  0.00    +0.035 C 
ATOM      7  C   UNL     1       0.742  -0.510   1.242  0.00  0.00    +0.006 C 
ATOM      8  C   UNL     1       1.495  -4.053  -0.035  0.00  0.00    +0.247 C 
ATOM      9  O   UNL     1       0.556  -4.821  -0.030  0.00  0.00    -0.273 OA
ATOM     10  N   UNL     1       2.807  -4.367  -0.051  0.00  0.00    -0.217 N 
ATOM     11  C   UNL     1       3.576  -3.272  -0.053  0.00  0.00    +0.310 C 
ATOM     12  O   UNL     1       4.791  -3.300  -0.065  0.00  0.00    -0.252 OA
ATOM     13  N   UNL     1       2.853  -2.136  -0.039  0.00  0.00    -0.285 N 
ATOM     14  H   UNL     1       3.196  -1.229  -0.038  0.00  0.00    +0.151 HD
ENDROOT
BRANCH  10  15
ATOM     15  C   UNL     1       3.325  -5.738  -0.062  0.00  0.00    +0.199 C 
BRANCH  15  16
ATOM     16  C   UNL     1       3.488  -6.201  -1.487  0.00  0.00    +0.197 C 
ATOM     17  O   UNL     1       3.199  -5.458  -2.404  0.00  0.00    -0.289 OA
BRANCH  16  18
ATOM     18  C   UNL     1       3.977  -7.499  -1.757  0.00  0.00    +0.086 A 
ATOM     19  C   UNL     1       4.339  -8.450  -0.818  0.00  0.00    +0.031 A 
ATOM     20  C   UNL     1       4.762  -9.578  -1.524  0.00  0.00    +0.020 A 
ATOM     21  C   UNL     1       4.655  -9.306  -2.848  0.00  0.00    +0.086 A 
ATOM     22  N   UNL     1       4.176  -8.054  -3.003  0.00  0.00    -0.347 N 
ATOM     23  C   UNL     1       3.915  -7.393  -4.284  0.00  0.00    +0.149 C 
ENDBRANCH  16  18
ENDBRANCH  15  16
ENDBRANCH  10  15
TORSDOF 3
