REMARK  Name = ZINC66923307
REMARK  10 active torsions:
REMARK  status: ('A' for Active; 'I' for Inactive)
REMARK    1  A    between atoms: C_1  and  C_2
REMARK    2  A    between atoms: C_5  and  C_8
REMARK    3  A    between atoms: C_14  and  C_17
REMARK    4  A    between atoms: N_19  and  C_20
REMARK    5  A    between atoms: C_20  and  C_22
REMARK    6  A    between atoms: C_20  and  C_23
REMARK    7  A    between atoms: N_25  and  C_26
REMARK    8  A    between atoms: C_26  and  C_27
REMARK    9  A    between atoms: C_26  and  C_28
REMARK   10  A    between atoms: C_26  and  C_29
REMARK                            x       y       z     vdW  Elec       q    Type
REMARK                         _______ _______ _______ _____ _____    ______ ____
ROOT
ATOM      1  C   UNL     1       0.059  -4.251  -0.021  0.00  0.00    +0.247 C 
ATOM      2  O   UNL     1      -0.045  -4.855  -1.071  0.00  0.00    -0.270 OA
ATOM      3  N   UNL     1       0.176  -4.930   1.137  0.00  0.00    -0.297 N 
ATOM      4  C   UNL     1       0.168  -4.221   2.424  0.00  0.00    +0.108 C 
ATOM      5  C   UNL     1      -0.907  -4.841   3.322  0.00  0.00    +0.020 C 
ATOM      6  C   UNL     1      -0.663  -6.348   3.436  0.00  0.00    +0.016 C 
ATOM      7  C   UNL     1      -0.764  -6.989   2.050  0.00  0.00    +0.092 C 
ATOM      8  C   UNL     1       0.306  -6.394   1.137  0.00  0.00    +0.120 C 
ENDROOT
BRANCH   1  13
ATOM      9  C   UNL     1       0.056   1.503   0.002  0.00  0.00    +0.044 C 
ATOM     10  C   UNL     1       0.057  -0.004  -0.004  0.00  0.00    -0.050 A 
ATOM     11  C   UNL     1       0.931  -0.695   0.816  0.00  0.00    +0.004 A 
ATOM     12  C   UNL     1       0.937  -2.075   0.815  0.00  0.00    +0.013 A 
ATOM     13  C   UNL     1       0.058  -2.773  -0.015  0.00  0.00    +0.037 A 
ATOM     14  C   UNL     1      -0.821  -2.069  -0.839  0.00  0.00    +0.013 A 
ATOM     15  C   UNL     1      -0.820  -0.689  -0.825  0.00  0.00    +0.004 A 
ENDBRANCH   1  13
BRANCH   7  16
ATOM     16  C   UNL     1      -0.557  -8.477   2.167  0.00  0.00    +0.218 C 
ATOM     17  O   UNL     1      -0.350  -8.977   3.253  0.00  0.00    -0.275 OA
ATOM     18  N   UNL     1      -0.603  -9.253   1.066  0.00  0.00    -0.304 N 
ATOM     19  H   UNL     1      -0.768  -8.853   0.198  0.00  0.00    +0.149 HD
BRANCH  18  20
ATOM     20  C   UNL     1      -0.402 -10.699   1.180  0.00  0.00    +0.156 C 
ATOM     21  C   UNL     1      -1.730 -11.373   1.531  0.00  0.00    +0.038 C 
BRANCH  20  22
ATOM     22  C   UNL     1       0.106 -11.241  -0.131  0.00  0.00    +0.233 C 
ATOM     23  O   UNL     1       0.282 -10.493  -1.069  0.00  0.00    -0.274 OA
ATOM     24  N   UNL     1       0.364 -12.557  -0.262  0.00  0.00    -0.309 N 
ATOM     25  H   UNL     1       0.223 -13.156   0.488  0.00  0.00    +0.149 HD
BRANCH  24  26
ATOM     26  C   UNL     1       0.857 -13.084  -1.537  0.00  0.00    +0.026 C 
ATOM     27  C   UNL     1       2.185 -12.411  -1.887  0.00  0.00    +0.031 C 
ATOM     28  C   UNL     1       1.067 -14.595  -1.418  0.00  0.00    +0.031 C 
ATOM     29  C   UNL     1      -0.166 -12.797  -2.638  0.00  0.00    +0.031 C 
ENDBRANCH  24  26
ENDBRANCH  20  22
ENDBRANCH  18  20
ENDBRANCH   7  16
TORSDOF 5
