REMARK  Name = ZINC42784396
REMARK  6 active torsions:
REMARK  status: ('A' for Active; 'I' for Inactive)
REMARK    1  A    between atoms: C_6  and  C_7
REMARK    2  A    between atoms: C_7  and  S_8
REMARK    3  A    between atoms: S_8  and  C_9
REMARK    4  A    between atoms: C_11  and  C_19
REMARK    5  A    between atoms: N_21  and  N_22
REMARK    6  A    between atoms: C_23  and  C_25
REMARK                            x       y       z     vdW  Elec       q    Type
REMARK                         _______ _______ _______ _____ _____    ______ ____
ROOT
ATOM      1  C   UNL     1      -3.393  -1.880  -0.968  0.00  0.00    +0.004 C 
ATOM      2  C   UNL     1      -4.508  -0.832  -0.965  0.00  0.00    +0.075 C 
ATOM      3  C   UNL     1      -5.403  -1.058  -2.190  0.00  0.00    -0.003 C 
ATOM      4  C   UNL     1      -5.972  -2.481  -2.117  0.00  0.00    -0.015 C 
ATOM      5  C   UNL     1      -4.811  -3.476  -2.083  0.00  0.00    -0.077 C 
ATOM      6  N   UNL     1      -3.535  -2.757  -2.133  0.00  0.00    +0.388 N 
ATOM      7  C   UNL     1      -3.421  -1.989  -3.375  0.00  0.00    -0.077 C 
ATOM      8  C   UNL     1      -4.535  -0.949  -3.451  0.00  0.00    -0.015 C 
ATOM      9  H   UNL     1      -2.788  -3.435  -2.116  0.00  0.00    -0.080 HD
ENDROOT
BRANCH   2  10
ATOM     10  C   UNL     1      -3.904   0.548  -1.026  0.00  0.00    +0.232 C 
ATOM     11  O   UNL     1      -4.234   1.317  -1.904  0.00  0.00    -0.274 OA
ATOM     12  N   UNL     1      -2.996   0.927  -0.104  0.00  0.00    -0.234 N 
ATOM     13  H   UNL     1      -2.674   0.288   0.550  0.00  0.00    +0.173 HD
BRANCH  12  14
ATOM     14  N   UNL     1      -2.519   2.244  -0.092  0.00  0.00    -0.230 N 
ATOM     15  C   UNL     1      -1.509   2.587   0.732  0.00  0.00    +0.262 C 
ATOM     16  O   UNL     1      -0.945   1.735   1.389  0.00  0.00    -0.269 OA
ATOM     17  H   UNL     1      -2.917   2.910  -0.675  0.00  0.00    +0.173 HD
BRANCH  15  18
ATOM     18  C   UNL     1      -1.087   3.999   0.834  0.00  0.00    +0.057 A 
ATOM     19  C   UNL     1      -1.737   4.982   0.084  0.00  0.00    +0.016 A 
ATOM     20  C   UNL     1      -1.339   6.298   0.184  0.00  0.00    +0.021 A 
ATOM     21  C   UNL     1      -0.295   6.647   1.027  0.00  0.00    +0.042 A 
ATOM     22  C   UNL     1       0.354   5.679   1.773  0.00  0.00    +0.040 A 
ATOM     23  C   UNL     1      -0.039   4.358   1.687  0.00  0.00    +0.054 A 
ATOM     24 CL   UNL     1       0.770   3.146   2.629  0.00  0.00    -0.083 Cl
ATOM     25 CL   UNL     1       0.200   8.307   1.147  0.00  0.00    -0.083 Cl
ENDBRANCH  15  18
ENDBRANCH  12  14
ENDBRANCH   2  10
BRANCH   1  26
ATOM     26  S   UNL     1      -1.783  -1.046  -1.036  0.00  0.00    -0.171 S 
BRANCH  26  27
ATOM     27  C   UNL     1      -0.647  -2.220  -0.246  0.00  0.00    +0.102 C 
BRANCH  27  33
ATOM     28  C   UNL     1       0.954  -0.752   0.998  0.00  0.00    +0.006 A 
ATOM     29  C   UNL     1       2.195  -0.163   1.147  0.00  0.00    +0.020 A 
ATOM     30  C   UNL     1       3.190  -0.399   0.215  0.00  0.00    +0.041 A 
ATOM     31  C   UNL     1       2.941  -1.224  -0.867  0.00  0.00    +0.020 A 
ATOM     32  C   UNL     1       1.699  -1.813  -1.015  0.00  0.00    +0.006 A 
ATOM     33  C   UNL     1       0.706  -1.577  -0.083  0.00  0.00    -0.038 A 
ATOM     34 CL   UNL     1       4.749   0.342   0.402  0.00  0.00    -0.084 Cl
ENDBRANCH  27  33
ENDBRANCH  26  27
ENDBRANCH   1  26
TORSDOF 6
