REMARK  Name = ZINC56075468
REMARK  6 active torsions:
REMARK  status: ('A' for Active; 'I' for Inactive)
REMARK    1  A    between atoms: C_1  and  O_2
REMARK    2  A    between atoms: O_2  and  C_3
REMARK    3  A    between atoms: C_6  and  S_9
REMARK    4  A    between atoms: S_9  and  N_12
REMARK    5  A    between atoms: N_12  and  C_13
REMARK    6  A    between atoms: C_13  and  C_14
REMARK                            x       y       z     vdW  Elec       q    Type
REMARK                         _______ _______ _______ _____ _____    ______ ____
ROOT
ATOM      1  C   UNL     1       4.580  -3.711  -3.097  0.00  0.00    +0.142 C 
ENDROOT
BRANCH   1   2
ATOM      2  C   UNL     1       6.053  -4.022  -3.157  0.00  0.00    -0.016 A 
ATOM      3  C   UNL     1       6.494  -5.232  -3.679  0.00  0.00    +0.009 A 
ATOM      4  C   UNL     1       7.855  -5.478  -3.716  0.00  0.00    +0.042 A 
ATOM      5  C   UNL     1       8.730  -4.511  -3.232  0.00  0.00    +0.099 A 
ATOM      6  N   UNL     1       8.271  -3.370  -2.742  0.00  0.00    -0.349 N 
ATOM      7  C   UNL     1       6.979  -3.106  -2.700  0.00  0.00    +0.089 A 
ATOM      8  N   UNL     1      10.100  -4.745  -3.263  0.00  0.00    -0.317 N 
ATOM      9  C   UNL     1      10.586  -5.930  -3.933  0.00  0.00    +0.106 C 
ATOM     10  C   UNL     1      10.643  -7.108  -2.930  0.00  0.00    +0.019 C 
ATOM     11  C   UNL     1      11.736  -6.906  -1.966  0.00  0.00    +0.002 C 
ATOM     12  C   UNL     1      11.578  -5.669  -1.087  0.00  0.00    +0.002 C 
ATOM     13  C   UNL     1      12.123  -4.465  -1.816  0.00  0.00    +0.019 C 
ATOM     14  C   UNL     1      10.999  -3.770  -2.614  0.00  0.00    +0.106 C 
ATOM     15  H   UNL     1       8.900  -2.710  -2.410  0.00  0.00    +0.167 HD
ENDBRANCH   1   2
BRANCH   1  16
ATOM     16  N   UNL     1       4.170  -3.049  -4.338  0.00  0.00    -0.186 NA
ATOM     17  H   UNL     1       4.839  -2.684  -4.937  0.00  0.00    +0.148 HD
BRANCH  16  18
ATOM     18  S   UNL     1       2.562  -2.924  -4.716  0.00  0.00    +0.059 S 
ATOM     19  O   UNL     1       2.002  -4.218  -4.546  0.00  0.00    -0.153 OA
ATOM     20  O   UNL     1       2.489  -2.218  -5.948  0.00  0.00    -0.153 OA
BRANCH  18  24
ATOM     21  C   UNL     1       0.652  -0.266  -1.587  0.00  0.00    +0.120 A 
ATOM     22  C   UNL     1       1.180   0.291  -2.743  0.00  0.00    +0.047 A 
ATOM     23  C   UNL     1       1.762  -0.522  -3.696  0.00  0.00    +0.032 A 
ATOM     24  C   UNL     1       1.819  -1.889  -3.499  0.00  0.00    +0.105 A 
ATOM     25  C   UNL     1       1.294  -2.446  -2.348  0.00  0.00    +0.032 A 
ATOM     26  C   UNL     1       0.716  -1.637  -1.389  0.00  0.00    +0.047 A 
BRANCH  21  28
ATOM     27  C   UNL     1       0.049   1.935  -0.919  0.00  0.00    +0.277 C 
ATOM     28  O   UNL     1       0.079   0.532  -0.648  0.00  0.00    -0.495 OA
ENDBRANCH  21  28
ENDBRANCH  18  24
ENDBRANCH  16  18
ENDBRANCH   1  16
TORSDOF 5
