REMARK  Name = ZINC66305744
REMARK  8 active torsions:
REMARK  status: ('A' for Active; 'I' for Inactive)
REMARK    1  A    between atoms: C_1  and  C_2
REMARK    2  A    between atoms: C_8  and  C_10
REMARK    3  A    between atoms: C_13  and  N_16
REMARK    4  A    between atoms: C_17  and  C_19
REMARK    5  A    between atoms: C_19  and  C_20
REMARK    6  A    between atoms: C_20  and  C_22
REMARK    7  A    between atoms: C_20  and  N_23
REMARK    8  A    between atoms: C_24  and  C_26
REMARK                            x       y       z     vdW  Elec       q    Type
REMARK                         _______ _______ _______ _____ _____    ______ ____
ROOT
ATOM      1  N   UNL     1       6.239  -4.553  -0.056  0.00  0.00    -0.285 N 
ATOM      2  C   UNL     1       7.370  -3.828  -0.154  0.00  0.00    +0.219 C 
ATOM      3  O   UNL     1       7.316  -2.616  -0.143  0.00  0.00    -0.275 OA
ATOM      4  H   UNL     1       6.286  -5.520   0.002  0.00  0.00    +0.155 HD
ENDROOT
BRANCH   1   8
ATOM      5  C   UNL     1       2.536  -2.643  -0.001  0.00  0.00    +0.001 A 
ATOM      6  C   UNL     1       2.674  -3.882  -0.628  0.00  0.00    +0.012 A 
ATOM      7  C   UNL     1       3.899  -4.511  -0.645  0.00  0.00    +0.024 A 
ATOM      8  C   UNL     1       4.998  -3.913  -0.038  0.00  0.00    +0.033 A 
ATOM      9  C   UNL     1       4.864  -2.678   0.588  0.00  0.00    +0.024 A 
ATOM     10  C   UNL     1       3.642  -2.042   0.603  0.00  0.00    +0.012 A 
BRANCH   5  18
ATOM     11  C   UNL     1      -0.160   1.188   1.331  0.00  0.00    +0.086 C 
ATOM     12  C   UNL     1      -0.064  -0.151   0.647  0.00  0.00    +0.107 A 
ATOM     13  N   UNL     1      -1.168  -0.680   0.082  0.00  0.00    -0.311 N 
ATOM     14  H   UNL     1      -2.008  -0.197   0.120  0.00  0.00    +0.170 HD
ATOM     15  C   UNL     1      -1.109  -1.877  -0.537  0.00  0.00    +0.252 A 
ATOM     16  O   UNL     1      -2.105  -2.361  -1.051  0.00  0.00    -0.268 OA
ATOM     17  C   UNL     1       0.121  -2.557  -0.579  0.00  0.00    +0.098 A 
ATOM     18  C   UNL     1       1.221  -1.964   0.019  0.00  0.00    +0.078 A 
ATOM     19  N   UNL     1       1.086  -0.765   0.613  0.00  0.00    -0.234 NA
ENDBRANCH   5  18
ENDBRANCH   1   8
BRANCH   2  20
ATOM     20  C   UNL     1       8.702  -4.521  -0.279  0.00  0.00    +0.118 C 
BRANCH  20  21
ATOM     21  C   UNL     1       9.815  -3.476  -0.373  0.00  0.00    +0.079 C 
ATOM     22  C   UNL     1      11.175  -4.177  -0.374  0.00  0.00    +0.028 C 
BRANCH  21  23
ATOM     23  N   UNL     1       9.661  -2.709  -1.612  0.00  0.00    -0.312 N 
ATOM     24  C   UNL     1      10.160  -1.460  -1.698  0.00  0.00    +0.216 C 
ATOM     25  O   UNL     1      10.737  -0.971  -0.750  0.00  0.00    -0.276 OA
ATOM     26  H   UNL     1       9.199  -3.100  -2.370  0.00  0.00    +0.149 HD
BRANCH  24  27
ATOM     27  C   UNL     1      10.001  -0.671  -2.972  0.00  0.00    +0.075 C 
ATOM     28  C   UNL     1      10.677  -1.419  -4.123  0.00  0.00    +0.013 C 
ATOM     29  C   UNL     1      10.516  -0.619  -5.416  0.00  0.00    +0.001 C 
ATOM     30  C   UNL     1      11.167   0.756  -5.250  0.00  0.00    +0.000 C 
ATOM     31  C   UNL     1      10.491   1.504  -4.099  0.00  0.00    +0.001 C 
ATOM     32  C   UNL     1      10.652   0.703  -2.805  0.00  0.00    +0.013 C 
ENDBRANCH  24  27
ENDBRANCH  21  23
ENDBRANCH  20  21
ENDBRANCH   2  20
TORSDOF 6
