REMARK  Name = ZINC09610621
REMARK  6 active torsions:
REMARK  status: ('A' for Active; 'I' for Inactive)
REMARK    1  A    between atoms: C_4  and  C_7
REMARK    2  A    between atoms: C_7  and  C_9
REMARK    3  A    between atoms: C_7  and  N_20
REMARK    4  A    between atoms: N_11  and  C_12
REMARK    5  A    between atoms: N_20  and  S_21
REMARK    6  A    between atoms: S_21  and  C_24
REMARK                            x       y       z     vdW  Elec       q    Type
REMARK                         _______ _______ _______ _____ _____    ______ ____
ROOT
ATOM      1  C   UNL     1       4.862   4.235  -0.234  0.00  0.00    +0.192 C 
ENDROOT
BRANCH   1   5
ATOM      2  C   UNL     1       6.931   2.980  -3.754  0.00  0.00    +0.000 A 
ATOM      3  C   UNL     1       7.301   2.481  -2.519  0.00  0.00    +0.000 A 
ATOM      4  C   UNL     1       6.632   2.887  -1.380  0.00  0.00    +0.006 A 
ATOM      5  C   UNL     1       5.592   3.793  -1.476  0.00  0.00    -0.020 A 
ATOM      6  C   UNL     1       5.218   4.288  -2.711  0.00  0.00    +0.006 A 
ATOM      7  C   UNL     1       5.891   3.886  -3.849  0.00  0.00    +0.000 A 
ENDBRANCH   1   5
BRANCH   1   8
ATOM      8  C   UNL     1       3.568   3.472  -0.113  0.00  0.00    +0.240 C 
ATOM      9  O   UNL     1       2.511   4.068  -0.101  0.00  0.00    -0.273 OA
ATOM     10  N   UNL     1       3.584   2.128  -0.019  0.00  0.00    -0.284 N 
ATOM     11  H   UNL     1       4.430   1.657   0.048  0.00  0.00    +0.155 HD
BRANCH  10  12
ATOM     12  C   UNL     1       2.382   1.411  -0.018  0.00  0.00    +0.035 A 
ATOM     13  C   UNL     1       2.271   0.240   0.720  0.00  0.00    +0.026 A 
ATOM     14  C   UNL     1       1.084  -0.466   0.719  0.00  0.00    +0.041 A 
ATOM     15  C   UNL     1       0.005  -0.008  -0.017  0.00  0.00    +0.142 A 
ATOM     16  C   UNL     1       0.113   1.160  -0.754  0.00  0.00    +0.078 A 
ATOM     17  C   UNL     1       1.299   1.869  -0.756  0.00  0.00    +0.046 A 
ATOM     18 CL   UNL     1      -1.242   1.732  -1.676  0.00  0.00    -0.081 Cl
ATOM     19  F   UNL     1      -1.155  -0.701  -0.017  0.00  0.00    -0.204 F 
ENDBRANCH  10  12
ENDBRANCH   1   8
BRANCH   1  20
ATOM     20  N   UNL     1       4.576   5.670  -0.320  0.00  0.00    -0.174 NA
ATOM     21  H   UNL     1       3.783   5.979  -0.785  0.00  0.00    +0.149 HD
BRANCH  20  22
ATOM     22  S   UNL     1       5.608   6.762   0.375  0.00  0.00    +0.059 S 
ATOM     23  O   UNL     1       5.079   8.052   0.100  0.00  0.00    -0.153 OA
ATOM     24  O   UNL     1       5.852   6.306   1.698  0.00  0.00    -0.153 OA
BRANCH  22  25
ATOM     25  C   UNL     1       7.141   6.652  -0.486  0.00  0.00    +0.106 A 
ATOM     26  C   UNL     1       8.116   5.773  -0.051  0.00  0.00    +0.030 A 
ATOM     27  C   UNL     1       9.317   5.681  -0.726  0.00  0.00    +0.025 A 
ATOM     28  C   UNL     1       9.549   6.480  -1.838  0.00  0.00    +0.037 A 
ATOM     29  C   UNL     1       8.571   7.365  -2.269  0.00  0.00    -0.024 A 
ATOM     30  C   UNL     1       7.370   7.450  -1.593  0.00  0.00    +0.034 A 
ATOM     31  C   UNL     1       8.823   8.232  -3.476  0.00  0.00    +0.046 C 
ATOM     32  C   UNL     1      10.302   8.613  -3.531  0.00  0.00    +0.101 C 
ATOM     33  C   UNL     1      11.155   7.386  -3.346  0.00  0.00    +0.218 C 
ATOM     34  O   UNL     1      12.205   7.290  -3.944  0.00  0.00    -0.275 OA
ATOM     35  N   UNL     1      10.765   6.396  -2.523  0.00  0.00    -0.285 N 
ATOM     36  H   UNL     1      11.332   5.617  -2.405  0.00  0.00    +0.155 HD
ENDBRANCH  22  25
ENDBRANCH  20  22
ENDBRANCH   1  20
TORSDOF 6
