REMARK  Name = ZINC16195639
REMARK  12 active torsions:
REMARK  status: ('A' for Active; 'I' for Inactive)
REMARK    1  A    between atoms: C_1  and  O_2
REMARK    2  A    between atoms: O_2  and  C_3
REMARK    3  A    between atoms: C_5  and  C_20
REMARK    4  A    between atoms: C_8  and  O_9
REMARK    5  A    between atoms: O_9  and  C_10
REMARK    6  A    between atoms: C_10  and  C_11
REMARK    7  A    between atoms: C_20  and  N_54
REMARK    8  A    between atoms: C_21  and  C_22
REMARK    9  A    between atoms: C_21  and  N_54
REMARK   10  A    between atoms: C_22  and  N_23
REMARK   11  A    between atoms: N_23  and  C_24
REMARK   12  A    between atoms: C_27  and  N_30
REMARK                            x       y       z     vdW  Elec       q    Type
REMARK                         _______ _______ _______ _____ _____    ______ ____
ROOT
ATOM      1  C   UNL     1      -0.787   2.893   1.346  0.00  0.00    +0.163 A 
ATOM      2  C   UNL     1      -0.259   3.751   0.395  0.00  0.00    +0.051 A 
ATOM      3  C   UNL     1      -0.367   5.119   0.561  0.00  0.00    -0.059 A 
ATOM      4  C   UNL     1      -1.002   5.635   1.675  0.00  0.00    +0.025 A 
ATOM      5  C   UNL     1      -1.532   4.784   2.629  0.00  0.00    +0.086 A 
ATOM      6  C   UNL     1      -1.431   3.411   2.465  0.00  0.00    +0.181 A 
ATOM      7 CL   UNL     1      -2.329   5.436   4.027  0.00  0.00    -0.080 Cl
ENDROOT
BRANCH   1   9
ATOM      8  C   UNL     1      -0.013   1.086   0.008  0.00  0.00    +0.277 C 
ATOM      9  O   UNL     1      -0.682   1.547   1.184  0.00  0.00    -0.491 OA
ENDBRANCH   1   9
BRANCH   6  10
ATOM     10  O   UNL     1      -1.956   2.573   3.399  0.00  0.00    -0.482 OA
BRANCH  10  11
ATOM     11  C   UNL     1      -1.101   2.184   4.476  0.00  0.00    +0.266 C 
BRANCH  11  12
ATOM     12  C   UNL     1      -1.850   1.261   5.403  0.00  0.00    +0.008 A 
ATOM     13  C   UNL     1      -3.163   0.925   5.132  0.00  0.00    +0.010 A 
ATOM     14  C   UNL     1      -3.850   0.079   5.982  0.00  0.00    +0.020 A 
ATOM     15  C   UNL     1      -3.223  -0.432   7.105  0.00  0.00    +0.042 A 
ATOM     16  C   UNL     1      -1.909  -0.096   7.377  0.00  0.00    +0.040 A 
ATOM     17  C   UNL     1      -1.220   0.747   6.522  0.00  0.00    +0.049 A 
ATOM     18 CL   UNL     1       0.431   1.164   6.859  0.00  0.00    -0.083 Cl
ATOM     19 CL   UNL     1      -4.086  -1.495   8.173  0.00  0.00    -0.083 Cl
ENDBRANCH  11  12
ENDBRANCH  10  11
ENDBRANCH   6  10
BRANCH   3  20
ATOM     20  C   UNL     1       0.208   6.050  -0.475  0.00  0.00    -0.047 C 
BRANCH  20  21
ATOM     21  N   UNL     1      -0.821   6.336  -1.493  0.00  0.00    +0.383 N 
ATOM     22  H   UNL     1      -1.631   6.775  -1.041  0.00  0.00    -0.085 HD
ATOM     23  H   UNL     1      -1.111   5.457  -1.937  0.00  0.00    -0.085 HD
BRANCH  21  24
ATOM     24  C   UNL     1      -0.284   7.247  -2.522  0.00  0.00    -0.063 C 
BRANCH  24  25
ATOM     25  C   UNL     1      -1.371   7.524  -3.561  0.00  0.00    +0.082 C 
BRANCH  25  26
ATOM     26  N   UNL     1      -0.846   8.429  -4.587  0.00  0.00    -0.346 N 
ATOM     27  H   UNL     1       0.067   8.750  -4.529  0.00  0.00    +0.146 HD
BRANCH  26  28
ATOM     28  C   UNL     1      -1.661   8.829  -5.649  0.00  0.00    +0.027 A 
ATOM     29  C   UNL     1      -2.968   8.366  -5.736  0.00  0.00    +0.025 A 
ATOM     30  C   UNL     1      -3.773   8.768  -6.784  0.00  0.00    +0.034 A 
ATOM     31  C   UNL     1      -3.275   9.622  -7.752  0.00  0.00    +0.126 A 
ATOM     32  C   UNL     1      -1.973  10.080  -7.671  0.00  0.00    +0.034 A 
ATOM     33  C   UNL     1      -1.165   9.686  -6.622  0.00  0.00    +0.025 A 
BRANCH  31  34
ATOM     34  N   UNL     1      -4.139  10.046  -8.876  0.00  0.00    +0.056 N 
ATOM     35  O   UNL     1      -3.703  10.799  -9.729  0.00  0.00    -0.126 OA
ATOM     36  O   UNL     1      -5.286   9.643  -8.949  0.00  0.00    -0.126 OA
ENDBRANCH  31  34
ENDBRANCH  26  28
ENDBRANCH  25  26
ENDBRANCH  24  25
ENDBRANCH  21  24
ENDBRANCH  20  21
ENDBRANCH   3  20
TORSDOF 11
