REMARK  Name = ZINC08858067
REMARK  8 active torsions:
REMARK  status: ('A' for Active; 'I' for Inactive)
REMARK    1  A    between atoms: C_1  and  C_2
REMARK    2  A    between atoms: C_2  and  C_3
REMARK    3  A    between atoms: C_3  and  N_4
REMARK    4  A    between atoms: N_4  and  C_5
REMARK    5  A    between atoms: C_6  and  C_17
REMARK    6  A    between atoms: C_13  and  C_16
REMARK    7  A    between atoms: N_21  and  C_25
REMARK    8  A    between atoms: C_25  and  C_26
REMARK                            x       y       z     vdW  Elec       q    Type
REMARK                         _______ _______ _______ _____ _____    ______ ____
ROOT
ATOM      1  C   UNL     1      -3.688   5.838   0.067  0.00  0.00    +0.037 C 
ATOM      2  C   UNL     1      -3.937   6.760   1.042  0.00  0.00    +0.077 C 
ATOM      3  C   UNL     1      -5.122   7.505   1.304  0.00  0.00    +0.259 C 
ATOM      4  O   UNL     1      -6.113   7.368   0.608  0.00  0.00    -0.269 OA
ATOM      5  N   UNL     1      -5.117   8.345   2.323  0.00  0.00    -0.251 N 
ATOM      6  C   UNL     1      -4.015   8.501   3.091  0.00  0.00    +0.121 C 
ATOM      7  S   UNL     1      -3.784   9.526   4.442  0.00  0.00    -0.027 S 
ATOM      8  S   UNL     1      -2.861   7.365   2.336  0.00  0.00    -0.061 S 
ENDROOT
BRANCH   1  10
ATOM      9  C   UNL     1      -1.278   6.167  -0.309  0.00  0.00    +0.134 A 
ATOM     10  C   UNL     1      -2.384   5.312  -0.093  0.00  0.00    +0.081 A 
ATOM     11  C   UNL     1      -2.154   3.917  -0.040  0.00  0.00    +0.267 A 
ATOM     12  O   UNL     1      -3.077   3.142   0.145  0.00  0.00    -0.267 OA
ATOM     13  N   UNL     1      -0.894   3.457  -0.197  0.00  0.00    -0.267 N 
ATOM     14  C   UNL     1      -0.663   2.114  -0.152  0.00  0.00    +0.096 A 
ATOM     15  C   UNL     1       0.587   1.621  -0.301  0.00  0.00    +0.019 A 
ATOM     16  C   UNL     1       1.665   2.491  -0.514  0.00  0.00    +0.008 A 
ATOM     17  C   UNL     1       1.444   3.835  -0.565  0.00  0.00    -0.007 A 
ATOM     18  C   UNL     1       0.138   4.330  -0.404  0.00  0.00    +0.145 A 
ATOM     19  N   UNL     1      -0.069   5.647  -0.455  0.00  0.00    -0.214 NA
ATOM     20  C   UNL     1       2.592   4.785  -0.794  0.00  0.00    +0.047 C 
BRANCH   9  21
ATOM     21  N   UNL     1      -1.458   7.532  -0.369  0.00  0.00    -0.328 N 
ATOM     22  H   UNL     1      -2.345   7.910  -0.261  0.00  0.00    +0.147 HD
BRANCH  21  23
ATOM     23  C   UNL     1      -0.309   8.413  -0.594  0.00  0.00    +0.102 C 
BRANCH  23  25
ATOM     24  C   UNL     1       0.420  10.789  -0.851  0.00  0.00    +0.005 C 
ATOM     25  C   UNL     1      -0.780   9.869  -0.616  0.00  0.00    +0.015 C 
ENDBRANCH  23  25
ENDBRANCH  21  23
ENDBRANCH   9  21
ENDBRANCH   1  10
BRANCH   5  26
ATOM     26  C   UNL     1      -6.322   9.123   2.623  0.00  0.00    +0.150 C 
BRANCH  26  27
ATOM     27  C   UNL     1      -6.280  10.425   1.865  0.00  0.00    -0.026 A 
ATOM     28  C   UNL     1      -6.826  10.502   0.597  0.00  0.00    +0.009 A 
ATOM     29  C   UNL     1      -6.790  11.693  -0.104  0.00  0.00    +0.050 A 
ATOM     30  C   UNL     1      -6.208  12.814   0.465  0.00  0.00    +0.166 A 
ATOM     31  C   UNL     1      -5.659  12.737   1.742  0.00  0.00    +0.167 A 
ATOM     32  C   UNL     1      -5.702  11.541   2.440  0.00  0.00    +0.054 A 
ATOM     33  O   UNL     1      -5.153  13.960   2.075  0.00  0.00    -0.453 OA
ATOM     34  C   UNL     1      -5.760  14.889   1.157  0.00  0.00    +0.466 C 
ATOM     35  O   UNL     1      -6.046  14.086  -0.003  0.00  0.00    -0.453 OA
ENDBRANCH  26  27
ENDBRANCH   5  26
TORSDOF 6
