REMARK  Name = ZINC16946582
REMARK  3 active torsions:
REMARK  status: ('A' for Active; 'I' for Inactive)
REMARK    1  A    between atoms: C_7  and  C_11
REMARK    2  A    between atoms: C_16  and  N_18
REMARK    3  A    between atoms: N_18  and  C_19
REMARK                            x       y       z     vdW  Elec       q    Type
REMARK                         _______ _______ _______ _____ _____    ______ ____
ROOT
ATOM      1  C   UNL     1       0.729  -3.349  -1.091  0.00  0.00    +0.030 C 
ATOM      2  C   UNL     1       1.228  -4.584  -0.809  0.00  0.00    +0.080 C 
ATOM      3  C   UNL     1       0.519  -5.846  -0.515  0.00  0.00    +0.276 C 
ATOM      4  O   UNL     1      -0.701  -5.909  -0.494  0.00  0.00    -0.267 OA
ATOM      5  N   UNL     1       1.271  -6.899  -0.277  0.00  0.00    -0.152 NA
ATOM      6  C   UNL     1       2.593  -6.844  -0.297  0.00  0.00    +0.175 C 
ATOM      7  S   UNL     1       2.925  -5.136  -0.700  0.00  0.00    -0.050 S 
ENDROOT
BRANCH   1  14
ATOM      8  C   UNL     1       0.039   1.162  -2.131  0.00  0.00    +0.001 A 
ATOM      9  C   UNL     1       1.232   1.850  -2.303  0.00  0.00    +0.002 A 
ATOM     10  C   UNL     1       2.441   1.204  -2.165  0.00  0.00    +0.026 A 
ATOM     11  C   UNL     1       2.472  -0.151  -1.851  0.00  0.00    +0.047 A 
ATOM     12  C   UNL     1       1.264  -0.846  -1.678  0.00  0.00    +0.007 A 
ATOM     13  C   UNL     1       0.050  -0.180  -1.820  0.00  0.00    +0.010 A 
ATOM     14  C   UNL     1       1.639  -2.236  -1.359  0.00  0.00    +0.001 A 
ATOM     15  C   UNL     1       3.006  -2.279  -1.363  0.00  0.00    +0.091 A 
ATOM     16  N   UNL     1       3.501  -1.050  -1.653  0.00  0.00    -0.360 N 
ATOM     17  H   UNL     1       4.444  -0.833  -1.713  0.00  0.00    +0.165 HD
ENDBRANCH   1  14
BRANCH   6  18
ATOM     18  N   UNL     1       3.492  -7.857  -0.068  0.00  0.00    -0.192 NA
BRANCH  18  19
ATOM     19  C   UNL     1       3.046  -9.178   0.030  0.00  0.00    +0.058 A 
ATOM     20  C   UNL     1       1.848  -9.554  -0.563  0.00  0.00    +0.045 A 
ATOM     21  C   UNL     1       1.409 -10.861  -0.465  0.00  0.00    +0.044 A 
ATOM     22  C   UNL     1       2.163 -11.795   0.225  0.00  0.00    +0.040 A 
ATOM     23  C   UNL     1       3.357 -11.423   0.817  0.00  0.00    +0.044 A 
ATOM     24  C   UNL     1       3.803 -10.118   0.716  0.00  0.00    +0.045 A 
ATOM     25 CL   UNL     1       4.299 -12.598   1.681  0.00  0.00    -0.083 Cl
ATOM     26 CL   UNL     1      -0.088 -11.332  -1.206  0.00  0.00    -0.083 Cl
ENDBRANCH  18  19
ENDBRANCH   6  18
TORSDOF 3
