REMARK  Name = ZINC11865257
REMARK  6 active torsions:
REMARK  status: ('A' for Active; 'I' for Inactive)
REMARK    1  A    between atoms: C_1  and  O_2
REMARK    2  A    between atoms: O_2  and  C_3
REMARK    3  A    between atoms: C_7  and  O_9
REMARK    4  A    between atoms: O_9  and  C_10
REMARK    5  A    between atoms: C_13  and  C_16
REMARK    6  A    between atoms: C_19  and  O_22
REMARK                            x       y       z     vdW  Elec       q    Type
REMARK                         _______ _______ _______ _____ _____    ______ ____
ROOT
ATOM      1  C   UNL     1       2.264  -2.851  -0.036  0.00  0.00    +0.127 A 
ATOM      2  C   UNL     1       1.091  -2.115  -0.020  0.00  0.00    +0.092 A 
ATOM      3  C   UNL     1       1.139  -0.728  -0.013  0.00  0.00    +0.145 A 
ATOM      4  C   UNL     1       2.389  -0.085  -0.021  0.00  0.00    +0.106 A 
ATOM      5  C   UNL     1       3.572  -0.835  -0.037  0.00  0.00    +0.138 A 
ATOM      6  C   UNL     1       3.502  -2.216  -0.045  0.00  0.00    +0.092 A 
ATOM      7  C   UNL     1       2.420   1.387  -0.013  0.00  0.00    +0.204 A 
ATOM      8  O   UNL     1       3.471   2.004  -0.019  0.00  0.00    -0.286 OA
ATOM      9  C   UNL     1       1.118   2.078   0.003  0.00  0.00    +0.064 A 
ATOM     10  C   UNL     1      -0.016   1.332   0.009  0.00  0.00    +0.208 A 
ATOM     11  O   UNL     1       0.002  -0.004   0.002  0.00  0.00    -0.462 OA
ENDROOT
BRANCH   9  12
ATOM     12  C   UNL     1       1.049   3.559   0.011  0.00  0.00    -0.011 A 
ATOM     13  C   UNL     1       1.795   4.288   0.935  0.00  0.00    +0.012 A 
ATOM     14  C   UNL     1       1.732   5.666   0.937  0.00  0.00    +0.046 A 
ATOM     15  C   UNL     1       0.919   6.326   0.026  0.00  0.00    +0.117 A 
ATOM     16  C   UNL     1       0.170   5.603  -0.892  0.00  0.00    +0.046 A 
ATOM     17  C   UNL     1       0.233   4.225  -0.902  0.00  0.00    +0.012 A 
BRANCH  15  18
ATOM     18  O   UNL     1       0.855   7.684   0.033  0.00  0.00    -0.507 OA
ATOM     19  H   UNL     1       0.166   8.042   0.609  0.00  0.00    +0.292 HD
ENDBRANCH  15  18
ENDBRANCH   9  12
BRANCH   1  21
ATOM     20  C   UNL     1       0.906  -4.801  -0.034  0.00  0.00    +0.277 C 
ATOM     21  O   UNL     1       2.206  -4.208  -0.044  0.00  0.00    -0.495 OA
ENDBRANCH   1  21
BRANCH   5  22
ATOM     22  O   UNL     1       4.777  -0.212  -0.045  0.00  0.00    -0.494 OA
ATOM     23  C   UNL     1       5.938  -1.045  -0.062  0.00  0.00    +0.277 C 
ENDBRANCH   5  22
TORSDOF 4
