REMARK  Name = ZINC03769872
REMARK  8 active torsions:
REMARK  status: ('A' for Active; 'I' for Inactive)
REMARK    1  A    between atoms: C_1  and  N_2
REMARK    2  A    between atoms: C_3  and  C_5
REMARK    3  A    between atoms: C_11  and  C_12
REMARK    4  A    between atoms: C_12  and  O_14
REMARK    5  A    between atoms: O_14  and  C_15
REMARK    6  A    between atoms: C_17  and  N_30
REMARK    7  A    between atoms: C_18  and  C_28
REMARK    8  A    between atoms: C_19  and  C_21
REMARK                            x       y       z     vdW  Elec       q    Type
REMARK                         _______ _______ _______ _____ _____    ______ ____
ROOT
ATOM      1  C   UNL     1      -4.218   4.418   0.039  0.00  0.00    +0.057 C 
ATOM      2  C   UNL     1      -3.297   3.425  -0.032  0.00  0.00    +0.099 A 
ATOM      3  N   UNL     1      -3.604   2.078  -0.037  0.00  0.00    -0.257 N 
ATOM      4  C   UNL     1      -2.583   1.201  -0.113  0.00  0.00    +0.272 A 
ATOM      5  O   UNL     1      -2.786   0.004  -0.121  0.00  0.00    -0.266 OA
ATOM      6  C   UNL     1      -1.204   1.741  -0.185  0.00  0.00    +0.086 A 
ATOM      7  C   UNL     1      -0.021   1.079  -0.265  0.00  0.00    +0.112 C 
ATOM      8  S   UNL     1      -1.520   3.498  -0.129  0.00  0.00    -0.065 S 
ATOM      9  C   UNL     1      -4.946   1.684   0.035  0.00  0.00    +0.118 C 
ATOM     10  C   UNL     1      -5.979   2.552   0.110  0.00  0.00    +0.079 C 
ATOM     11  C   UNL     1      -5.683   4.038   0.118  0.00  0.00    +0.100 C 
ENDROOT
BRANCH  11  12
ATOM     12  C   UNL     1      -6.393   4.666  -1.053  0.00  0.00    -0.034 A 
ATOM     13  C   UNL     1      -6.095   4.259  -2.341  0.00  0.00    +0.007 A 
ATOM     14  C   UNL     1      -6.749   4.831  -3.415  0.00  0.00    +0.038 A 
ATOM     15  C   UNL     1      -7.695   5.820  -3.203  0.00  0.00    +0.123 A 
ATOM     16  C   UNL     1      -7.988   6.231  -1.913  0.00  0.00    +0.038 A 
ATOM     17  C   UNL     1      -7.337   5.653  -0.840  0.00  0.00    +0.007 A 
ATOM     18  F   UNL     1      -8.332   6.383  -4.253  0.00  0.00    -0.205 F 
ENDBRANCH  11  12
BRANCH   1  21
ATOM     19  C   UNL     1      -4.339   8.149   0.111  0.00  0.00    +0.128 C 
ATOM     20  N   UNL     1      -4.750   6.744   0.110  0.00  0.00    -0.315 N 
ATOM     21  C   UNL     1      -3.822   5.769   0.039  0.00  0.00    +0.243 C 
ATOM     22  O   UNL     1      -2.640   6.058  -0.025  0.00  0.00    -0.270 OA
ATOM     23  H   UNL     1      -5.691   6.514   0.162  0.00  0.00    +0.149 HD
ENDBRANCH   1  21
BRANCH   9  24
ATOM     24  N   UNL     1      -5.228   0.340   0.029  0.00  0.00    -0.343 N 
ATOM     25  H   UNL     1      -4.581  -0.293   0.378  0.00  0.00    +0.144 HD
ATOM     26  H   UNL     1      -6.074   0.023  -0.324  0.00  0.00    +0.144 HD
ENDBRANCH   9  24
BRANCH   7  27
ATOM     27  C   UNL     1       1.233   1.828  -0.333  0.00  0.00    +0.333 C 
ATOM     28  O   UNL     1       1.217   3.044  -0.311  0.00  0.00    -0.246 OA
BRANCH  27  29
ATOM     29  O   UNL     1       2.408   1.171  -0.418  0.00  0.00    -0.465 OA
ATOM     30  C   UNL     1       3.594   1.966  -0.481  0.00  0.00    +0.280 C 
ENDBRANCH  27  29
ENDBRANCH   7  27
BRANCH  10  31
ATOM     31  C   UNL     1      -7.327   2.076   0.181  0.00  0.00    +0.099 C 
ATOM     32  N   UNL     1      -8.397   1.699   0.236  0.00  0.00    -0.191 NA
ENDBRANCH  10  31
TORSDOF 6
