REMARK  Name = ZINC36000112
REMARK  10 active torsions:
REMARK  status: ('A' for Active; 'I' for Inactive)
REMARK    1  A    between atoms: C_1  and  C_2
REMARK    2  A    between atoms: C_2  and  O_3
REMARK    3  A    between atoms: O_3  and  C_4
REMARK    4  A    between atoms: C_4  and  C_6
REMARK    5  A    between atoms: C_7  and  C_22
REMARK    6  A    between atoms: N_8  and  C_21
REMARK    7  A    between atoms: C_12  and  C_14
REMARK    8  A    between atoms: C_22  and  N_23
REMARK    9  A    between atoms: C_27  and  C_30
REMARK   10  A    between atoms: C_31  and  C_33
REMARK                            x       y       z     vdW  Elec       q    Type
REMARK                         _______ _______ _______ _____ _____    ______ ____
ROOT
ATOM      1  C   UNL     1       1.026  -2.120  -0.039  0.00  0.00    +0.080 C 
ATOM      2  C   UNL     1       1.392  -3.296  -0.593  0.00  0.00    +0.041 C 
ATOM      3  N   UNL     1       2.170  -3.334  -1.715  0.00  0.00    -0.260 N 
ATOM      4  C   UNL     1       2.623  -2.242  -2.343  0.00  0.00    +0.307 C 
ATOM      5  O   UNL     1       3.310  -2.377  -3.336  0.00  0.00    -0.252 OA
ATOM      6  N   UNL     1       2.341  -0.997  -1.909  0.00  0.00    -0.288 N 
ATOM      7  C   UNL     1       1.502  -0.847  -0.708  0.00  0.00    +0.144 C 
ATOM      8  C   UNL     1       2.529  -4.645  -2.263  0.00  0.00    +0.139 C 
ATOM      9  H   UNL     1       2.680  -0.219  -2.378  0.00  0.00    +0.151 HD
ENDROOT
BRANCH   7  10
ATOM     10  C   UNL     1       0.288  -0.036  -1.081  0.00  0.00    -0.020 A 
ATOM     11  C   UNL     1      -0.431  -0.353  -2.219  0.00  0.00    +0.006 A 
ATOM     12  C   UNL     1      -1.545   0.390  -2.563  0.00  0.00    +0.003 A 
ATOM     13  C   UNL     1      -1.941   1.451  -1.770  0.00  0.00    +0.038 A 
ATOM     14  C   UNL     1      -1.222   1.768  -0.631  0.00  0.00    +0.124 A 
ATOM     15  C   UNL     1      -0.110   1.020  -0.284  0.00  0.00    +0.044 A 
ATOM     16  F   UNL     1      -1.608   2.805   0.145  0.00  0.00    -0.205 F 
ENDBRANCH   7  10
BRANCH   1  17
ATOM     17  C   UNL     1       0.220  -2.079   1.123  0.00  0.00    +0.339 C 
ATOM     18  O   UNL     1      -0.975  -1.867   1.027  0.00  0.00    -0.245 OA
BRANCH  17  19
ATOM     19  O   UNL     1       0.776  -2.274   2.337  0.00  0.00    -0.462 OA
BRANCH  19  21
ATOM     20  C   UNL     1       0.707  -2.462   4.745  0.00  0.00    +0.048 C 
ATOM     21  C   UNL     1      -0.098  -2.219   3.467  0.00  0.00    +0.229 C 
ENDBRANCH  19  21
ENDBRANCH  17  19
ENDBRANCH   1  17
BRANCH   2  22
ATOM     22  C   UNL     1       0.935  -4.587   0.037  0.00  0.00    +0.136 C 
BRANCH  22  23
ATOM     23  N   UNL     1       0.028  -5.286  -0.882  0.00  0.00    -0.294 NA
ATOM     24  C   UNL     1      -1.214  -4.525  -1.076  0.00  0.00    +0.104 C 
ATOM     25  C   UNL     1      -2.051  -5.191  -2.173  0.00  0.00    +0.124 C 
ATOM     26  N   UNL     1      -2.238  -6.607  -1.823  0.00  0.00    -0.292 N 
ATOM     27  C   UNL     1      -1.049  -7.402  -1.481  0.00  0.00    +0.087 C 
ATOM     28  C   UNL     1      -0.251  -6.649  -0.411  0.00  0.00    +0.107 C 
ATOM     29  C   UNL     1      -1.481  -8.767  -0.940  0.00  0.00    +0.029 C 
ATOM     30  C   UNL     1      -3.467  -7.162  -1.816  0.00  0.00    +0.247 C 
ATOM     31  O   UNL     1      -3.616  -8.302  -1.421  0.00  0.00    -0.270 OA
BRANCH  30  32
ATOM     32  C   UNL     1      -4.632  -6.384  -2.288  0.00  0.00    +0.037 A 
ATOM     33  C   UNL     1      -4.462  -5.375  -3.237  0.00  0.00    +0.013 A 
ATOM     34  C   UNL     1      -5.554  -4.653  -3.674  0.00  0.00    +0.001 A 
ATOM     35  C   UNL     1      -6.814  -4.927  -3.173  0.00  0.00    +0.000 A 
ATOM     36  C   UNL     1      -6.989  -5.926  -2.232  0.00  0.00    +0.001 A 
ATOM     37  C   UNL     1      -5.907  -6.660  -1.792  0.00  0.00    +0.013 A 
ENDBRANCH  30  32
ENDBRANCH  22  23
ENDBRANCH   2  22
TORSDOF 7
