REMARK  Name = ZINC39440785
REMARK  5 active torsions:
REMARK  status: ('A' for Active; 'I' for Inactive)
REMARK    1  A    between atoms: C_1  and  C_2
REMARK    2  A    between atoms: C_2  and  O_3
REMARK    3  A    between atoms: O_3  and  C_4
REMARK    4  A    between atoms: C_11  and  N_14
REMARK    5  A    between atoms: C_15  and  C_17
REMARK                            x       y       z     vdW  Elec       q    Type
REMARK                         _______ _______ _______ _____ _____    ______ ____
ROOT
ATOM      1  N   UNL     1      -3.816  -7.193  -1.224  0.00  0.00    -0.284 N 
ATOM      2  C   UNL     1      -4.998  -7.834  -1.323  0.00  0.00    +0.247 C 
ATOM      3  O   UNL     1      -5.757  -7.857  -0.375  0.00  0.00    -0.270 OA
ATOM      4  H   UNL     1      -3.178  -7.237  -1.953  0.00  0.00    +0.152 HD
ENDROOT
BRANCH   2   5
ATOM      5  C   UNL     1      -5.371  -8.511  -2.589  0.00  0.00    +0.051 A 
ATOM      6  C   UNL     1      -4.481  -8.602  -3.620  0.00  0.00    +0.083 A 
ATOM      7  C   UNL     1      -4.878  -9.275  -4.855  0.00  0.00    +0.250 A 
ATOM      8  O   UNL     1      -4.084  -9.357  -5.775  0.00  0.00    -0.268 OA
ATOM      9  N   UNL     1      -6.106  -9.805  -4.990  0.00  0.00    -0.322 N 
ATOM     10  H   UNL     1      -6.344 -10.246  -5.820  0.00  0.00    +0.169 HD
ATOM     11  C   UNL     1      -7.033  -9.734  -3.973  0.00  0.00    +0.050 A 
ATOM     12  C   UNL     1      -6.706  -9.104  -2.759  0.00  0.00    +0.011 A 
ATOM     13  C   UNL     1      -7.651  -9.041  -1.730  0.00  0.00    +0.011 A 
ATOM     14  C   UNL     1      -8.886  -9.598  -1.907  0.00  0.00    +0.001 A 
ATOM     15  C   UNL     1      -9.211 -10.227  -3.101  0.00  0.00    +0.002 A 
ATOM     16  C   UNL     1      -8.300 -10.289  -4.133  0.00  0.00    +0.026 A 
ENDBRANCH   2   5
BRANCH   1  24
ATOM     17  C   UNL     1      -1.588  -1.796  -0.003  0.00  0.00    +0.122 A 
ATOM     18  C   UNL     1      -0.471  -2.618  -0.024  0.00  0.00    +0.047 A 
ATOM     19  C   UNL     1      -0.599  -3.987  -0.033  0.00  0.00    +0.027 A 
ATOM     20  C   UNL     1      -1.864  -4.602  -0.021  0.00  0.00    +0.043 A 
ATOM     21  C   UNL     1      -2.971  -3.749  -0.000  0.00  0.00    +0.035 A 
ATOM     22  C   UNL     1      -2.849  -2.378   0.015  0.00  0.00    +0.062 A 
ATOM     23  S   UNL     1      -4.387  -4.824   0.009  0.00  0.00    -0.082 S 
ATOM     24  C   UNL     1      -3.495  -6.431  -0.015  0.00  0.00    +0.224 C 
ATOM     25  N   UNL     1      -2.097  -5.979  -0.029  0.00  0.00    -0.316 N 
ATOM     26  H   UNL     1      -1.363  -6.614  -0.044  0.00  0.00    +0.149 HD
BRANCH  17  27
ATOM     27  O   UNL     1      -1.451  -0.443   0.006  0.00  0.00    -0.492 OA
BRANCH  27  29
ATOM     28  C   UNL     1      -0.165   1.604  -0.000  0.00  0.00    +0.048 C 
ATOM     29  C   UNL     1      -0.119   0.074  -0.013  0.00  0.00    +0.225 C 
ENDBRANCH  27  29
ENDBRANCH  17  27
ENDBRANCH   1  24
TORSDOF 4
