REMARK  Name = ZINC13988915
REMARK  7 active torsions:
REMARK  status: ('A' for Active; 'I' for Inactive)
REMARK    1  A    between atoms: C_1  and  C_2
REMARK    2  A    between atoms: C_2  and  C_3
REMARK    3  A    between atoms: C_2  and  C_4
REMARK    4  A    between atoms: C_4  and  C_5
REMARK    5  A    between atoms: N_7  and  C_8
REMARK    6  A    between atoms: C_11  and  C_14
REMARK    7  A    between atoms: N_16  and  N_17
REMARK                            x       y       z     vdW  Elec       q    Type
REMARK                         _______ _______ _______ _____ _____    ______ ____
ROOT
ATOM      1  C   UNL     1       5.814   6.052   0.116  0.00  0.00    +0.260 C 
ATOM      2  O   UNL     1       6.811   5.529   0.575  0.00  0.00    -0.269 OA
ATOM      3  N   UNL     1       4.607   5.482   0.304  0.00  0.00    -0.229 N 
ATOM      4  H   UNL     1       3.804   5.935   0.002  0.00  0.00    +0.173 HD
ENDROOT
BRANCH   3   5
ATOM      5  N   UNL     1       4.512   4.235   0.934  0.00  0.00    -0.217 N 
ATOM      6  C   UNL     1       3.318   3.617   1.030  0.00  0.00    +0.327 C 
ATOM      7  O   UNL     1       2.344   4.087   0.473  0.00  0.00    -0.250 OA
ATOM      8  N   UNL     1       3.202   2.480   1.744  0.00  0.00    -0.221 N 
ATOM      9  C   UNL     1       1.946   1.868   1.853  0.00  0.00    +0.057 A 
ATOM     10  C   UNL     1       0.801   2.640   1.974  0.00  0.00    +0.025 A 
ATOM     11  C   UNL     1      -0.435   2.030   2.083  0.00  0.00    +0.002 A 
ATOM     12  C   UNL     1      -0.539   0.652   2.081  0.00  0.00    +0.001 A 
ATOM     13  C   UNL     1       0.598  -0.129   1.955  0.00  0.00    +0.017 A 
ATOM     14  C   UNL     1       1.836   0.476   1.844  0.00  0.00    +0.035 A 
ATOM     15  S   UNL     1       3.303  -0.493   1.689  0.00  0.00    -0.086 S 
ATOM     16  C   UNL     1       4.527   0.557   2.407  0.00  0.00    +0.035 A 
ATOM     17  C   UNL     1       4.342   1.940   2.355  0.00  0.00    +0.057 A 
ATOM     18  C   UNL     1       5.296   2.775   2.915  0.00  0.00    +0.025 A 
ATOM     19  C   UNL     1       6.418   2.236   3.518  0.00  0.00    +0.002 A 
ATOM     20  C   UNL     1       6.597   0.866   3.568  0.00  0.00    +0.001 A 
ATOM     21  C   UNL     1       5.650   0.023   3.012  0.00  0.00    +0.017 A 
ATOM     22  H   UNL     1       5.305   3.816   1.302  0.00  0.00    +0.174 HD
ENDBRANCH   3   5
BRANCH   1  26
ATOM     23  C   UNL     1       6.133   9.676  -2.075  0.00  0.00    +0.033 A 
ATOM     24  C   UNL     1       7.283   9.021  -1.646  0.00  0.00    +0.024 A 
ATOM     25  C   UNL     1       7.183   7.846  -0.935  0.00  0.00    +0.015 A 
ATOM     26  C   UNL     1       5.925   7.312  -0.645  0.00  0.00    +0.038 A 
ATOM     27  C   UNL     1       4.772   7.969  -1.083  0.00  0.00    +0.015 A 
ATOM     28  C   UNL     1       4.879   9.147  -1.787  0.00  0.00    +0.024 A 
BRANCH  23  31
ATOM     29  C   UNL     1       7.212  11.749  -2.497  0.00  0.00    +0.217 C 
ATOM     30  O   UNL     1       8.047  11.473  -1.662  0.00  0.00    -0.275 OA
ATOM     31  N   UNL     1       6.238  10.866  -2.794  0.00  0.00    -0.285 N 
ATOM     32  H   UNL     1       5.610  11.059  -3.507  0.00  0.00    +0.155 HD
BRANCH  29  33
ATOM     33  C   UNL     1       7.264  13.080  -3.203  0.00  0.00    +0.099 C 
BRANCH  33  35
ATOM     34  C   UNL     1       9.757  13.175  -3.066  0.00  0.00    +0.008 C 
ATOM     35  C   UNL     1       8.457  13.886  -2.685  0.00  0.00    -0.008 C 
ATOM     36  C   UNL     1       8.438  15.283  -3.309  0.00  0.00    +0.008 C 
ENDBRANCH  33  35
ENDBRANCH  29  33
ENDBRANCH  23  31
ENDBRANCH   1  26
TORSDOF 5
