REMARK  Name = ZINC39566570
REMARK  7 active torsions:
REMARK  status: ('A' for Active; 'I' for Inactive)
REMARK    1  A    between atoms: C_1  and  C_2
REMARK    2  A    between atoms: C_2  and  C_3
REMARK    3  A    between atoms: C_12  and  C_13
REMARK    4  A    between atoms: C_13  and  C_15
REMARK    5  A    between atoms: C_15  and  O_16
REMARK    6  A    between atoms: O_16  and  C_17
REMARK    7  A    between atoms: C_17  and  C_19
REMARK                            x       y       z     vdW  Elec       q    Type
REMARK                         _______ _______ _______ _____ _____    ______ ____
ROOT
ATOM      1  C   UNL     1       8.852  -1.860  -3.247  0.00  0.00    +0.340 C 
ATOM      2  O   UNL     1       9.250  -1.516  -2.152  0.00  0.00    -0.245 OA
ENDROOT
BRANCH   1   3
ATOM      3  C   UNL     1       9.813  -2.295  -4.278  0.00  0.00    +0.060 A 
ATOM      4  C   UNL     1       9.370  -2.688  -5.545  0.00  0.00    +0.017 A 
ATOM      5  C   UNL     1      10.254  -3.093  -6.510  0.00  0.00    +0.025 A 
ATOM      6  C   UNL     1      11.639  -3.126  -6.257  0.00  0.00    +0.050 A 
ATOM      7  C   UNL     1      12.058  -2.729  -4.982  0.00  0.00    +0.038 A 
ATOM      8  C   UNL     1      11.187  -2.316  -4.007  0.00  0.00    +0.032 A 
ATOM      9  S   UNL     1      13.824  -2.908  -5.054  0.00  0.00    -0.051 S 
ATOM     10  C   UNL     1      13.937  -3.493  -6.731  0.00  0.00    +0.186 C 
ATOM     11  N   UNL     1      15.025  -3.813  -7.360  0.00  0.00    -0.110 NA
ATOM     12  S   UNL     1      14.916  -4.344  -8.932  0.00  0.00    +0.073 S 
ATOM     13  O   UNL     1      15.034  -3.172  -9.727  0.00  0.00    -0.151 OA
ATOM     14  O   UNL     1      15.868  -5.394  -9.034  0.00  0.00    -0.151 OA
ATOM     15  C   UNL     1      13.225  -5.008  -9.030  0.00  0.00    +0.212 C 
ATOM     16  C   UNL     1      12.251  -3.935  -8.537  0.00  0.00    +0.137 C 
ATOM     17  N   UNL     1      12.629  -3.518  -7.163  0.00  0.00    -0.276 N 
ENDBRANCH   1   3
BRANCH   1  18
ATOM     18  O   UNL     1       7.533  -1.844  -3.521  0.00  0.00    -0.453 OA
BRANCH  18  19
ATOM     19  C   UNL     1       6.659  -1.412  -2.476  0.00  0.00    +0.312 C 
BRANCH  19  20
ATOM     20  C   UNL     1       5.233  -1.460  -2.961  0.00  0.00    +0.202 C 
ATOM     21  O   UNL     1       4.989  -1.829  -4.092  0.00  0.00    -0.288 OA
BRANCH  20  31
ATOM     22  C   UNL     1       0.707  -0.490  -1.238  0.00  0.00    -0.024 A 
ATOM     23  C   UNL     1      -0.020  -0.816  -2.362  0.00  0.00    +0.005 A 
ATOM     24  C   UNL     1       0.616  -1.264  -3.510  0.00  0.00    +0.001 A 
ATOM     25  C   UNL     1       1.988  -1.389  -3.540  0.00  0.00    +0.011 A 
ATOM     26  C   UNL     1       2.735  -1.063  -2.412  0.00  0.00    +0.011 A 
ATOM     27  C   UNL     1       2.094  -0.604  -1.250  0.00  0.00    +0.050 A 
ATOM     28  N   UNL     1       3.068  -0.354  -0.306  0.00  0.00    -0.360 N 
ATOM     29  H   UNL     1       2.896  -0.030   0.592  0.00  0.00    +0.165 HD
ATOM     30  C   UNL     1       4.292  -0.623  -0.801  0.00  0.00    +0.095 A 
ATOM     31  C   UNL     1       4.177  -1.075  -2.098  0.00  0.00    +0.046 A 
BRANCH  22  33
ATOM     32  C   UNL     1      -0.019   1.526   0.010  0.00  0.00    +0.009 C 
ATOM     33  C   UNL     1       0.002  -0.004   0.002  0.00  0.00    +0.034 C 
ENDBRANCH  22  33
ENDBRANCH  20  31
ENDBRANCH  19  20
ENDBRANCH  18  19
ENDBRANCH   1  18
TORSDOF 6
