REMARK  Name = ZINC63491002
REMARK  7 active torsions:
REMARK  status: ('A' for Active; 'I' for Inactive)
REMARK    1  A    between atoms: C_1  and  C_2
REMARK    2  A    between atoms: C_9  and  C_13
REMARK    3  A    between atoms: C_13  and  O_14
REMARK    4  A    between atoms: O_14  and  C_15
REMARK    5  A    between atoms: C_18  and  C_22
REMARK    6  A    between atoms: C_23  and  C_24
REMARK    7  A    between atoms: C_23  and  C_26
REMARK                            x       y       z     vdW  Elec       q    Type
REMARK                         _______ _______ _______ _____ _____    ______ ____
ROOT
ATOM      1  C   UNL     1       2.353  -8.175  -1.085  0.00  0.00    +0.139 A 
ATOM      2  C   UNL     1       2.207  -8.562   0.242  0.00  0.00    +0.048 A 
ATOM      3  C   UNL     1       2.336  -9.887   0.593  0.00  0.00    +0.011 A 
ATOM      4  C   UNL     1       2.615 -10.845  -0.388  0.00  0.00    -0.022 A 
ATOM      5  C   UNL     1       2.761 -10.451  -1.722  0.00  0.00    +0.031 A 
ATOM      6  C   UNL     1       2.625  -9.123  -2.065  0.00  0.00    +0.083 A 
ATOM      7 CL   UNL     1       2.799  -8.633  -3.721  0.00  0.00    -0.080 Cl
ENDROOT
BRANCH   4   8
ATOM      8  C   UNL     1       2.754 -12.262  -0.018  0.00  0.00    +0.026 C 
ATOM      9  C   UNL     1       2.288 -13.223  -0.842  0.00  0.00    +0.072 C 
BRANCH   9  10
ATOM     10  C   UNL     1       2.574 -14.673  -0.545  0.00  0.00    +0.216 C 
ATOM     11  N   UNL     1       3.259 -15.295  -1.686  0.00  0.00    -0.359 N 
ATOM     12  C   UNL     1       2.502 -16.263  -2.115  0.00  0.00    +0.060 A 
ATOM     13  C   UNL     1       2.645 -17.233  -3.209  0.00  0.00    +0.027 A 
ATOM     14  C   UNL     1       1.675 -18.144  -3.422  0.00  0.00    +0.002 A 
ATOM     15  C   UNL     1       0.513 -18.212  -2.633  0.00  0.00    +0.002 A 
ATOM     16  C   UNL     1       0.282 -17.371  -1.605  0.00  0.00    +0.027 A 
ATOM     17  C   UNL     1       1.272 -16.335  -1.279  0.00  0.00    +0.060 A 
ATOM     18  N   UNL     1       1.316 -15.409  -0.366  0.00  0.00    -0.359 N 
ATOM     19  H   UNL     1       4.118 -15.032  -2.052  0.00  0.00    +0.162 HD
ATOM     20  H   UNL     1       0.642 -15.236   0.309  0.00  0.00    +0.162 HD
ENDBRANCH   9  10
BRANCH   9  21
ATOM     21  C   UNL     1       1.522 -12.867  -1.998  0.00  0.00    +0.099 C 
ATOM     22  N   UNL     1       0.914 -12.584  -2.915  0.00  0.00    -0.191 NA
ENDBRANCH   9  21
ENDBRANCH   4   8
BRANCH   1  23
ATOM     23  O   UNL     1       2.224  -6.867  -1.426  0.00  0.00    -0.485 OA
BRANCH  23  24
ATOM     24  C   UNL     1       1.945  -5.945  -0.370  0.00  0.00    +0.279 C 
BRANCH  24  32
ATOM     25  C   UNL     1       1.811   1.690  -1.280  0.00  0.00    +0.075 C 
ATOM     26  C   UNL     1       1.639   0.195  -1.201  0.00  0.00    +0.093 C 
ATOM     27  N   UNL     1       1.732  -0.676  -2.158  0.00  0.00    -0.173 NA
ATOM     28  N   UNL     1       1.540  -2.028  -1.966  0.00  0.00    -0.158 N 
ATOM     29  C   UNL     1       0.847  -2.348  -0.677  0.00  0.00    +0.250 C 
ATOM     30  S   UNL     1       1.266  -0.805   0.236  0.00  0.00    -0.065 S 
ATOM     31  N   UNL     1       1.571  -3.490  -0.101  0.00  0.00    -0.316 N 
ATOM     32  C   UNL     1       1.837  -4.552  -0.934  0.00  0.00    +0.049 C 
ATOM     33  C   UNL     1       2.001  -4.345  -2.257  0.00  0.00    +0.091 C 
ATOM     34  C   UNL     1       1.930  -3.038  -2.788  0.00  0.00    +0.263 C 
ATOM     35  O   UNL     1       2.179  -2.830  -3.962  0.00  0.00    -0.269 OA
ATOM     36  H   UNL     1       1.849  -3.494   0.828  0.00  0.00    +0.148 HD
ENDBRANCH  24  32
ENDBRANCH  23  24
ENDBRANCH   1  23
TORSDOF 6
