REMARK  Name = ZINC36813131
REMARK  6 active torsions:
REMARK  status: ('A' for Active; 'I' for Inactive)
REMARK    1  A    between atoms: C_1  and  N_2
REMARK    2  A    between atoms: C_3  and  C_5
REMARK    3  A    between atoms: C_5  and  N_6
REMARK    4  A    between atoms: N_6  and  C_7
REMARK    5  A    between atoms: N_6  and  C_8
REMARK    6  A    between atoms: C_17  and  N_18
REMARK                            x       y       z     vdW  Elec       q    Type
REMARK                         _______ _______ _______ _____ _____    ______ ____
ROOT
ATOM      1  C   UNL     1      -2.720  -2.598   1.697  0.00  0.00    +0.061 A 
ATOM      2  C   UNL     1      -2.519  -3.776   2.452  0.00  0.00    +0.022 A 
ATOM      3  C   UNL     1      -1.380  -4.573   2.270  0.00  0.00    +0.027 A 
ATOM      4  C   UNL     1      -1.221  -5.702   3.016  0.00  0.00    +0.019 A 
ATOM      5  C   UNL     1      -2.178  -6.075   3.959  0.00  0.00    +0.017 A 
ATOM      6  C   UNL     1      -3.295  -5.324   4.160  0.00  0.00    +0.027 A 
ATOM      7  C   UNL     1      -3.493  -4.152   3.409  0.00  0.00    +0.048 A 
ATOM      8  N   UNL     1      -4.582  -3.397   3.589  0.00  0.00    -0.359 N 
ATOM      9  C   UNL     1      -4.784  -2.300   2.897  0.00  0.00    +0.107 A 
ATOM     10  C   UNL     1      -3.872  -1.858   1.940  0.00  0.00    +0.063 A 
ATOM     11 BR   UNL     1       0.316  -6.776   2.769  0.00  0.00    -0.050 Br
ATOM     12  H   UNL     1      -5.241  -3.667   4.248  0.00  0.00    +0.165 HD
ENDROOT
BRANCH  10  13
ATOM     13  N   UNL     1      -4.116  -0.677   1.224  0.00  0.00    -0.355 N 
ATOM     14  H   UNL     1      -3.671  -0.523   0.376  0.00  0.00    +0.142 HD
ATOM     15  H   UNL     1      -4.731  -0.015   1.576  0.00  0.00    +0.142 HD
ENDBRANCH  10  13
BRANCH   1  16
ATOM     16  N   UNL     1      -1.791  -2.188   0.746  0.00  0.00    -0.322 N 
ATOM     17  C   UNL     1      -2.004  -2.502  -0.669  0.00  0.00    +0.130 C 
BRANCH  16  18
ATOM     18  C   UNL     1      -0.599  -1.443   1.159  0.00  0.00    +0.200 C 
BRANCH  18  21
ATOM     19  C   UNL     1      -0.171   2.361   1.252  0.00  0.00    +0.128 C 
ATOM     20  N   UNL     1       0.068   0.925   1.420  0.00  0.00    -0.317 N 
ATOM     21  C   UNL     1      -0.846   0.034   0.986  0.00  0.00    +0.230 C 
ATOM     22  O   UNL     1      -1.866   0.421   0.457  0.00  0.00    -0.274 OA
ATOM     23  H   UNL     1       0.884   0.616   1.843  0.00  0.00    +0.148 HD
ENDBRANCH  18  21
ENDBRANCH  16  18
ENDBRANCH   1  16
TORSDOF 4
