REMARK  Name = ZINC64220486
REMARK  13 active torsions:
REMARK  status: ('A' for Active; 'I' for Inactive)
REMARK    1  A    between atoms: C_1  and  N_2
REMARK    2  A    between atoms: N_2  and  C_3
REMARK    3  A    between atoms: N_2  and  C_4
REMARK    4  A    between atoms: C_4  and  C_6
REMARK    5  A    between atoms: C_4  and  C_33
REMARK    6  A    between atoms: C_6  and  N_7
REMARK    7  A    between atoms: C_8  and  C_10
REMARK    8  A    between atoms: C_10  and  C_12
REMARK    9  A    between atoms: C_10  and  N_22
REMARK   10  A    between atoms: C_12  and  C_13
REMARK   11  A    between atoms: C_23  and  O_25
REMARK   12  A    between atoms: O_25  and  C_26
REMARK   13  A    between atoms: C_26  and  C_27
REMARK                            x       y       z     vdW  Elec       q    Type
REMARK                         _______ _______ _______ _____ _____    ______ ____
ROOT
ATOM      1  C   UNL     1       2.347  -4.267   1.185  0.00  0.00    +0.166 C 
ENDROOT
BRANCH   1   3
ATOM      2  N   UNL     1       0.672  -2.716   0.233  0.00  0.00    -0.315 N 
ATOM      3  C   UNL     1       1.375  -3.859   0.108  0.00  0.00    +0.234 C 
ATOM      4  O   UNL     1       1.226  -4.559  -0.871  0.00  0.00    -0.274 OA
ATOM      5  H   UNL     1       0.791  -2.156   1.016  0.00  0.00    +0.149 HD
BRANCH   2   6
ATOM      6  C   UNL     1      -0.273  -2.320  -0.814  0.00  0.00    +0.093 C 
BRANCH   6   7
ATOM      7  C   UNL     1      -1.026  -1.063  -0.372  0.00  0.00    -0.021 C 
BRANCH   7   8
ATOM      8  C   UNL     1      -1.852  -1.376   0.849  0.00  0.00    -0.059 A 
ATOM      9  C   UNL     1      -3.067  -2.021   0.714  0.00  0.00    +0.002 A 
ATOM     10  C   UNL     1      -3.826  -2.308   1.833  0.00  0.00    +0.000 A 
ATOM     11  C   UNL     1      -3.369  -1.950   3.088  0.00  0.00    +0.000 A 
ATOM     12  C   UNL     1      -2.153  -1.306   3.223  0.00  0.00    +0.000 A 
ATOM     13  C   UNL     1      -1.393  -1.022   2.104  0.00  0.00    +0.002 A 
ENDBRANCH   7   8
BRANCH   7  15
ATOM     14  C   UNL     1      -2.678   0.555  -1.011  0.00  0.00    -0.096 C 
ATOM     15  N   UNL     1      -1.907  -0.613  -1.458  0.00  0.00    +0.382 N 
ATOM     16  C   UNL     1      -1.095  -0.246  -2.626  0.00  0.00    -0.096 C 
ATOM     17  H   UNL     1      -2.539  -1.358  -1.708  0.00  0.00    -0.082 HD
ENDBRANCH   7  15
ENDBRANCH   6   7
ENDBRANCH   2   6
ENDBRANCH   1   3
BRANCH   1  18
ATOM     18  N   UNL     1       2.980  -5.536   0.816  0.00  0.00    -0.270 N 
ATOM     19  C   UNL     1       4.215  -5.829   1.269  0.00  0.00    +0.401 C 
ATOM     20  O   UNL     1       4.804  -5.042   1.983  0.00  0.00    -0.226 OA
ATOM     21  H   UNL     1       2.510  -6.165   0.247  0.00  0.00    +0.153 HD
BRANCH  19  22
ATOM     22  O   UNL     1       4.797  -6.995   0.930  0.00  0.00    -0.446 OA
BRANCH  22  23
ATOM     23  C   UNL     1       6.107  -7.240   1.445  0.00  0.00    +0.269 C 
BRANCH  23  24
ATOM     24  C   UNL     1       6.593  -8.583   0.964  0.00  0.00    -0.010 A 
ATOM     25  C   UNL     1       6.333  -9.719   1.708  0.00  0.00    +0.007 A 
ATOM     26  C   UNL     1       6.779 -10.951   1.266  0.00  0.00    +0.000 A 
ATOM     27  C   UNL     1       7.484 -11.047   0.081  0.00  0.00    +0.000 A 
ATOM     28  C   UNL     1       7.743  -9.911  -0.663  0.00  0.00    +0.000 A 
ATOM     29  C   UNL     1       7.294  -8.680  -0.224  0.00  0.00    +0.007 A 
ENDBRANCH  23  24
ENDBRANCH  22  23
ENDBRANCH  19  22
ENDBRANCH   1  18
BRANCH   1  30
ATOM     30  C   UNL     1       1.600  -4.436   2.509  0.00  0.00    +0.065 C 
BRANCH  30  31
ATOM     31  C   UNL     1       0.530  -5.487   2.352  0.00  0.00    -0.039 C 
ATOM     32  C   UNL     1       0.632  -6.802   2.650  0.00  0.00    -0.001 A 
ATOM     33  C   UNL     1       1.728  -7.617   3.188  0.00  0.00    +0.010 A 
ATOM     34  C   UNL     1       1.526  -8.941   3.383  0.00  0.00    +0.001 A 
ATOM     35  C   UNL     1       0.300  -9.551   3.084  0.00  0.00    +0.002 A 
ATOM     36  C   UNL     1      -0.753  -8.868   2.587  0.00  0.00    +0.026 A 
ATOM     37  C   UNL     1      -0.652  -7.470   2.343  0.00  0.00    +0.043 A 
ATOM     38  N   UNL     1      -1.515  -6.602   1.873  0.00  0.00    -0.380 N 
ATOM     39  C   UNL     1      -0.876  -5.282   1.835  0.00  0.00    +0.144 C 
ATOM     40  H   UNL     1      -2.425  -6.799   1.601  0.00  0.00    +0.160 HD
ENDBRANCH  30  31
ENDBRANCH   1  30
TORSDOF 11
