REMARK  Name = ZINC12402727
REMARK  12 active torsions:
REMARK  status: ('A' for Active; 'I' for Inactive)
REMARK    1  A    between atoms: C_1  and  C_2
REMARK    2  A    between atoms: C_3  and  C_32
REMARK    3  A    between atoms: C_4  and  C_17
REMARK    4  A    between atoms: C_4  and  N_21
REMARK    5  A    between atoms: N_7  and  C_8
REMARK    6  A    between atoms: C_11  and  C_14
REMARK    7  A    between atoms: C_14  and  C_15
REMARK    8  A    between atoms: C_14  and  C_16
REMARK    9  A    between atoms: N_21  and  S_22
REMARK   10  A    between atoms: S_22  and  C_25
REMARK   11  A    between atoms: C_28  and  N_31
REMARK   12  A    between atoms: C_32  and  C_34
REMARK                            x       y       z     vdW  Elec       q    Type
REMARK                         _______ _______ _______ _____ _____    ______ ____
ROOT
ATOM      1  C   UNL     1       0.734   6.109  -1.233  0.00  0.00    +0.062 C 
ATOM      2  C   UNL     1       2.093   5.548  -0.904  0.00  0.00    +0.024 C 
ATOM      3  C   UNL     1       3.183   6.306  -0.657  0.00  0.00    +0.051 C 
ATOM      4  C   UNL     1       4.315   5.335  -0.383  0.00  0.00    +0.240 C 
ATOM      5  C   UNL     1       3.655   3.977  -0.515  0.00  0.00    +0.259 C 
ATOM      6  O   UNL     1       4.183   2.894  -0.378  0.00  0.00    -0.272 OA
ATOM      7  N   UNL     1       2.365   4.216  -0.816  0.00  0.00    -0.242 N 
ENDROOT
BRANCH   7   8
ATOM      8  C   UNL     1       1.412   3.210  -1.021  0.00  0.00    +0.041 A 
ATOM      9  C   UNL     1       0.396   3.015  -0.095  0.00  0.00    +0.024 A 
ATOM     10  C   UNL     1      -0.543   2.022  -0.300  0.00  0.00    +0.006 A 
ATOM     11  C   UNL     1      -0.468   1.219  -1.423  0.00  0.00    -0.045 A 
ATOM     12  C   UNL     1       0.540   1.415  -2.350  0.00  0.00    +0.006 A 
ATOM     13  C   UNL     1       1.481   2.406  -2.151  0.00  0.00    +0.024 A 
BRANCH  11  14
ATOM     14  C   UNL     1      -1.489   0.133  -1.641  0.00  0.00    +0.013 C 
ATOM     15  C   UNL     1      -2.232   0.386  -2.954  0.00  0.00    +0.012 C 
ATOM     16  C   UNL     1      -0.784  -1.224  -1.707  0.00  0.00    +0.012 C 
ENDBRANCH  11  14
ENDBRANCH   7   8
BRANCH   4  17
ATOM     17  C   UNL     1       4.863   5.533   1.032  0.00  0.00    +0.422 C 
ATOM     18  F   UNL     1       5.700   4.462   1.361  0.00  0.00    -0.168 F 
ATOM     19  F   UNL     1       5.589   6.727   1.089  0.00  0.00    -0.168 F 
ATOM     20  F   UNL     1       3.800   5.590   1.940  0.00  0.00    -0.168 F 
ENDBRANCH   4  17
BRANCH   3  21
ATOM     21  C   UNL     1       3.256   7.710  -0.661  0.00  0.00    +0.160 C 
ATOM     22  O   UNL     1       2.639   8.352   0.165  0.00  0.00    -0.293 OA
ATOM     23  C   UNL     1       4.098   8.419  -1.690  0.00  0.00    +0.091 C 
ENDBRANCH   3  21
BRANCH   4  24
ATOM     24  N   UNL     1       5.380   5.490  -1.376  0.00  0.00    -0.162 NA
ATOM     25  H   UNL     1       5.508   6.343  -1.821  0.00  0.00    +0.150 HD
BRANCH  24  26
ATOM     26  S   UNL     1       6.366   4.210  -1.740  0.00  0.00    +0.060 S 
ATOM     27  O   UNL     1       7.550   4.757  -2.304  0.00  0.00    -0.153 OA
ATOM     28  O   UNL     1       6.386   3.374  -0.591  0.00  0.00    -0.153 OA
BRANCH  26  29
ATOM     29  C   UNL     1       5.577   3.291  -3.019  0.00  0.00    +0.105 A 
ATOM     30  C   UNL     1       4.954   2.092  -2.723  0.00  0.00    +0.030 A 
ATOM     31  C   UNL     1       4.329   1.372  -3.722  0.00  0.00    +0.024 A 
ATOM     32  C   UNL     1       4.337   1.847  -5.027  0.00  0.00    +0.025 A 
ATOM     33  C   UNL     1       4.969   3.049  -5.322  0.00  0.00    +0.024 A 
ATOM     34  C   UNL     1       5.587   3.767  -4.317  0.00  0.00    +0.030 A 
BRANCH  32  35
ATOM     35  N   UNL     1       3.711   1.119  -6.041  0.00  0.00    -0.358 N 
ATOM     36  H   UNL     1       3.717   1.452  -6.952  0.00  0.00    +0.142 HD
ATOM     37  H   UNL     1       3.270   0.280  -5.834  0.00  0.00    +0.142 HD
ENDBRANCH  32  35
ENDBRANCH  26  29
ENDBRANCH  24  26
ENDBRANCH   4  24
TORSDOF 8
