REMARK  Name = ZINC21076083
REMARK  9 active torsions:
REMARK  status: ('A' for Active; 'I' for Inactive)
REMARK    1  A    between atoms: C_1  and  C_2
REMARK    2  A    between atoms: C_9  and  C_12
REMARK    3  A    between atoms: C_12  and  S_13
REMARK    4  A    between atoms: S_13  and  C_14
REMARK    5  A    between atoms: N_19  and  N_20
REMARK    6  A    between atoms: C_21  and  C_22
REMARK    7  A    between atoms: C_25  and  N_28
REMARK    8  A    between atoms: N_28  and  C_29
REMARK    9  A    between atoms: N_28  and  C_30
REMARK                            x       y       z     vdW  Elec       q    Type
REMARK                         _______ _______ _______ _____ _____    ______ ____
ROOT
ATOM      1  C   UNL     1      -8.226   2.006   0.048  0.00  0.00    +0.210 A 
ATOM      2  N   UNL     1      -7.308   0.995   0.035  0.00  0.00    -0.186 NA
ATOM      3  C   UNL     1      -6.061   1.556   0.034  0.00  0.00    +0.232 A 
ATOM      4  N   UNL     1      -6.203   2.859   0.051  0.00  0.00    -0.245 N 
ATOM      5  N   UNL     1      -7.574   3.145   0.055  0.00  0.00    -0.144 NA
ATOM      6  N   UNL     1      -4.857   0.866   0.022  0.00  0.00    -0.205 N 
ATOM      7  H   UNL     1      -4.853  -0.234   0.013  0.00  0.00    +0.177 HD
ATOM      8  H   UNL     1      -5.315   3.509   0.059  0.00  0.00    +0.192 HD
ENDROOT
BRANCH   6   9
ATOM      9  N   UNL     1      -3.646   1.571   0.022  0.00  0.00    -0.188 NA
ATOM     10  C   UNL     1      -2.519   0.926   0.012  0.00  0.00    +0.138 C 
BRANCH  10  11
ATOM     11  C   UNL     1      -1.246   1.668   0.011  0.00  0.00    -0.005 A 
ATOM     12  C   UNL     1      -0.031   0.975   0.000  0.00  0.00    +0.011 A 
ATOM     13  C   UNL     1       1.157   1.672  -0.006  0.00  0.00    +0.024 A 
ATOM     14  C   UNL     1       1.150   3.063   0.005  0.00  0.00    +0.029 A 
ATOM     15  C   UNL     1      -0.056   3.755   0.023  0.00  0.00    +0.024 A 
ATOM     16  C   UNL     1      -1.249   3.066   0.029  0.00  0.00    +0.011 A 
BRANCH  14  17
ATOM     17  N   UNL     1       2.356   3.765  -0.002  0.00  0.00    -0.336 N 
ATOM     18  C   UNL     1       3.627   3.038  -0.020  0.00  0.00    +0.129 C 
ATOM     19  C   UNL     1       2.350   5.230   0.010  0.00  0.00    +0.129 C 
ENDBRANCH  14  17
ENDBRANCH  10  11
ENDBRANCH   6   9
BRANCH   1  20
ATOM     20  S   UNL     1      -9.977   1.815   0.056  0.00  0.00    -0.077 S 
BRANCH  20  21
ATOM     21  C   UNL     1     -10.604   3.518   0.073  0.00  0.00    +0.151 C 
BRANCH  21  30
ATOM     22  C   UNL     1     -17.852   3.401  -1.440  0.00  0.00    +0.044 C 
ATOM     23  C   UNL     1     -16.560   3.422  -0.664  0.00  0.00    -0.048 A 
ATOM     24  C   UNL     1     -16.593   3.413   0.724  0.00  0.00    +0.005 A 
ATOM     25  C   UNL     1     -15.422   3.431   1.450  0.00  0.00    +0.030 A 
ATOM     26  C   UNL     1     -14.202   3.460   0.788  0.00  0.00    +0.089 A 
ATOM     27  C   UNL     1     -14.169   3.469  -0.617  0.00  0.00    +0.066 A 
ATOM     28  C   UNL     1     -15.370   3.449  -1.332  0.00  0.00    +0.031 A 
ATOM     29  N   UNL     1     -12.862   3.497  -0.982  0.00  0.00    -0.341 N 
ATOM     30  C   UNL     1     -12.111   3.498   0.081  0.00  0.00    +0.118 A 
ATOM     31  N   UNL     1     -12.885   3.484   1.200  0.00  0.00    -0.232 NA
ATOM     32  H   UNL     1     -12.402   3.518  -1.981  0.00  0.00    +0.167 HD
ENDBRANCH  21  30
ENDBRANCH  20  21
ENDBRANCH   1  20
TORSDOF 6
