REMARK  Name = ZINC02387789
REMARK  5 active torsions:
REMARK  status: ('A' for Active; 'I' for Inactive)
REMARK    1  A    between atoms: C_1  and  C_2
REMARK    2  A    between atoms: C_5  and  N_11
REMARK    3  A    between atoms: C_6  and  N_8
REMARK    4  A    between atoms: C_15  and  C_16
REMARK    5  A    between atoms: C_16  and  C_18
REMARK                            x       y       z     vdW  Elec       q    Type
REMARK                         _______ _______ _______ _____ _____    ______ ____
ROOT
ATOM      1  N   UNL     1      -2.458   3.824   0.046  0.00  0.00    -0.311 N 
ATOM      2  C   UNL     1      -2.930   4.622  -0.944  0.00  0.00    +0.092 A 
ATOM      3  C   UNL     1      -4.140   5.112  -0.575  0.00  0.00    +0.020 A 
ATOM      4  C   UNL     1      -4.442   4.606   0.690  0.00  0.00    +0.031 A 
ATOM      5  C   UNL     1      -3.385   3.796   1.068  0.00  0.00    +0.094 A 
ENDROOT
BRANCH   1  10
ATOM      6  C   UNL     1       2.490   1.045  -0.016  0.00  0.00    +0.044 C 
ATOM      7  C   UNL     1       1.176   1.783   0.000  0.00  0.00    -0.048 A 
ATOM      8  C   UNL     1       1.161   3.166   0.007  0.00  0.00    +0.005 A 
ATOM      9  C   UNL     1      -0.041   3.845   0.022  0.00  0.00    +0.029 A 
ATOM     10  C   UNL     1      -1.236   3.138   0.030  0.00  0.00    +0.077 A 
ATOM     11  C   UNL     1      -1.218   1.749   0.017  0.00  0.00    +0.150 A 
ATOM     12  C   UNL     1      -0.013   1.076   0.008  0.00  0.00    +0.038 A 
BRANCH  11  13
ATOM     13  N   UNL     1      -2.490   0.992   0.020  0.00  0.00    +0.058 N 
ATOM     14  O   UNL     1      -2.474  -0.226   0.013  0.00  0.00    -0.126 OA
ATOM     15  O   UNL     1      -3.553   1.587   0.028  0.00  0.00    -0.126 OA
ENDBRANCH  11  13
ENDBRANCH   1  10
BRANCH   5  16
ATOM     16  C   UNL     1      -3.274   3.076   2.279  0.00  0.00    +0.230 C 
ATOM     17  O   UNL     1      -2.289   2.400   2.494  0.00  0.00    -0.286 OA
BRANCH  16  18
ATOM     18  C   UNL     1      -4.377   3.148   3.302  0.00  0.00    +0.254 C 
ATOM     19 CL   UNL     1      -3.944   2.130   4.726  0.00  0.00    -0.075 Cl
ATOM     20 CL   UNL     1      -4.597   4.858   3.830  0.00  0.00    -0.075 Cl
ATOM     21 CL   UNL     1      -5.912   2.542   2.575  0.00  0.00    -0.075 Cl
ENDBRANCH  16  18
ENDBRANCH   5  16
TORSDOF 4
