REMARK  Name = ZINC20296020
REMARK  9 active torsions:
REMARK  status: ('A' for Active; 'I' for Inactive)
REMARK    1  A    between atoms: C_1  and  C_2
REMARK    2  A    between atoms: C_3  and  C_7
REMARK    3  A    between atoms: C_10  and  S_19
REMARK    4  A    between atoms: N_11  and  C_12
REMARK    5  A    between atoms: C_12  and  C_13
REMARK    6  A    between atoms: S_19  and  C_20
REMARK    7  A    between atoms: C_20  and  C_21
REMARK    8  A    between atoms: N_23  and  C_24
REMARK    9  A    between atoms: C_25  and  C_34
REMARK                            x       y       z     vdW  Elec       q    Type
REMARK                         _______ _______ _______ _____ _____    ______ ____
ROOT
ATOM      1  S   UNL     1      -0.589   2.162   1.886  0.00  0.00    -0.077 S 
ENDROOT
BRANCH   1   5
ATOM      2  C   UNL     1      -1.044   6.003   1.328  0.00  0.00    +0.168 A 
ATOM      3  N   UNL     1      -0.301   5.648   0.306  0.00  0.00    -0.128 NA
ATOM      4  N   UNL     1      -0.062   4.387   0.353  0.00  0.00    -0.122 NA
ATOM      5  C   UNL     1      -0.638   3.857   1.408  0.00  0.00    +0.192 A 
ATOM      6  N   UNL     1      -1.289   4.866   2.063  0.00  0.00    -0.300 N 
BRANCH   2   9
ATOM      7  C   UNL     1       0.660   8.634   1.303  0.00  0.00    +0.087 C 
ATOM      8  C   UNL     1      -0.808   8.518   1.623  0.00  0.00    +0.112 A 
ATOM      9  C   UNL     1      -1.532   7.366   1.629  0.00  0.00    +0.060 A 
ATOM     10  C   UNL     1      -2.897   7.757   2.003  0.00  0.00    +0.053 A 
ATOM     11  C   UNL     1      -2.867   9.088   2.179  0.00  0.00    +0.196 A 
ATOM     12  O   UNL     1      -1.623   9.532   1.948  0.00  0.00    -0.467 OA
ENDBRANCH   2   9
BRANCH   6  13
ATOM     13  C   UNL     1      -2.078   4.759   3.292  0.00  0.00    +0.157 C 
BRANCH  13  14
ATOM     14  C   UNL     1      -1.149   4.846   4.504  0.00  0.00    +0.138 C 
ATOM     15  C   UNL     1      -1.956   4.620   5.801  0.00  0.00    +0.035 C 
ATOM     16  C   UNL     1      -1.314   5.646   6.773  0.00  0.00    +0.031 C 
ATOM     17  C   UNL     1      -0.970   6.800   5.798  0.00  0.00    +0.160 C 
ATOM     18  O   UNL     1      -0.569   6.154   4.579  0.00  0.00    -0.375 OA
ENDBRANCH  13  14
ENDBRANCH   6  13
ENDBRANCH   1   5
BRANCH   1  19
ATOM     19  C   UNL     1       0.430   1.489   0.550  0.00  0.00    +0.173 C 
BRANCH  19  20
ATOM     20  C   UNL     1       0.612   0.007   0.756  0.00  0.00    +0.228 C 
ATOM     21  O   UNL     1       0.103  -0.540   1.712  0.00  0.00    -0.275 OA
ATOM     22  N   UNL     1       1.340  -0.711  -0.123  0.00  0.00    -0.278 N 
ATOM     23  H   UNL     1       1.801  -0.215  -0.990  0.00  0.00    +0.155 HD
BRANCH  22  24
ATOM     24  C   UNL     1       1.508  -2.076   0.067  0.00  0.00    +0.090 A 
ATOM     25  C   UNL     1       2.208  -2.974  -0.721  0.00  0.00    +0.084 A 
ATOM     26  C   UNL     1       2.239  -4.367  -0.297  0.00  0.00    -0.018 A 
ATOM     27  C   UNL     1       1.550  -4.633   0.834  0.00  0.00    -0.004 A 
ATOM     28  S   UNL     1       0.886  -3.070   1.341  0.00  0.00    -0.077 S 
ATOM     29  C   UNL     1       1.371  -5.958   1.507  0.00  0.00    +0.043 C 
ATOM     30  C   UNL     1       2.737  -6.645   1.644  0.00  0.00    +0.005 C 
ATOM     31  C   UNL     1       2.985  -7.479   0.391  0.00  0.00    +0.001 C 
ATOM     32  C   UNL     1       2.351  -6.804  -0.824  0.00  0.00    +0.005 C 
ATOM     33  C   UNL     1       2.991  -5.443  -1.071  0.00  0.00    +0.037 C 
BRANCH  25  34
ATOM     34  C   UNL     1       2.882  -2.547  -1.910  0.00  0.00    +0.102 C 
ATOM     35  N   UNL     1       3.417  -2.209  -2.853  0.00  0.00    -0.191 NA
ENDBRANCH  25  34
ENDBRANCH  22  24
ENDBRANCH  19  20
ENDBRANCH   1  19
TORSDOF 8
