REMARK  Name = ZINC02250155
REMARK  8 active torsions:
REMARK  status: ('A' for Active; 'I' for Inactive)
REMARK    1  A    between atoms: C_1  and  O_2
REMARK    2  A    between atoms: O_2  and  C_3
REMARK    3  A    between atoms: C_6  and  C_9
REMARK    4  A    between atoms: C_9  and  N_10
REMARK    5  A    between atoms: C_11  and  C_13
REMARK    6  A    between atoms: N_24  and  N_27
REMARK    7  A    between atoms: C_25  and  N_26
REMARK    8  A    between atoms: C_28  and  C_29
REMARK                            x       y       z     vdW  Elec       q    Type
REMARK                         _______ _______ _______ _____ _____    ______ ____
ROOT
ATOM      1  C   UNL     1       1.555  -2.056  -0.023  0.00  0.00    +0.105 A 
ATOM      2  C   UNL     1       1.157  -0.638  -0.012  0.00  0.00    +0.124 A 
ATOM      3  C   UNL     1       2.413   0.118  -0.019  0.00  0.00    +0.183 A 
ATOM      4  N   UNL     1       2.376   1.433  -0.012  0.00  0.00    -0.224 NA
ATOM      5  C   UNL     1       1.197   2.068   0.002  0.00  0.00    +0.092 A 
ATOM      6  C   UNL     1       1.149   3.474   0.009  0.00  0.00    +0.030 A 
ATOM      7  C   UNL     1      -0.054   4.110   0.024  0.00  0.00    +0.002 A 
ATOM      8  C   UNL     1      -1.247   3.389   0.031  0.00  0.00    +0.002 A 
ATOM      9  C   UNL     1      -1.240   2.029   0.019  0.00  0.00    +0.030 A 
ATOM     10  C   UNL     1      -0.016   1.334   0.009  0.00  0.00    +0.090 A 
ATOM     11  N   UNL     1       0.002  -0.004   0.002  0.00  0.00    -0.241 NA
ATOM     12  N   UNL     1       3.440  -0.806  -0.034  0.00  0.00    -0.198 N 
ATOM     13  C   UNL     1       2.946  -2.075  -0.036  0.00  0.00    +0.134 A 
ENDROOT
BRANCH   1  15
ATOM     14  N   UNL     1       0.290  -3.720   1.146  0.00  0.00    -0.307 N 
ATOM     15  C   UNL     1       0.690  -3.180  -0.022  0.00  0.00    +0.250 C 
ATOM     16  O   UNL     1       0.310  -3.657  -1.076  0.00  0.00    -0.270 OA
ATOM     17  H   UNL     1       0.593  -3.341   1.986  0.00  0.00    +0.149 HD
BRANCH  14  18
ATOM     18  C   UNL     1      -0.603  -4.882   1.147  0.00  0.00    +0.139 C 
BRANCH  18  22
ATOM     19  C   UNL     1      -1.436  -6.033   5.178  0.00  0.00    +0.120 A 
ATOM     20  C   UNL     1      -2.253  -5.114   4.535  0.00  0.00    +0.046 A 
ATOM     21  C   UNL     1      -1.981  -4.743   3.232  0.00  0.00    +0.009 A 
ATOM     22  C   UNL     1      -0.897  -5.288   2.569  0.00  0.00    -0.030 A 
ATOM     23  C   UNL     1      -0.085  -6.208   3.205  0.00  0.00    +0.009 A 
ATOM     24  C   UNL     1      -0.349  -6.578   4.510  0.00  0.00    +0.046 A 
BRANCH  19  26
ATOM     25  C   UNL     1      -0.818  -7.350   7.058  0.00  0.00    +0.277 C 
ATOM     26  O   UNL     1      -1.701  -6.399   6.459  0.00  0.00    -0.495 OA
ENDBRANCH  19  26
ENDBRANCH  18  22
ENDBRANCH  14  18
ENDBRANCH   1  15
BRANCH  13  27
ATOM     27  N   UNL     1       3.713  -3.213  -0.049  0.00  0.00    -0.342 N 
ATOM     28  H   UNL     1       3.287  -4.085  -0.049  0.00  0.00    +0.144 HD
ATOM     29  H   UNL     1       4.680  -3.146  -0.057  0.00  0.00    +0.144 HD
ENDBRANCH  13  27
BRANCH  12  30
ATOM     30  N   UNL     1       4.803  -0.481  -0.044  0.00  0.00    -0.171 NA
ATOM     31  C   UNL     1       5.426  -0.324  -1.175  0.00  0.00    +0.148 C 
BRANCH  31  32
ATOM     32  C   UNL     1       6.852   0.016  -1.186  0.00  0.00    +0.032 A 
ATOM     33  C   UNL     1       7.691   0.224  -2.267  0.00  0.00    +0.017 A 
ATOM     34  C   UNL     1       9.008   0.536  -2.021  0.00  0.00    +0.008 A 
ATOM     35  C   UNL     1       9.441   0.629  -0.736  0.00  0.00    +0.046 A 
ATOM     36  S   UNL     1       7.957   0.276   0.192  0.00  0.00    -0.096 S 
ENDBRANCH  31  32
ENDBRANCH  12  30
TORSDOF 7
