REMARK  Name = ZINC03977775
REMARK  8 active torsions:
REMARK  status: ('A' for Active; 'I' for Inactive)
REMARK    1  A    between atoms: C_1  and  C_2
REMARK    2  A    between atoms: C_2  and  O_4
REMARK    3  A    between atoms: O_4  and  C_5
REMARK    4  A    between atoms: C_5  and  C_6
REMARK    5  A    between atoms: C_6  and  C_8
REMARK    6  A    between atoms: C_14  and  C_33
REMARK    7  A    between atoms: C_16  and  O_32
REMARK    8  A    between atoms: C_29  and  C_30
REMARK                            x       y       z     vdW  Elec       q    Type
REMARK                         _______ _______ _______ _____ _____    ______ ____
ROOT
ATOM      1  C   UNL     1      -2.726  -4.196  -0.031  0.00  0.00    +0.165 C 
ATOM      2  C   UNL     1      -2.993  -4.801   1.381  0.00  0.00    +0.162 C 
ATOM      3  C   UNL     1      -4.376  -5.510   1.292  0.00  0.00    +0.039 C 
ATOM      4  C   UNL     1      -4.471  -5.808  -0.209  0.00  0.00    +0.007 C 
ATOM      5  C   UNL     1      -4.019  -4.466  -0.818  0.00  0.00    +0.012 C 
ATOM      6  C   UNL     1      -3.877  -4.621  -2.311  0.00  0.00    +0.044 C 
ATOM      7  C   UNL     1      -5.198  -5.122  -2.928  0.00  0.00    +0.154 C 
ATOM      8  C   UNL     1      -5.676  -6.410  -2.291  0.00  0.00    +0.153 C 
ATOM      9  C   UNL     1      -5.766  -6.304  -0.761  0.00  0.00    +0.034 C 
ATOM     10  C   UNL     1      -7.000  -5.494  -0.386  0.00  0.00    +0.011 C 
ATOM     11  C   UNL     1      -8.217  -6.395  -0.623  0.00  0.00    +0.032 C 
ATOM     12  C   UNL     1      -8.108  -7.090  -1.953  0.00  0.00    -0.053 C 
ATOM     13  C   UNL     1      -9.177  -7.833  -2.329  0.00  0.00    +0.051 C 
ATOM     14  C   UNL     1      -9.055  -8.540  -3.630  0.00  0.00    +0.179 C 
ATOM     15  O   UNL     1      -9.978  -8.645  -4.414  0.00  0.00    -0.288 OA
ATOM     16  C   UNL     1      -7.705  -9.112  -3.892  0.00  0.00    +0.047 C 
ATOM     17  C   UNL     1      -6.657  -8.359  -3.505  0.00  0.00    -0.009 C 
ATOM     18  C   UNL     1      -6.928  -7.019  -2.862  0.00  0.00    +0.044 C 
ATOM     19  C   UNL     1      -7.380  -6.158  -4.036  0.00  0.00    +0.023 C 
ATOM     20  F   UNL     1      -4.649  -7.361  -2.532  0.00  0.00    -0.238 F 
ATOM     21  C   UNL     1      -4.961  -3.309  -0.473  0.00  0.00    +0.015 C 
ATOM     22  O   UNL     1      -1.989  -5.827   1.528  0.00  0.00    -0.342 OA
ATOM     23  C   UNL     1      -0.963  -5.499   0.583  0.00  0.00    +0.172 C 
ATOM     24  O   UNL     1      -1.629  -4.952  -0.563  0.00  0.00    -0.331 OA
ATOM     25  C   UNL     1      -0.162  -6.750   0.195  0.00  0.00    +0.065 C 
ATOM     26  C   UNL     1       1.312  -6.273   0.148  0.00  0.00    +0.005 C 
ATOM     27  C   UNL     1       1.372  -5.236   1.301  0.00  0.00    +0.005 C 
ATOM     28  C   UNL     1       0.022  -4.491   1.183  0.00  0.00    +0.065 C 
ENDROOT
BRANCH   1  29
ATOM     29  C   UNL     1      -2.443  -2.719   0.029  0.00  0.00    +0.205 C 
ATOM     30  O   UNL     1      -2.799  -2.075   0.987  0.00  0.00    -0.291 OA
BRANCH  29  31
ATOM     31  C   UNL     1      -1.718  -2.044  -1.106  0.00  0.00    +0.309 C 
BRANCH  31  32
ATOM     32  O   UNL     1      -1.673  -0.635  -0.872  0.00  0.00    -0.457 OA
BRANCH  32  34
ATOM     33  C   UNL     1      -0.970   1.611  -1.618  0.00  0.00    +0.136 C 
ATOM     34  C   UNL     1      -1.056   0.117  -1.797  0.00  0.00    +0.304 C 
ATOM     35  O   UNL     1      -0.570  -0.403  -2.773  0.00  0.00    -0.251 OA
ENDBRANCH  32  34
ENDBRANCH  31  32
ENDBRANCH  29  31
ENDBRANCH   1  29
BRANCH   7  36
ATOM     36  O   UNL     1      -6.157  -4.073  -2.865  0.00  0.00    -0.389 OA
ATOM     37  H   UNL     1      -5.897  -3.273  -3.342  0.00  0.00    +0.210 HD
ENDBRANCH   7  36
TORSDOF 5
