REMARK  Name = ZINC09433325
REMARK  15 active torsions:
REMARK  status: ('A' for Active; 'I' for Inactive)
REMARK    1  A    between atoms: C_1  and  C_2
REMARK    2  A    between atoms: C_2  and  C_3
REMARK    3  A    between atoms: C_2  and  C_4
REMARK    4  A    between atoms: C_4  and  N_5
REMARK    5  A    between atoms: C_6  and  C_34
REMARK    6  A    between atoms: C_8  and  C_18
REMARK    7  A    between atoms: N_20  and  C_21
REMARK    8  A    between atoms: C_21  and  C_22
REMARK    9  A    between atoms: C_22  and  C_23
REMARK   10  A    between atoms: C_23  and  N_76
REMARK   11  A    between atoms: C_24  and  C_25
REMARK   12  A    between atoms: C_24  and  N_76
REMARK   13  A    between atoms: C_31  and  C_32
REMARK   14  A    between atoms: C_31  and  C_33
REMARK   15  A    between atoms: C_31  and  N_76
REMARK                            x       y       z     vdW  Elec       q    Type
REMARK                         _______ _______ _______ _____ _____    ______ ____
ROOT
ATOM      1  N   UNL     1      -3.833   1.379   1.797  0.00  0.00    -0.289 N 
ATOM      2  C   UNL     1      -3.446   0.618   0.611  0.00  0.00    +0.129 C 
ATOM      3  C   UNL     1      -2.001   0.137   0.718  0.00  0.00    +0.131 C 
ATOM      4  C   UNL     1      -1.781  -0.553   2.039  0.00  0.00    -0.021 A 
ATOM      5  C   UNL     1      -0.902  -1.610   2.142  0.00  0.00    +0.005 A 
ATOM      6  C   UNL     1      -0.700  -2.224   3.366  0.00  0.00    +0.000 A 
ATOM      7  C   UNL     1      -1.376  -1.783   4.491  0.00  0.00    +0.001 A 
ATOM      8  C   UNL     1      -2.263  -0.730   4.399  0.00  0.00    +0.013 A 
ATOM      9  C   UNL     1      -2.475  -0.114   3.167  0.00  0.00    +0.041 A 
ATOM     10  C   UNL     1      -3.446   0.992   3.028  0.00  0.00    +0.247 C 
ATOM     11  O   UNL     1      -3.891   1.547   4.014  0.00  0.00    -0.270 OA
ENDROOT
BRANCH   2  12
ATOM     12  C   UNL     1      -4.356  -0.575   0.470  0.00  0.00    +0.011 A 
ATOM     13  C   UNL     1      -4.923  -1.089  -0.649  0.00  0.00    +0.013 A 
ATOM     14  C   UNL     1      -5.732  -2.204  -0.539  0.00  0.00    +0.008 A 
ATOM     15  C   UNL     1      -5.935  -2.751   0.684  0.00  0.00    +0.045 A 
ATOM     16  S   UNL     1      -4.960  -1.684   1.732  0.00  0.00    -0.100 S 
ENDBRANCH   2  12
BRANCH   3  17
ATOM     17  C   UNL     1      -1.072   1.318   0.611  0.00  0.00    +0.223 C 
ATOM     18  O   UNL     1      -1.517   2.445   0.652  0.00  0.00    -0.275 OA
ATOM     19  N   UNL     1       0.254   1.122   0.468  0.00  0.00    -0.315 N 
ATOM     20  H   UNL     1       0.610   0.220   0.435  0.00  0.00    +0.149 HD
BRANCH  19  21
ATOM     21  C   UNL     1       1.157   2.270   0.358  0.00  0.00    +0.102 C 
BRANCH  21  22
ATOM     22  C   UNL     1       2.595   1.774   0.199  0.00  0.00    +0.000 C 
BRANCH  22  23
ATOM     23  C   UNL     1       3.538   2.974   0.084  0.00  0.00    -0.076 C 
BRANCH  23  24
ATOM     24  N   UNL     1       4.921   2.477  -0.073  0.00  0.00    +0.384 N 
ATOM     25  H   UNL     1       4.926   1.718  -0.764  0.00  0.00    -0.081 HD
BRANCH  24  26
ATOM     26  C   UNL     1       5.798   3.567  -0.551  0.00  0.00    -0.074 C 
ATOM     27  C   UNL     1       5.465   3.861  -2.014  0.00  0.00    -0.014 C 
ATOM     28  C   UNL     1       5.586   4.831   0.285  0.00  0.00    -0.014 C 
ENDBRANCH  24  26
BRANCH  24  29
ATOM     29  C   UNL     1       5.420   1.956   1.217  0.00  0.00    -0.043 C 
BRANCH  29  30
ATOM     30  C   UNL     1       6.736   1.260   0.984  0.00  0.00    -0.064 A 
ATOM     31  C   UNL     1       6.760  -0.087   0.672  0.00  0.00    +0.002 A 
ATOM     32  C   UNL     1       7.967  -0.725   0.454  0.00  0.00    +0.000 A 
ATOM     33  C   UNL     1       9.150  -0.018   0.556  0.00  0.00    +0.000 A 
ATOM     34  C   UNL     1       9.127   1.328   0.873  0.00  0.00    +0.000 A 
ATOM     35  C   UNL     1       7.920   1.966   1.087  0.00  0.00    +0.002 A 
ENDBRANCH  29  30
ENDBRANCH  24  29
ENDBRANCH  23  24
ENDBRANCH  22  23
ENDBRANCH  21  22
ENDBRANCH  19  21
ENDBRANCH   3  17
BRANCH   1  36
ATOM     36  C   UNL     1      -4.656   2.582   1.645  0.00  0.00    +0.111 C 
BRANCH  36  38
ATOM     37  C   UNL     1      -6.538   1.531   2.908  0.00  0.00    +0.009 C 
ATOM     38  C   UNL     1      -6.132   2.186   1.586  0.00  0.00    +0.000 C 
ATOM     39  C   UNL     1      -6.986   3.433   1.352  0.00  0.00    +0.009 C 
ENDBRANCH  36  38
ENDBRANCH   1  36
TORSDOF 11
