REMARK  Name = ZINC63354370
REMARK  6 active torsions:
REMARK  status: ('A' for Active; 'I' for Inactive)
REMARK    1  A    between atoms: C_1  and  C_2
REMARK    2  A    between atoms: C_2  and  C_3
REMARK    3  A    between atoms: C_3  and  N_4
REMARK    4  A    between atoms: C_12  and  O_30
REMARK    5  A    between atoms: C_13  and  C_17
REMARK    6  A    between atoms: C_17  and  N_19
REMARK                            x       y       z     vdW  Elec       q    Type
REMARK                         _______ _______ _______ _____ _____    ______ ____
ROOT
ATOM      1  N   UNL     1       0.699  -1.922  -1.298  0.00  0.00    -0.294 N 
ATOM      2  C   UNL     1       1.861  -2.651  -0.781  0.00  0.00    +0.105 C 
ATOM      3  C   UNL     1       2.916  -1.741  -0.214  0.00  0.00    +0.027 C 
ATOM      4  C   UNL     1       2.977  -1.799   1.310  0.00  0.00    +0.002 C 
ATOM      5  C   UNL     1       3.222  -3.259   1.720  0.00  0.00    +0.005 C 
ATOM      6  C   UNL     1       1.924  -4.031   1.480  0.00  0.00    +0.036 C 
ATOM      7  C   UNL     1       1.404  -3.756   0.115  0.00  0.00    -0.011 C 
ATOM      8  C   UNL     1       0.417  -4.535  -0.341  0.00  0.00    +0.116 C 
ATOM      9  C   UNL     1      -0.144  -4.192  -1.707  0.00  0.00    +0.227 C 
ATOM     10  C   UNL     1      -0.331  -2.688  -1.764  0.00  0.00    +0.236 C 
ATOM     11  O   UNL     1      -1.345  -2.189  -2.206  0.00  0.00    -0.274 OA
ENDROOT
BRANCH   9  12
ATOM     12  C   UNL     1       0.818  -4.634  -2.779  0.00  0.00    +0.258 C 
ATOM     13  O   UNL     1       1.862  -5.176  -2.473  0.00  0.00    -0.272 OA
BRANCH  12  14
ATOM     14  N   UNL     1       0.525  -4.431  -4.059  0.00  0.00    -0.156 NA
ATOM     15  C   UNL     1       1.321  -4.916  -5.010  0.00  0.00    +0.164 A 
ATOM     16  N   UNL     1       2.391  -5.737  -4.860  0.00  0.00    -0.335 N 
ATOM     17  H   UNL     1       2.653  -6.038  -3.975  0.00  0.00    +0.168 HD
ATOM     18  C   UNL     1       3.106  -6.144  -5.970  0.00  0.00    +0.055 A 
ATOM     19  C   UNL     1       4.230  -6.979  -6.042  0.00  0.00    +0.027 A 
ATOM     20  C   UNL     1       4.809  -7.271  -7.256  0.00  0.00    +0.002 A 
ATOM     21  C   UNL     1       4.302  -6.751  -8.435  0.00  0.00    +0.001 A 
ATOM     22  C   UNL     1       3.193  -5.924  -8.391  0.00  0.00    +0.017 A 
ATOM     23  C   UNL     1       2.614  -5.632  -7.179  0.00  0.00    +0.039 A 
ATOM     24  S   UNL     1       1.223  -4.657  -6.667  0.00  0.00    -0.052 S 
ENDBRANCH  12  14
ENDBRANCH   9  12
BRANCH   8  25
ATOM     25  O   UNL     1      -0.057  -5.580   0.383  0.00  0.00    -0.510 OA
ATOM     26  H   UNL     1      -0.770  -6.068  -0.052  0.00  0.00    +0.292 HD
ENDBRANCH   8  25
BRANCH   1  27
ATOM     27  C   UNL     1       0.643  -0.459  -1.308  0.00  0.00    +0.108 C 
BRANCH  27  29
ATOM     28  C   UNL     1       1.282   1.598  -2.574  0.00  0.00    +0.005 C 
ATOM     29  C   UNL     1       1.340   0.070  -2.563  0.00  0.00    +0.016 C 
ENDBRANCH  27  29
ENDBRANCH   1  27
TORSDOF 5
