REMARK  Name = ZINC12759453
REMARK  11 active torsions:
REMARK  status: ('A' for Active; 'I' for Inactive)
REMARK    1  A    between atoms: C_1  and  C_2
REMARK    2  A    between atoms: C_2  and  C_3
REMARK    3  A    between atoms: C_3  and  C_4
REMARK    4  A    between atoms: C_4  and  N_5
REMARK    5  A    between atoms: C_6  and  N_37
REMARK    6  A    between atoms: C_7  and  N_14
REMARK    7  A    between atoms: N_14  and  C_15
REMARK    8  A    between atoms: C_20  and  C_22
REMARK    9  A    between atoms: C_22  and  N_23
REMARK   10  A    between atoms: C_26  and  C_30
REMARK   11  A    between atoms: C_26  and  C_31
REMARK                            x       y       z     vdW  Elec       q    Type
REMARK                         _______ _______ _______ _____ _____    ______ ____
ROOT
ATOM      1  N   UNL     1       2.280   0.081  -0.187  0.00  0.00    -0.260 N 
ATOM      2  C   UNL     1       2.396   1.406   0.039  0.00  0.00    +0.238 C 
ATOM      3  O   UNL     1       1.402   2.086   0.185  0.00  0.00    -0.273 OA
ENDROOT
BRANCH   1   6
ATOM      4  N   UNL     1      -0.931  -1.230   1.026  0.00  0.00    -0.280 N 
ATOM      5  C   UNL     1       0.303  -0.622   1.026  0.00  0.00    +0.127 A 
ATOM      6  C   UNL     1       1.009  -0.531  -0.156  0.00  0.00    +0.140 A 
ATOM      7  C   UNL     1       0.440  -1.060  -1.329  0.00  0.00    +0.277 A 
ATOM      8  O   UNL     1       1.043  -0.994  -2.388  0.00  0.00    -0.266 OA
ATOM      9  N   UNL     1      -0.774  -1.641  -1.276  0.00  0.00    -0.273 N 
ATOM     10  H   UNL     1      -1.179  -2.017  -2.110  0.00  0.00    +0.173 HD
ATOM     11  C   UNL     1      -1.448  -1.720  -0.115  0.00  0.00    +0.331 A 
ATOM     12  O   UNL     1      -2.543  -2.249  -0.096  0.00  0.00    -0.246 OA
BRANCH   5  13
ATOM     13  N   UNL     1       0.828  -0.116   2.191  0.00  0.00    -0.343 N 
ATOM     14  H   UNL     1       1.733   0.234   2.203  0.00  0.00    +0.144 HD
ATOM     15  H   UNL     1       0.293  -0.105   3.000  0.00  0.00    +0.144 HD
ENDBRANCH   5  13
BRANCH   4  16
ATOM     16  C   UNL     1      -1.690  -1.339   2.275  0.00  0.00    +0.128 C 
BRANCH  16  17
ATOM     17  C   UNL     1      -2.580  -0.106   2.440  0.00  0.00    +0.021 C 
BRANCH  17  19
ATOM     18  C   UNL     1      -4.262   1.014   3.909  0.00  0.00    +0.004 C 
ATOM     19  C   UNL     1      -3.372  -0.219   3.744  0.00  0.00    -0.002 C 
ENDBRANCH  17  19
ENDBRANCH  16  17
ENDBRANCH   4  16
ENDBRANCH   1   6
BRANCH   1  20
ATOM     20  C   UNL     1       3.473  -0.722  -0.465  0.00  0.00    +0.082 C 
ATOM     21  C   UNL     1       3.069  -2.176  -0.786  0.00  0.00    +0.023 C 
ATOM     22  C   UNL     1       4.185  -3.032  -0.137  0.00  0.00    +0.002 C 
ATOM     23  C   UNL     1       4.482  -2.268   1.177  0.00  0.00    +0.002 C 
ATOM     24  C   UNL     1       4.372  -0.781   0.783  0.00  0.00    +0.023 C 
ENDBRANCH   1  20
BRANCH   2  25
ATOM     25  C   UNL     1       3.761   2.042   0.111  0.00  0.00    +0.214 C 
BRANCH  25  26
ATOM     26  N   UNL     1       3.622   3.459   0.454  0.00  0.00    -0.215 N 
ATOM     27  C   UNL     1       3.612   3.936   1.714  0.00  0.00    +0.251 C 
ATOM     28  O   UNL     1       3.712   3.297   2.740  0.00  0.00    -0.272 OA
ATOM     29  C   UNL     1       3.450   5.438   1.583  0.00  0.00    +0.135 C 
ATOM     30  N   UNL     1       3.381   5.652   0.127  0.00  0.00    -0.281 N 
ATOM     31  C   UNL     1       3.495   4.441  -0.446  0.00  0.00    +0.310 C 
ATOM     32  O   UNL     1       3.480   4.258  -1.648  0.00  0.00    -0.252 OA
ATOM     33  C   UNL     1       4.657   6.163   2.181  0.00  0.00    +0.047 C 
ATOM     34  H   UNL     1       3.276   6.502  -0.329  0.00  0.00    +0.152 HD
BRANCH  29  35
ATOM     35  C   UNL     1       2.177   5.893   2.248  0.00  0.00    -0.016 A 
ATOM     36  C   UNL     1       1.675   5.197   3.331  0.00  0.00    +0.006 A 
ATOM     37  C   UNL     1       0.509   5.618   3.943  0.00  0.00    +0.000 A 
ATOM     38  C   UNL     1      -0.160   6.729   3.466  0.00  0.00    +0.000 A 
ATOM     39  C   UNL     1       0.339   7.423   2.379  0.00  0.00    +0.000 A 
ATOM     40  C   UNL     1       1.507   7.005   1.770  0.00  0.00    +0.006 A 
ENDBRANCH  29  35
ENDBRANCH  25  26
ENDBRANCH   2  25
TORSDOF 9
