REMARK  Name = ZINC49527055
REMARK  7 active torsions:
REMARK  status: ('A' for Active; 'I' for Inactive)
REMARK    1  A    between atoms: C_1  and  C_2
REMARK    2  A    between atoms: C_2  and  C_4
REMARK    3  A    between atoms: C_2  and  N_11
REMARK    4  A    between atoms: N_11  and  S_12
REMARK    5  A    between atoms: S_12  and  C_15
REMARK    6  A    between atoms: C_20  and  N_21
REMARK    7  A    between atoms: N_21  and  N_22
REMARK                            x       y       z     vdW  Elec       q    Type
REMARK                         _______ _______ _______ _____ _____    ______ ____
ROOT
ATOM      1  S   UNL     1      -1.959  -0.967   1.356  0.00  0.00    +0.061 S 
ATOM      2  O   UNL     1      -3.211  -1.600   1.133  0.00  0.00    -0.153 OA
ATOM      3  O   UNL     1      -0.845  -1.655   1.907  0.00  0.00    -0.153 OA
ENDROOT
BRANCH   1   4
ATOM      4  C   UNL     1      -2.271   0.411   2.409  0.00  0.00    +0.127 A 
ATOM      5  C   UNL     1      -1.506   0.602   3.543  0.00  0.00    +0.030 A 
ATOM      6  C   UNL     1      -1.750   1.683   4.370  0.00  0.00    +0.002 A 
ATOM      7  C   UNL     1      -2.762   2.575   4.066  0.00  0.00    +0.002 A 
ATOM      8  C   UNL     1      -3.531   2.390   2.934  0.00  0.00    +0.026 A 
ATOM      9  C   UNL     1      -3.284   1.309   2.097  0.00  0.00    +0.067 A 
BRANCH   9  10
ATOM     10  N   UNL     1      -4.056   1.122   0.949  0.00  0.00    -0.281 N 
ATOM     11  H   UNL     1      -3.866   0.381   0.352  0.00  0.00    +0.166 HD
BRANCH  10  12
ATOM     12  N   UNL     1      -5.080   1.981   0.667  0.00  0.00    -0.256 NA
ATOM     13  H   UNL     1      -4.751   2.934   0.624  0.00  0.00    +0.140 HD
ATOM     14  H   UNL     1      -5.545   1.720  -0.190  0.00  0.00    +0.140 HD
ENDBRANCH  10  12
ENDBRANCH   9  10
ENDBRANCH   1   4
BRANCH   1  15
ATOM     15  N   UNL     1      -1.467  -0.364  -0.106  0.00  0.00    -0.183 NA
ATOM     16  H   UNL     1      -2.006  -0.512  -0.898  0.00  0.00    +0.149 HD
BRANCH  15  18
ATOM     17  C   UNL     1      -0.496   1.761  -0.832  0.00  0.00    +0.031 C 
ATOM     18  C   UNL     1      -0.217   0.394  -0.202  0.00  0.00    +0.103 C 
BRANCH  18  19
ATOM     19  C   UNL     1       0.765  -0.362  -1.060  0.00  0.00    -0.029 A 
ATOM     20  C   UNL     1       0.329  -1.010  -2.201  0.00  0.00    +0.006 A 
ATOM     21  C   UNL     1       1.229  -1.704  -2.988  0.00  0.00    +0.015 A 
ATOM     22  C   UNL     1       2.566  -1.750  -2.633  0.00  0.00    +0.018 A 
ATOM     23  C   UNL     1       3.000  -1.103  -1.491  0.00  0.00    +0.015 A 
ATOM     24  C   UNL     1       2.101  -0.405  -0.708  0.00  0.00    +0.006 A 
ATOM     25 BR   UNL     1       3.797  -2.700  -3.709  0.00  0.00    -0.050 Br
ENDBRANCH  18  19
ENDBRANCH  15  18
ENDBRANCH   1  15
TORSDOF 6
