REMARK  Name = ZINC10812146
REMARK  9 active torsions:
REMARK  status: ('A' for Active; 'I' for Inactive)
REMARK    1  A    between atoms: C_1  and  C_2
REMARK    2  A    between atoms: N_13  and  C_25
REMARK    3  A    between atoms: C_14  and  S_16
REMARK    4  A    between atoms: S_16  and  C_17
REMARK    5  A    between atoms: C_17  and  C_18
REMARK    6  A    between atoms: N_20  and  C_21
REMARK    7  A    between atoms: C_21  and  C_22
REMARK    8  A    between atoms: C_21  and  C_23
REMARK    9  A    between atoms: C_21  and  C_24
REMARK                            x       y       z     vdW  Elec       q    Type
REMARK                         _______ _______ _______ _____ _____    ______ ____
ROOT
ATOM      1  C   UNL     1       1.397   3.572   0.258  0.00  0.00    +0.008 C 
ATOM      2  C   UNL     1       1.415   2.064  -0.000  0.00  0.00    -0.009 C 
ATOM      3  C   UNL     1      -0.019   1.524   0.010  0.00  0.00    +0.008 C 
ATOM      4  C   UNL     1       0.002  -0.004   0.002  0.00  0.00    +0.037 C 
ATOM      5  C   UNL     1       0.873  -0.481  -1.157  0.00  0.00    -0.023 A 
ATOM      6  C   UNL     1       1.763   0.356  -1.738  0.00  0.00    -0.004 A 
ATOM      7  S   UNL     1       2.539  -0.602  -3.015  0.00  0.00    -0.073 S 
ATOM      8  C   UNL     1       1.672  -2.120  -2.769  0.00  0.00    +0.117 A 
ATOM      9  C   UNL     1       0.800  -1.830  -1.694  0.00  0.00    +0.076 A 
ATOM     10  C   UNL     1      -0.059  -2.885  -1.245  0.00  0.00    +0.268 A 
ATOM     11  O   UNL     1      -0.844  -2.733  -0.326  0.00  0.00    -0.267 OA
ATOM     12  N   UNL     1       0.056  -4.062  -1.905  0.00  0.00    -0.253 N 
ATOM     13  C   UNL     1       0.928  -4.253  -2.936  0.00  0.00    +0.178 A 
ATOM     14  N   UNL     1       1.735  -3.298  -3.376  0.00  0.00    -0.215 NA
ATOM     15  C   UNL     1       2.034   1.784  -1.377  0.00  0.00    +0.046 C 
ENDROOT
BRANCH  12  16
ATOM     16  C   UNL     1      -0.759  -5.133  -1.510  0.00  0.00    +0.087 A 
ATOM     17  C   UNL     1      -2.009  -5.306  -2.088  0.00  0.00    +0.029 A 
ATOM     18  C   UNL     1      -2.807  -6.364  -1.701  0.00  0.00    +0.002 A 
ATOM     19  C   UNL     1      -2.368  -7.246  -0.730  0.00  0.00    +0.003 A 
ATOM     20  C   UNL     1      -1.126  -7.074  -0.147  0.00  0.00    +0.040 A 
ATOM     21  C   UNL     1      -0.319  -6.020  -0.534  0.00  0.00    +0.147 A 
ATOM     22  F   UNL     1       0.894  -5.852   0.036  0.00  0.00    -0.203 F 
ENDBRANCH  12  16
BRANCH  13  23
ATOM     23  S   UNL     1       0.983  -5.833  -3.714  0.00  0.00    -0.078 S 
BRANCH  23  24
ATOM     24  C   UNL     1       2.261  -5.526  -4.958  0.00  0.00    +0.173 C 
BRANCH  24  25
ATOM     25  C   UNL     1       2.484  -6.776  -5.769  0.00  0.00    +0.224 C 
ATOM     26  O   UNL     1       1.842  -7.777  -5.529  0.00  0.00    -0.275 OA
ATOM     27  N   UNL     1       3.397  -6.783  -6.760  0.00  0.00    -0.310 N 
ATOM     28  H   UNL     1       3.911  -5.983  -6.952  0.00  0.00    +0.149 HD
BRANCH  27  29
ATOM     29  C   UNL     1       3.614  -7.999  -7.548  0.00  0.00    +0.026 C 
ATOM     30  C   UNL     1       2.310  -8.395  -8.244  0.00  0.00    +0.031 C 
ATOM     31  C   UNL     1       4.695  -7.739  -8.600  0.00  0.00    +0.031 C 
ATOM     32  C   UNL     1       4.064  -9.132  -6.624  0.00  0.00    +0.031 C 
ENDBRANCH  27  29
ENDBRANCH  24  25
ENDBRANCH  23  24
ENDBRANCH  13  23
TORSDOF 5
