REMARK  Name = ZINC67438950
REMARK  5 active torsions:
REMARK  status: ('A' for Active; 'I' for Inactive)
REMARK    1  A    between atoms: C_1  and  O_2
REMARK    2  A    between atoms: O_2  and  C_3
REMARK    3  A    between atoms: C_8  and  C_9
REMARK    4  A    between atoms: N_11  and  N_12
REMARK    5  A    between atoms: C_13  and  C_15
REMARK                            x       y       z     vdW  Elec       q    Type
REMARK                         _______ _______ _______ _____ _____    ______ ____
ROOT
ATOM      1  N   UNL     1       1.108  -4.931  -0.036  0.00  0.00    -0.230 N 
ATOM      2  C   UNL     1       1.047  -6.277  -0.043  0.00  0.00    +0.267 C 
ATOM      3  O   UNL     1      -0.034  -6.838  -0.035  0.00  0.00    -0.268 OA
ATOM      4  H   UNL     1       1.968  -4.484  -0.042  0.00  0.00    +0.173 HD
ENDROOT
BRANCH   2   5
ATOM      5  C   UNL     1       2.242  -7.040  -0.059  0.00  0.00    +0.079 A 
ATOM      6  C   UNL     1       2.392  -8.415  -0.073  0.00  0.00    +0.049 A 
ATOM      7  C   UNL     1       3.667  -8.957  -0.088  0.00  0.00    +0.082 A 
ATOM      8  C   UNL     1       4.735  -8.054  -0.086  0.00  0.00    +0.128 A 
ATOM      9  S   UNL     1       3.933  -6.470  -0.073  0.00  0.00    -0.062 S 
ATOM     10  N   UNL     1       5.878  -8.727  -0.101  0.00  0.00    -0.214 NA
ATOM     11  C   UNL     1       5.622 -10.008  -0.111  0.00  0.00    +0.179 A 
ATOM     12  N   UNL     1       4.275 -10.242  -0.104  0.00  0.00    -0.293 N 
ATOM     13  C   UNL     1       3.866 -11.557  -0.114  0.00  0.00    +0.101 A 
ATOM     14  C   UNL     1       4.758 -12.547  -0.130  0.00  0.00    +0.067 A 
ATOM     15  S   UNL     1       6.303 -11.652  -0.132  0.00  0.00    -0.058 S 
ENDBRANCH   2   5
BRANCH   1  18
ATOM     16  C   UNL     1      -0.013  -2.830  -0.013  0.00  0.00    +0.264 C 
ATOM     17  O   UNL     1       1.066  -2.270  -0.021  0.00  0.00    -0.269 OA
ATOM     18  N   UNL     1      -0.073  -4.177  -0.020  0.00  0.00    -0.230 N 
ATOM     19  H   UNL     1      -0.934  -4.624  -0.014  0.00  0.00    +0.173 HD
BRANCH  16  25
ATOM     20  C   UNL     1      -1.198  -0.636   0.010  0.00  0.00    +0.132 A 
ATOM     21  C   UNL     1      -2.373   0.100   0.019  0.00  0.00    +0.046 A 
ATOM     22  C   UNL     1      -3.594  -0.545   0.028  0.00  0.00    +0.004 A 
ATOM     23  C   UNL     1      -3.656  -1.929   0.027  0.00  0.00    +0.001 A 
ATOM     24  C   UNL     1      -2.498  -2.676   0.018  0.00  0.00    +0.017 A 
ATOM     25  C   UNL     1      -1.256  -2.037   0.003  0.00  0.00    +0.080 A 
BRANCH  20  27
ATOM     26  C   UNL     1      -0.017   1.425   0.010  0.00  0.00    +0.277 C 
ATOM     27  O   UNL     1       0.002  -0.004   0.002  0.00  0.00    -0.494 OA
ENDBRANCH  20  27
ENDBRANCH  16  25
ENDBRANCH   1  18
TORSDOF 4
