REMARK  Name = ZINC41155763
REMARK  5 active torsions:
REMARK  status: ('A' for Active; 'I' for Inactive)
REMARK    1  A    between atoms: C_1  and  C_2
REMARK    2  A    between atoms: C_2  and  C_3
REMARK    3  A    between atoms: C_6  and  C_9
REMARK    4  A    between atoms: C_6  and  N_21
REMARK    5  A    between atoms: C_11  and  C_14
REMARK                            x       y       z     vdW  Elec       q    Type
REMARK                         _______ _______ _______ _____ _____    ______ ____
ROOT
ATOM      1  C   UNL     1       0.718  -0.497  -1.257  0.00  0.00    -0.011 C 
ATOM      2  C   UNL     1      -0.089  -0.097  -2.493  0.00  0.00    +0.002 C 
ATOM      3  C   UNL     1       0.627  -0.590  -3.752  0.00  0.00    -0.005 C 
ATOM      4  C   UNL     1       0.758  -2.114  -3.700  0.00  0.00    -0.006 C 
ATOM      5  C   UNL     1       1.565  -2.514  -2.464  0.00  0.00    -0.005 C 
ATOM      6  C   UNL     1       0.849  -2.021  -1.205  0.00  0.00    +0.002 C 
ENDROOT
BRANCH   4   7
ATOM      7  C   UNL     1       1.463  -2.600  -4.940  0.00  0.00    +0.161 A 
ATOM      8  N   UNL     1       1.657  -3.879  -5.269  0.00  0.00    -0.193 NA
ATOM      9  C   UNL     1       2.304  -3.956  -6.411  0.00  0.00    +0.259 A 
ATOM     10  O   UNL     1       2.540  -2.704  -6.840  0.00  0.00    -0.333 OA
ATOM     11  N   UNL     1       1.977  -1.839  -5.864  0.00  0.00    -0.062 NA
BRANCH   9  12
ATOM     12  C   UNL     1       2.702  -5.200  -7.101  0.00  0.00    +0.053 A 
ATOM     13  C   UNL     1       2.388  -6.442  -6.546  0.00  0.00    +0.014 A 
ATOM     14  C   UNL     1       2.762  -7.599  -7.196  0.00  0.00    +0.001 A 
ATOM     15  C   UNL     1       3.448  -7.532  -8.396  0.00  0.00    +0.001 A 
ATOM     16  C   UNL     1       3.763  -6.306  -8.952  0.00  0.00    +0.015 A 
ATOM     17  C   UNL     1       3.389  -5.139  -8.315  0.00  0.00    +0.026 A 
ATOM     18  I   UNL     1       3.859  -3.282  -9.164  0.00  0.00    -0.043 I 
ENDBRANCH   9  12
ENDBRANCH   4   7
BRANCH   4  19
ATOM     19  N   UNL     1      -0.579  -2.718  -3.629  0.00  0.00    +0.387 N 
ATOM     20  H   UNL     1      -1.112  -2.454  -4.444  0.00  0.00    -0.089 HD
ATOM     21  H   UNL     1      -0.493  -3.723  -3.594  0.00  0.00    -0.089 HD
ATOM     22  H   UNL     1      -1.051  -2.393  -2.799  0.00  0.00    -0.089 HD
ENDBRANCH   4  19
BRANCH   1  24
ATOM     23  C   UNL     1      -0.019   1.526   0.010  0.00  0.00    +0.004 C 
ATOM     24  C   UNL     1       0.002  -0.004   0.002  0.00  0.00    -0.000 C 
ENDBRANCH   1  24
TORSDOF 4
