REMARK  Name = ZINC00435670
REMARK  6 active torsions:
REMARK  status: ('A' for Active; 'I' for Inactive)
REMARK    1  A    between atoms: C_1  and  C_2
REMARK    2  A    between atoms: C_2  and  O_3
REMARK    3  A    between atoms: O_3  and  C_4
REMARK    4  A    between atoms: C_9  and  S_14
REMARK    5  A    between atoms: S_14  and  N_17
REMARK    6  A    between atoms: C_22  and  C_24
REMARK                            x       y       z     vdW  Elec       q    Type
REMARK                         _______ _______ _______ _____ _____    ______ ____
ROOT
ATOM      1  C   UNL     1       5.074  -0.345   6.112  0.00  0.00    +0.121 A 
ATOM      2  C   UNL     1       3.699  -0.221   6.339  0.00  0.00    +0.046 A 
ATOM      3  C   UNL     1       2.900   0.426   5.449  0.00  0.00    +0.012 A 
ATOM      4  C   UNL     1       3.459   0.979   4.283  0.00  0.00    -0.016 A 
ATOM      5  C   UNL     1       2.663   1.659   3.346  0.00  0.00    +0.037 A 
ATOM      6  C   UNL     1       3.236   2.178   2.226  0.00  0.00    +0.106 A 
ATOM      7  C   UNL     1       4.605   2.055   1.998  0.00  0.00    +0.029 A 
ATOM      8  C   UNL     1       5.408   1.409   2.886  0.00  0.00    +0.010 A 
ATOM      9  C   UNL     1       4.851   0.855   4.052  0.00  0.00    -0.014 A 
ATOM     10  C   UNL     1       5.649   0.180   4.991  0.00  0.00    +0.054 A 
ENDROOT
BRANCH   6  11
ATOM     11  S   UNL     1       2.233   3.024   1.050  0.00  0.00    +0.061 S 
ATOM     12  O   UNL     1       3.116   3.774   0.228  0.00  0.00    -0.153 OA
ATOM     13  O   UNL     1       1.174   3.629   1.780  0.00  0.00    -0.153 OA
BRANCH  11  14
ATOM     14  N   UNL     1       1.542   1.875   0.079  0.00  0.00    -0.174 NA
ATOM     15  C   UNL     1       0.167   1.418   0.320  0.00  0.00    +0.110 C 
ATOM     16  C   UNL     1      -0.637   1.568  -0.975  0.00  0.00    +0.017 C 
ATOM     17  C   UNL     1       0.081   0.828  -2.105  0.00  0.00    +0.003 C 
ATOM     18  C   UNL     1       1.465   1.444  -2.322  0.00  0.00    +0.020 C 
ATOM     19  C   UNL     1       2.293   1.292  -1.042  0.00  0.00    +0.077 C 
ATOM     20  C   UNL     1       3.626   2.027  -1.204  0.00  0.00    +0.026 C 
ENDBRANCH  11  14
ENDBRANCH   6  11
BRANCH   1  21
ATOM     21  O   UNL     1       5.846  -0.997   7.020  0.00  0.00    -0.492 OA
BRANCH  21  23
ATOM     22  C   UNL     1       6.212  -2.218   9.073  0.00  0.00    +0.048 C 
ATOM     23  C   UNL     1       5.188  -1.524   8.173  0.00  0.00    +0.225 C 
ENDBRANCH  21  23
ENDBRANCH   1  21
TORSDOF 4
