REMARK  Name = ZINC20643042
REMARK  10 active torsions:
REMARK  status: ('A' for Active; 'I' for Inactive)
REMARK    1  A    between atoms: C_1  and  C_2
REMARK    2  A    between atoms: C_2  and  C_3
REMARK    3  A    between atoms: C_3  and  C_5
REMARK    4  A    between atoms: C_3  and  S_14
REMARK    5  A    between atoms: N_7  and  C_8
REMARK    6  A    between atoms: S_14  and  C_15
REMARK    7  A    between atoms: C_25  and  C_30
REMARK    8  A    between atoms: C_30  and  C_31
REMARK    9  A    between atoms: N_33  and  C_34
REMARK   10  A    between atoms: C_34  and  C_35
REMARK                            x       y       z     vdW  Elec       q    Type
REMARK                         _______ _______ _______ _____ _____    ______ ____
ROOT
ATOM      1  C   UNL     1       5.618   1.938  -1.594  0.00  0.00    +0.170 C 
ATOM      2  N   UNL     1       6.028   1.757  -2.821  0.00  0.00    -0.225 NA
ATOM      3  C   UNL     1       5.280   1.101  -3.743  0.00  0.00    +0.077 A 
ATOM      4  C   UNL     1       5.736   0.919  -5.051  0.00  0.00    +0.028 A 
ATOM      5  C   UNL     1       4.949   0.249  -5.961  0.00  0.00    +0.002 A 
ATOM      6  C   UNL     1       3.705  -0.247  -5.596  0.00  0.00    +0.001 A 
ATOM      7  C   UNL     1       3.235  -0.079  -4.310  0.00  0.00    +0.013 A 
ATOM      8  C   UNL     1       4.016   0.595  -3.377  0.00  0.00    +0.041 A 
ATOM      9  C   UNL     1       3.553   0.801  -1.988  0.00  0.00    +0.139 C 
ATOM     10  N   UNL     1       2.445   0.440  -1.404  0.00  0.00    -0.255 NA
ATOM     11  C   UNL     1       2.499   0.901  -0.010  0.00  0.00    +0.202 C 
ATOM     12  C   UNL     1       3.841   1.592   0.099  0.00  0.00    +0.252 C 
ATOM     13  O   UNL     1       4.314   2.128   1.078  0.00  0.00    -0.272 OA
ATOM     14  N   UNL     1       4.400   1.484  -1.132  0.00  0.00    -0.200 N 
ENDROOT
BRANCH   1  15
ATOM     15  S   UNL     1       6.670   2.804  -0.477  0.00  0.00    -0.077 S 
BRANCH  15  16
ATOM     16  C   UNL     1       8.135   3.010  -1.520  0.00  0.00    +0.139 C 
BRANCH  16  17
ATOM     17  C   UNL     1       8.772   1.665  -1.763  0.00  0.00    +0.227 C 
ATOM     18  O   UNL     1       8.532   0.738  -1.019  0.00  0.00    -0.275 OA
ATOM     19  N   UNL     1       9.609   1.494  -2.805  0.00  0.00    -0.312 N 
ATOM     20  H   UNL     1       9.827   2.336  -3.479  0.00  0.00    +0.149 HD
BRANCH  19  21
ATOM     21  C   UNL     1      10.228   0.188  -3.041  0.00  0.00    +0.073 C 
ATOM     22  C   UNL     1      11.495   0.064  -2.192  0.00  0.00    +0.022 C 
ATOM     23  C   UNL     1      12.142  -1.301  -2.438  0.00  0.00    +0.002 C 
ATOM     24  C   UNL     1      12.505  -1.434  -3.918  0.00  0.00    +0.000 C 
ATOM     25  C   UNL     1      11.238  -1.310  -4.767  0.00  0.00    +0.002 C 
ATOM     26  C   UNL     1      10.591   0.055  -4.521  0.00  0.00    +0.022 C 
ENDBRANCH  19  21
ENDBRANCH  16  17
BRANCH  16  28
ATOM     27  C   UNL     1       8.543   5.335  -0.702  0.00  0.00    +0.005 C 
ATOM     28  C   UNL     1       9.136   3.929  -0.818  0.00  0.00    +0.020 C 
ENDBRANCH  16  28
ENDBRANCH  15  16
ENDBRANCH   1  15
BRANCH  11  29
ATOM     29  C   UNL     1       1.363   1.887   0.273  0.00  0.00    +0.132 C 
BRANCH  29  30
ATOM     30  C   UNL     1       0.044   1.159   0.233  0.00  0.00    +0.216 C 
ATOM     31  O   UNL     1       0.015  -0.030   0.000  0.00  0.00    -0.276 OA
ATOM     32  N   UNL     1      -1.103   1.832   0.449  0.00  0.00    -0.308 N 
ATOM     33  H   UNL     1      -1.077   2.912   0.659  0.00  0.00    +0.149 HD
BRANCH  32  34
ATOM     34  C   UNL     1      -2.386   1.126   0.404  0.00  0.00    +0.178 C 
BRANCH  34  35
ATOM     35  C   UNL     1      -3.505   2.099   0.677  0.00  0.00    +0.122 A 
ATOM     36  C   UNL     1      -4.163   2.820  -0.248  0.00  0.00    +0.046 A 
ATOM     37  C   UNL     1      -5.126   3.591   0.444  0.00  0.00    +0.041 A 
ATOM     38  C   UNL     1      -4.993   3.300   1.750  0.00  0.00    +0.195 A 
ATOM     39  O   UNL     1      -4.009   2.396   1.886  0.00  0.00    -0.466 OA
ENDBRANCH  34  35
ENDBRANCH  32  34
ENDBRANCH  29  30
ENDBRANCH  11  29
TORSDOF 9
