REMARK  Name = ZINC09926612
REMARK  7 active torsions:
REMARK  status: ('A' for Active; 'I' for Inactive)
REMARK    1  A    between atoms: C_1  and  C_2
REMARK    2  A    between atoms: C_5  and  C_8
REMARK    3  A    between atoms: C_13  and  C_17
REMARK    4  A    between atoms: C_13  and  C_18
REMARK    5  A    between atoms: C_26  and  C_27
REMARK    6  A    between atoms: C_27  and  O_29
REMARK    7  A    between atoms: O_29  and  C_30
REMARK                            x       y       z     vdW  Elec       q    Type
REMARK                         _______ _______ _______ _____ _____    ______ ____
ROOT
ATOM      1  C   UNL     1      -0.428  -4.176  -0.833  0.00  0.00    +0.093 C 
ATOM      2  C   UNL     1      -0.487  -2.672  -0.754  0.00  0.00    +0.024 C 
ATOM      3  C   UNL     1      -1.440  -2.047  -0.030  0.00  0.00    +0.019 C 
ATOM      4  C   UNL     1      -1.486  -0.541   0.056  0.00  0.00    +0.058 C 
ATOM      5  C   UNL     1      -0.069   0.025  -0.063  0.00  0.00    -0.023 C 
ATOM      6  C   UNL     1       0.526  -0.437  -1.398  0.00  0.00    +0.086 C 
ATOM      7  C   UNL     1       0.488  -1.939  -1.455  0.00  0.00    +0.162 C 
ATOM      8  O   UNL     1       1.316  -2.531  -2.119  0.00  0.00    -0.292 OA
ATOM      9  C   UNL     1      -0.120   1.554  -0.024  0.00  0.00    +0.011 C 
ATOM     10  C   UNL     1       0.791  -0.492   1.091  0.00  0.00    +0.011 C 
ATOM     11  N   UNL     1      -2.397  -2.759   0.643  0.00  0.00    -0.297 N 
ATOM     12  C   UNL     1      -3.191  -2.095   1.675  0.00  0.00    +0.129 C 
ATOM     13  C   UNL     1      -4.632  -2.564   1.692  0.00  0.00    +0.124 C 
ATOM     14  N   UNL     1      -4.781  -3.990   1.466  0.00  0.00    -0.309 N 
ATOM     15  C   UNL     1      -3.852  -4.736   0.848  0.00  0.00    +0.259 C 
ATOM     16  O   UNL     1      -4.027  -5.928   0.689  0.00  0.00    -0.269 OA
ATOM     17  C   UNL     1      -2.606  -4.090   0.360  0.00  0.00    +0.107 C 
ATOM     18  C   UNL     1      -1.708  -4.796  -0.357  0.00  0.00    +0.075 C 
ATOM     19  H   UNL     1      -5.591  -4.425   1.776  0.00  0.00    +0.149 HD
ENDROOT
BRANCH   1  24
ATOM     20  C   UNL     1       3.931  -6.074   2.451  0.00  0.00    +0.044 C 
ATOM     21  C   UNL     1       2.794  -5.579   1.595  0.00  0.00    -0.050 A 
ATOM     22  C   UNL     1       2.782  -5.848   0.239  0.00  0.00    +0.003 A 
ATOM     23  C   UNL     1       1.739  -5.395  -0.547  0.00  0.00    +0.005 A 
ATOM     24  C   UNL     1       0.708  -4.671   0.024  0.00  0.00    -0.035 A 
ATOM     25  C   UNL     1       0.723  -4.397   1.378  0.00  0.00    +0.005 A 
ATOM     26  C   UNL     1       1.763  -4.856   2.165  0.00  0.00    +0.003 A 
ENDBRANCH   1  24
BRANCH  18  27
ATOM     27  C   UNL     1      -1.990  -6.197  -0.678  0.00  0.00    +0.338 C 
ATOM     28  O   UNL     1      -1.486  -7.085  -0.017  0.00  0.00    -0.245 OA
BRANCH  27  29
ATOM     29  O   UNL     1      -2.807  -6.502  -1.706  0.00  0.00    -0.465 OA
ATOM     30  C   UNL     1      -3.041  -7.911  -1.967  0.00  0.00    +0.280 C 
ENDBRANCH  27  29
ENDBRANCH  18  27
TORSDOF 3
