REMARK  Name = ZINC39697624
REMARK  4 active torsions:
REMARK  status: ('A' for Active; 'I' for Inactive)
REMARK    1  A    between atoms: C_1  and  C_2
REMARK    2  A    between atoms: C_8  and  C_14
REMARK    3  A    between atoms: C_27  and  N_31
REMARK    4  A    between atoms: C_28  and  C_29
REMARK                            x       y       z     vdW  Elec       q    Type
REMARK                         _______ _______ _______ _____ _____    ______ ____
ROOT
ATOM      1  C   UNL     1      -1.176  -2.600   4.426  0.00  0.00    +0.084 C 
ATOM      2  C   UNL     1      -1.151  -1.948   5.785  0.00  0.00    +0.005 A 
ATOM      3  C   UNL     1      -0.801  -0.600   5.880  0.00  0.00    +0.008 A 
ATOM      4  C   UNL     1      -0.763   0.038   7.081  0.00  0.00    +0.009 A 
ATOM      5  C   UNL     1      -1.080  -0.667   8.255  0.00  0.00    -0.014 A 
ATOM      6  C   UNL     1      -1.050  -0.042   9.513  0.00  0.00    +0.008 A 
ATOM      7  C   UNL     1      -1.362  -0.759  10.628  0.00  0.00    +0.001 A 
ATOM      8  C   UNL     1      -1.712  -2.105  10.540  0.00  0.00    +0.001 A 
ATOM      9  C   UNL     1      -1.752  -2.742   9.337  0.00  0.00    +0.012 A 
ATOM     10  C   UNL     1      -1.436  -2.034   8.166  0.00  0.00    +0.025 A 
ATOM     11  C   UNL     1      -1.467  -2.665   6.902  0.00  0.00    +0.142 A 
ATOM     12  O   UNL     1      -1.812  -3.972   6.824  0.00  0.00    -0.440 OA
ATOM     13  C   UNL     1      -1.475  -4.692   5.741  0.00  0.00    +0.198 C 
ATOM     14  C   UNL     1      -1.157  -4.096   4.569  0.00  0.00    +0.095 C 
ENDROOT
BRANCH   1  22
ATOM     15  C   UNL     1       2.336  -4.979  -0.011  0.00  0.00    +0.045 C 
ATOM     16  C   UNL     1       2.633  -4.655   1.430  0.00  0.00    -0.029 A 
ATOM     17  C   UNL     1       3.740  -5.174   2.023  0.00  0.00    +0.005 A 
ATOM     18  C   UNL     1       4.073  -4.914   3.353  0.00  0.00    +0.001 A 
ATOM     19  C   UNL     1       3.297  -4.119   4.134  0.00  0.00    +0.009 A 
ATOM     20  C   UNL     1       2.089  -3.527   3.558  0.00  0.00    -0.007 A 
ATOM     21  C   UNL     1       1.280  -2.722   4.305  0.00  0.00    -0.004 C 
ATOM     22  C   UNL     1       0.050  -2.153   3.627  0.00  0.00    +0.111 C 
ATOM     23  C   UNL     1      -0.181  -2.523   2.179  0.00  0.00    +0.225 C 
ATOM     24  O   UNL     1      -1.152  -2.094   1.586  0.00  0.00    -0.275 OA
ATOM     25  N   UNL     1       0.678  -3.315   1.560  0.00  0.00    -0.284 N 
ATOM     26  C   UNL     1       1.764  -3.814   2.150  0.00  0.00    +0.043 A 
ATOM     27  H   UNL     1       0.512  -3.541   0.631  0.00  0.00    +0.155 HD
ENDBRANCH   1  22
BRANCH  13  28
ATOM     28  N   UNL     1      -1.450  -6.062   5.827  0.00  0.00    -0.328 N 
ATOM     29  H   UNL     1      -1.674  -6.500   6.663  0.00  0.00    +0.145 HD
ATOM     30  H   UNL     1      -1.208  -6.592   5.052  0.00  0.00    +0.145 HD
ENDBRANCH  13  28
BRANCH  14  31
ATOM     31  C   UNL     1      -0.802  -4.907   3.443  0.00  0.00    +0.100 C 
ATOM     32  N   UNL     1      -0.520  -5.550   2.550  0.00  0.00    -0.191 NA
ENDBRANCH  14  31
TORSDOF 3
