REMARK  Name = ZINC14812166
REMARK  10 active torsions:
REMARK  status: ('A' for Active; 'I' for Inactive)
REMARK    1  A    between atoms: C_1  and  C_2
REMARK    2  A    between atoms: C_3  and  C_27
REMARK    3  A    between atoms: C_4  and  C_26
REMARK    4  A    between atoms: C_7  and  C_8
REMARK    5  A    between atoms: C_8  and  O_10
REMARK    6  A    between atoms: O_10  and  C_11
REMARK    7  A    between atoms: C_11  and  C_13
REMARK    8  A    between atoms: C_11  and  C_14
REMARK    9  A    between atoms: N_16  and  C_17
REMARK   10  A    between atoms: C_27  and  C_29
REMARK                            x       y       z     vdW  Elec       q    Type
REMARK                         _______ _______ _______ _____ _____    ______ ____
ROOT
ATOM      1  C   UNL     1      -0.039   1.483   0.003  0.00  0.00    +0.259 C 
ATOM      2  C   UNL     1      -0.781   1.982  -1.238  0.00  0.00    +0.062 C 
ENDROOT
BRANCH   1   3
ATOM      3  C   UNL     1      -0.007  -0.024  -0.003  0.00  0.00    +0.258 C 
ATOM      4  O   UNL     1      -0.589  -0.646   0.860  0.00  0.00    -0.271 OA
ATOM      5  N   UNL     1       0.669  -0.680  -0.967  0.00  0.00    -0.281 N 
ATOM      6  H   UNL     1       1.080  -0.185  -1.693  0.00  0.00    +0.155 HD
BRANCH   5   7
ATOM      7  C   UNL     1       0.778  -2.075  -0.920  0.00  0.00    +0.053 A 
ATOM      8  C   UNL     1      -0.272  -2.838  -0.427  0.00  0.00    +0.046 A 
ATOM      9  C   UNL     1      -0.164  -4.215  -0.386  0.00  0.00    +0.061 A 
ATOM     10  C   UNL     1       0.994  -4.834  -0.828  0.00  0.00    +0.061 A 
ATOM     11  C   UNL     1       2.044  -4.075  -1.315  0.00  0.00    +0.043 A 
ATOM     12  C   UNL     1       1.938  -2.698  -1.363  0.00  0.00    +0.064 A 
ATOM     13 CL   UNL     1       3.256  -1.747  -1.975  0.00  0.00    -0.082 Cl
ATOM     14 CL   UNL     1       1.129  -6.564  -0.770  0.00  0.00    -0.082 Cl
ATOM     15 CL   UNL     1      -1.478  -5.171   0.225  0.00  0.00    -0.082 Cl
ENDBRANCH   5   7
ENDBRANCH   1   3
BRANCH   1  16
ATOM     16  O   UNL     1      -0.724   1.947   1.196  0.00  0.00    -0.448 OA
BRANCH  16  17
ATOM     17  C   UNL     1      -0.340   3.139   1.698  0.00  0.00    +0.357 C 
ATOM     18  O   UNL     1       0.543   3.772   1.152  0.00  0.00    -0.243 OA
BRANCH  17  25
ATOM     19  C   UNL     1       0.353   5.850   3.074  0.00  0.00    +0.047 C 
ATOM     20  C   UNL     1      -0.692   4.855   3.509  0.00  0.00    -0.008 A 
ATOM     21  C   UNL     1      -1.554   4.973   4.625  0.00  0.00    +0.041 A 
ATOM     22  C   UNL     1      -2.343   3.833   4.650  0.00  0.00    +0.024 A 
ATOM     23  N   UNL     1      -1.997   3.058   3.612  0.00  0.00    -0.352 N 
ATOM     24  H   UNL     1      -2.394   2.200   3.396  0.00  0.00    +0.166 HD
ATOM     25  C   UNL     1      -0.988   3.672   2.901  0.00  0.00    +0.128 A 
ATOM     26  C   UNL     1      -3.407   3.519   5.670  0.00  0.00    +0.064 C 
BRANCH  21  27
ATOM     27  C   UNL     1      -1.601   6.087   5.577  0.00  0.00    +0.162 C 
ATOM     28  O   UNL     1      -0.973   6.026   6.614  0.00  0.00    -0.292 OA
ATOM     29  C   UNL     1      -2.428   7.309   5.268  0.00  0.00    +0.091 C 
ENDBRANCH  21  27
ENDBRANCH  17  25
ENDBRANCH  16  17
ENDBRANCH   1  16
TORSDOF 6
