REMARK  Name = ZINC15605169
REMARK  9 active torsions:
REMARK  status: ('A' for Active; 'I' for Inactive)
REMARK    1  A    between atoms: C_1  and  C_2
REMARK    2  A    between atoms: C_2  and  C_3
REMARK    3  A    between atoms: C_3  and  C_4
REMARK    4  A    between atoms: C_4  and  N_5
REMARK    5  A    between atoms: C_6  and  N_32
REMARK    6  A    between atoms: C_7  and  N_14
REMARK    7  A    between atoms: N_14  and  C_15
REMARK    8  A    between atoms: C_15  and  C_16
REMARK    9  A    between atoms: C_22  and  C_24
REMARK                            x       y       z     vdW  Elec       q    Type
REMARK                         _______ _______ _______ _____ _____    ______ ____
ROOT
ATOM      1  N   UNL     1      -0.547  -2.990  -2.407  0.00  0.00    -0.256 N 
ATOM      2  C   UNL     1      -0.367  -2.439  -3.624  0.00  0.00    +0.254 C 
ATOM      3  O   UNL     1      -0.230  -3.152  -4.600  0.00  0.00    -0.270 OA
ENDROOT
BRANCH   1   6
ATOM      4  N   UNL     1      -0.094  -1.432   0.889  0.00  0.00    -0.280 N 
ATOM      5  C   UNL     1       0.118  -2.248  -0.198  0.00  0.00    +0.127 A 
ATOM      6  C   UNL     1      -0.735  -2.163  -1.280  0.00  0.00    +0.140 A 
ATOM      7  C   UNL     1      -1.792  -1.234  -1.241  0.00  0.00    +0.277 A 
ATOM      8  O   UNL     1      -2.557  -1.136  -2.185  0.00  0.00    -0.266 OA
ATOM      9  N   UNL     1      -1.952  -0.455  -0.153  0.00  0.00    -0.273 N 
ATOM     10  H   UNL     1      -2.703   0.205  -0.125  0.00  0.00    +0.173 HD
ATOM     11  C   UNL     1      -1.114  -0.555   0.894  0.00  0.00    +0.331 A 
ATOM     12  O   UNL     1      -1.282   0.161   1.863  0.00  0.00    -0.246 OA
BRANCH   5  13
ATOM     13  N   UNL     1       1.163  -3.140  -0.204  0.00  0.00    -0.343 N 
ATOM     14  H   UNL     1       1.668  -3.302   0.608  0.00  0.00    +0.144 HD
ATOM     15  H   UNL     1       1.397  -3.607  -1.022  0.00  0.00    +0.144 HD
ENDBRANCH   5  13
BRANCH   4  16
ATOM     16  C   UNL     1       0.800  -1.515   2.047  0.00  0.00    +0.128 C 
BRANCH  16  17
ATOM     17  C   UNL     1       0.254  -2.544   3.040  0.00  0.00    +0.021 C 
BRANCH  17  19
ATOM     18  C   UNL     1       0.641  -3.659   5.242  0.00  0.00    +0.004 C 
ATOM     19  C   UNL     1       1.187  -2.631   4.249  0.00  0.00    -0.002 C 
ENDBRANCH  17  19
ENDBRANCH  16  17
ENDBRANCH   4  16
ENDBRANCH   1   6
BRANCH   2  20
ATOM     20  C   UNL     1      -0.337  -0.971  -3.773  0.00  0.00    +0.072 A 
ATOM     21  C   UNL     1       0.007  -0.163  -2.687  0.00  0.00    +0.017 A 
ATOM     22  C   UNL     1       0.034   1.208  -2.832  0.00  0.00    +0.016 A 
ATOM     23  C   UNL     1      -0.279   1.786  -4.051  0.00  0.00    +0.021 A 
ATOM     24  C   UNL     1      -0.621   0.994  -5.132  0.00  0.00    +0.054 A 
ATOM     25  C   UNL     1      -0.647  -0.383  -5.003  0.00  0.00    +0.137 A 
ATOM     26  F   UNL     1      -0.976  -1.157  -6.061  0.00  0.00    -0.205 F 
ATOM     27 BR   UNL     1      -0.239   3.667  -4.239  0.00  0.00    -0.050 Br
ENDBRANCH   2  20
BRANCH   1  28
ATOM     28  C   UNL     1      -0.548  -4.447  -2.255  0.00  0.00    +0.149 C 
BRANCH  28  29
ATOM     29  C   UNL     1      -1.959  -4.963  -2.367  0.00  0.00    -0.030 A 
ATOM     30  C   UNL     1      -2.777  -4.988  -1.253  0.00  0.00    +0.005 A 
ATOM     31  C   UNL     1      -4.073  -5.457  -1.357  0.00  0.00    +0.000 A 
ATOM     32  C   UNL     1      -4.549  -5.910  -2.573  0.00  0.00    +0.000 A 
ATOM     33  C   UNL     1      -3.730  -5.890  -3.686  0.00  0.00    +0.000 A 
ATOM     34  C   UNL     1      -2.435  -5.416  -3.584  0.00  0.00    +0.005 A 
ENDBRANCH  28  29
ENDBRANCH   1  28
TORSDOF 8
