REMARK  Name = ZINC21610293
REMARK  9 active torsions:
REMARK  status: ('A' for Active; 'I' for Inactive)
REMARK    1  A    between atoms: C_1  and  C_2
REMARK    2  A    between atoms: C_9  and  C_16
REMARK    3  A    between atoms: C_11  and  O_12
REMARK    4  A    between atoms: C_16  and  S_17
REMARK    5  A    between atoms: S_17  and  C_18
REMARK    6  A    between atoms: C_21  and  C_29
REMARK    7  A    between atoms: N_22  and  C_23
REMARK    8  A    between atoms: C_33  and  O_35
REMARK    9  A    between atoms: O_35  and  C_36
REMARK                            x       y       z     vdW  Elec       q    Type
REMARK                         _______ _______ _______ _____ _____    ______ ____
ROOT
ATOM      1  S   UNL     1      -6.589   0.666  -0.183  0.00  0.00    -0.081 S 
ENDROOT
BRANCH   1   2
ATOM      2  C   UNL     1      -4.838   0.554  -0.020  0.00  0.00    +0.197 A 
ATOM      3  N   UNL     1      -4.142  -0.545   0.169  0.00  0.00    -0.122 NA
ATOM      4  N   UNL     1      -2.889  -0.267   0.243  0.00  0.00    -0.128 NA
ATOM      5  C   UNL     1      -2.707   1.026   0.107  0.00  0.00    +0.169 A 
ATOM      6  N   UNL     1      -3.951   1.594  -0.060  0.00  0.00    -0.270 N 
BRANCH   6   7
ATOM      7  C   UNL     1      -4.245   2.953  -0.237  0.00  0.00    +0.051 A 
ATOM      8  C   UNL     1      -4.077   3.844   0.815  0.00  0.00    +0.026 A 
ATOM      9  C   UNL     1      -4.362   5.183   0.636  0.00  0.00    +0.002 A 
ATOM     10  C   UNL     1      -4.826   5.636  -0.586  0.00  0.00    +0.000 A 
ATOM     11  C   UNL     1      -4.999   4.750  -1.634  0.00  0.00    +0.002 A 
ATOM     12  C   UNL     1      -4.710   3.410  -1.463  0.00  0.00    +0.026 A 
ENDBRANCH   6   7
BRANCH   5  13
ATOM     13  C   UNL     1      -1.412   1.738   0.134  0.00  0.00    +0.023 A 
ATOM     14  C   UNL     1      -0.287   1.127   0.692  0.00  0.00    +0.012 A 
ATOM     15  C   UNL     1       0.918   1.797   0.722  0.00  0.00    +0.004 A 
ATOM     16  C   UNL     1       1.019   3.072   0.195  0.00  0.00    +0.045 A 
ATOM     17  C   UNL     1      -0.093   3.685  -0.367  0.00  0.00    +0.121 A 
ATOM     18  C   UNL     1      -1.308   3.022  -0.402  0.00  0.00    +0.057 A 
BRANCH  17  19
ATOM     19  O   UNL     1       0.012   4.938  -0.883  0.00  0.00    -0.495 OA
ATOM     20  C   UNL     1       1.295   5.564  -0.814  0.00  0.00    +0.277 C 
ENDBRANCH  17  19
ENDBRANCH   5  13
ENDBRANCH   1   2
BRANCH   1  21
ATOM     21  C   UNL     1      -7.034  -1.080  -0.017  0.00  0.00    +0.113 C 
BRANCH  21  30
ATOM     22  C   UNL     1     -13.913  -1.572   5.631  0.00  0.00    +0.109 C 
ATOM     23  C   UNL     1     -12.958  -1.734   4.477  0.00  0.00    +0.214 C 
ATOM     24  O   UNL     1     -13.185  -2.553   3.612  0.00  0.00    -0.276 OA
ATOM     25  N   UNL     1     -11.850  -0.969   4.406  0.00  0.00    -0.286 N 
ATOM     26  C   UNL     1     -11.028  -1.035   3.280  0.00  0.00    +0.037 A 
ATOM     27  C   UNL     1      -9.648  -0.891   3.422  0.00  0.00    +0.024 A 
ATOM     28  C   UNL     1      -8.831  -0.952   2.331  0.00  0.00    +0.013 A 
ATOM     29  C   UNL     1      -9.381  -1.167   1.062  0.00  0.00    +0.022 A 
ATOM     30  C   UNL     1      -8.529  -1.231  -0.128  0.00  0.00    -0.020 A 
ATOM     31  C   UNL     1      -9.122  -1.436  -1.332  0.00  0.00    +0.092 A 
ATOM     32  C   UNL     1     -10.523  -1.574  -1.409  0.00  0.00    +0.285 A 
ATOM     33  O   UNL     1     -11.300  -1.509  -0.316  0.00  0.00    -0.425 OA
ATOM     34  C   UNL     1     -10.773  -1.308   0.911  0.00  0.00    +0.141 A 
ATOM     35  C   UNL     1     -11.589  -1.243   2.030  0.00  0.00    +0.070 A 
ATOM     36  H   UNL     1     -11.594  -0.294   5.235  0.00  0.00    +0.155 HD
BRANCH  32  37
ATOM     37  O   UNL     1     -11.043  -1.757  -2.496  0.00  0.00    -0.480 OA
ATOM     38  H   UNL     1     -12.134  -1.867  -2.572  0.00  0.00    +0.295 HD
ENDBRANCH  32  37
ENDBRANCH  21  30
ENDBRANCH   1  21
TORSDOF 7
