REMARK  Name = ZINC39634858
REMARK  11 active torsions:
REMARK  status: ('A' for Active; 'I' for Inactive)
REMARK    1  A    between atoms: C_1  and  C_2
REMARK    2  A    between atoms: C_2  and  C_3
REMARK    3  A    between atoms: C_2  and  N_4
REMARK    4  A    between atoms: N_4  and  C_5
REMARK    5  A    between atoms: N_4  and  C_32
REMARK    6  A    between atoms: C_5  and  C_6
REMARK    7  A    between atoms: C_6  and  N_7
REMARK    8  A    between atoms: C_8  and  C_10
REMARK    9  A    between atoms: C_21  and  C_23
REMARK   10  A    between atoms: C_32  and  C_33
REMARK   11  A    between atoms: C_32  and  C_34
REMARK                            x       y       z     vdW  Elec       q    Type
REMARK                         _______ _______ _______ _____ _____    ______ ____
ROOT
ATOM      1  C   UNL     1      -8.408  -0.415  -2.850  0.00  0.00    +0.100 C 
ATOM      2  C   UNL     1      -8.928  -1.630  -3.651  0.00  0.00    +0.121 C 
ATOM      3  N   UNL     1     -10.349  -1.762  -3.250  0.00  0.00    -0.296 N 
ATOM      4  C   UNL     1     -10.837  -0.365  -3.157  0.00  0.00    +0.115 C 
ATOM      5  C   UNL     1      -9.663   0.415  -2.532  0.00  0.00    -0.004 C 
ATOM      6  C   UNL     1      -9.554   1.800  -3.160  0.00  0.00    -0.010 C 
ATOM      7  C   UNL     1     -10.787   2.627  -2.781  0.00  0.00    -0.082 C 
ATOM      8  N   UNL     1     -10.874   2.736  -1.320  0.00  0.00    +0.379 N 
ATOM      9  C   UNL     1     -11.072   1.407  -0.729  0.00  0.00    -0.082 C 
ATOM     10  C   UNL     1      -9.852   0.529  -1.022  0.00  0.00    -0.010 C 
ATOM     11  C   UNL     1     -11.041  -2.895  -3.022  0.00  0.00    +0.248 C 
ATOM     12  O   UNL     1     -10.473  -3.971  -3.049  0.00  0.00    -0.270 OA
ATOM     13  H   UNL     1     -10.020   3.137  -0.962  0.00  0.00    -0.086 HD
ATOM     14  H   UNL     1     -11.651   3.331  -1.074  0.00  0.00    -0.086 HD
ENDROOT
BRANCH  11  15
ATOM     15  C   UNL     1     -12.481  -2.833  -2.742  0.00  0.00    +0.052 A 
ATOM     16  C   UNL     1     -13.263  -1.873  -3.302  0.00  0.00    +0.059 A 
ATOM     17  S   UNL     1     -14.810  -2.165  -2.724  0.00  0.00    -0.096 S 
ATOM     18  C   UNL     1     -14.502  -3.579  -1.703  0.00  0.00    +0.020 A 
ATOM     19  C   UNL     1     -13.120  -3.805  -1.853  0.00  0.00    +0.001 A 
ATOM     20  C   UNL     1     -12.564  -4.892  -1.150  0.00  0.00    +0.010 A 
ATOM     21  C   UNL     1     -13.357  -5.688  -0.362  0.00  0.00    +0.001 A 
ATOM     22  C   UNL     1     -14.717  -5.447  -0.235  0.00  0.00    +0.001 A 
ATOM     23  C   UNL     1     -15.288  -4.382  -0.904  0.00  0.00    +0.015 A 
ENDBRANCH  11  15
BRANCH   1  25
ATOM     24  N   UNL     1      -6.829  -0.085  -0.975  0.00  0.00    -0.317 N 
ATOM     25  C   UNL     1      -7.743  -0.871  -1.577  0.00  0.00    +0.218 C 
ATOM     26  O   UNL     1      -8.031  -1.946  -1.094  0.00  0.00    -0.275 OA
ATOM     27  H   UNL     1      -6.599   0.774  -1.361  0.00  0.00    +0.149 HD
BRANCH  24  28
ATOM     28  C   UNL     1      -6.183  -0.528   0.263  0.00  0.00    +0.085 C 
BRANCH  28  29
ATOM     29  C   UNL     1      -5.195   0.541   0.734  0.00  0.00    -0.059 C 
BRANCH  29  30
ATOM     30  N   UNL     1      -4.512   0.076   1.948  0.00  0.00    +0.384 N 
ATOM     31  H   UNL     1      -5.198  -0.174   2.645  0.00  0.00    -0.081 HD
BRANCH  30  33
ATOM     32  C   UNL     1      -4.507   2.380   2.778  0.00  0.00    -0.014 C 
ATOM     33  C   UNL     1      -3.654   1.148   2.469  0.00  0.00    -0.074 C 
ATOM     34  C   UNL     1      -2.962   0.672   3.747  0.00  0.00    -0.014 C 
ENDBRANCH  30  33
BRANCH  30  35
ATOM     35  C   UNL     1      -3.690  -1.099   1.628  0.00  0.00    -0.074 C 
ATOM     36  C   UNL     1      -2.342  -0.640   1.068  0.00  0.00    -0.014 C 
ATOM     37  C   UNL     1      -3.461  -1.922   2.897  0.00  0.00    -0.014 C 
ENDBRANCH  30  35
ENDBRANCH  29  30
ENDBRANCH  28  29
ENDBRANCH  24  28
ENDBRANCH   1  25
TORSDOF 7
