REMARK  Name = ZINC06134464
REMARK  12 active torsions:
REMARK  status: ('A' for Active; 'I' for Inactive)
REMARK    1  A    between atoms: C_1  and  C_2
REMARK    2  A    between atoms: C_2  and  C_3
REMARK    3  A    between atoms: C_2  and  C_4
REMARK    4  A    between atoms: C_4  and  C_5
REMARK    5  A    between atoms: C_5  and  N_6
REMARK    6  A    between atoms: C_7  and  C_9
REMARK    7  A    between atoms: C_9  and  C_11
REMARK    8  A    between atoms: C_9  and  N_18
REMARK    9  A    between atoms: N_18  and  C_19
REMARK   10  A    between atoms: C_26  and  C_28
REMARK   11  A    between atoms: C_29  and  N_36
REMARK   12  A    between atoms: C_30  and  C_33
REMARK                            x       y       z     vdW  Elec       q    Type
REMARK                         _______ _______ _______ _____ _____    ______ ____
ROOT
ATOM      1  N   UNL     1       3.674   0.828   0.832  0.00  0.00    -0.248 N 
ATOM      2  C   UNL     1       3.545   1.174   2.128  0.00  0.00    +0.262 C 
ATOM      3  O   UNL     1       2.439   1.254   2.630  0.00  0.00    -0.269 OA
ENDROOT
BRANCH   1   4
ATOM      4  C   UNL     1       4.946   0.736   0.255  0.00  0.00    +0.073 A 
ATOM      5  C   UNL     1       5.664   1.889  -0.033  0.00  0.00    +0.026 A 
ATOM      6  C   UNL     1       6.919   1.795  -0.602  0.00  0.00    +0.002 A 
ATOM      7  C   UNL     1       7.462   0.555  -0.886  0.00  0.00    +0.003 A 
ATOM      8  C   UNL     1       6.750  -0.596  -0.601  0.00  0.00    +0.040 A 
ATOM      9  C   UNL     1       5.495  -0.510  -0.026  0.00  0.00    +0.145 A 
ATOM     10  F   UNL     1       4.803  -1.635   0.258  0.00  0.00    -0.204 F 
ENDBRANCH   1   4
BRANCH   2  11
ATOM     11  C   UNL     1       4.736   1.453   2.933  0.00  0.00    +0.116 A 
ATOM     12  C   UNL     1       4.830   1.823   4.276  0.00  0.00    +0.076 A 
ATOM     13  C   UNL     1       6.150   2.003   4.689  0.00  0.00    +0.155 A 
ATOM     14  N   UNL     1       7.125   1.818   3.827  0.00  0.00    -0.203 NA
ATOM     15  S   UNL     1       6.453   1.405   2.463  0.00  0.00    +0.019 S 
BRANCH  13  16
ATOM     16  C   UNL     1       6.449   2.396   6.079  0.00  0.00    +0.262 C 
ATOM     17  O   UNL     1       5.542   2.565   6.871  0.00  0.00    -0.269 OA
ATOM     18  N   UNL     1       7.727   2.568   6.471  0.00  0.00    -0.324 N 
ATOM     19  H   UNL     1       8.450   2.433   5.839  0.00  0.00    +0.145 HD
ATOM     20  H   UNL     1       7.923   2.827   7.385  0.00  0.00    +0.145 HD
ENDBRANCH  13  16
BRANCH  12  21
ATOM     21  N   UNL     1       3.731   1.994   5.108  0.00  0.00    -0.355 N 
ATOM     22  H   UNL     1       2.835   1.855   4.763  0.00  0.00    +0.142 HD
ATOM     23  H   UNL     1       3.859   2.252   6.034  0.00  0.00    +0.142 HD
ENDBRANCH  12  21
ENDBRANCH   2  11
BRANCH   1  24
ATOM     24  C   UNL     1       2.482   0.548   0.027  0.00  0.00    +0.198 C 
BRANCH  24  25
ATOM     25  C   UNL     1       1.647   1.798  -0.085  0.00  0.00    -0.018 A 
ATOM     26  C   UNL     1       0.291   1.748   0.176  0.00  0.00    +0.007 A 
ATOM     27  C   UNL     1      -0.477   2.892   0.068  0.00  0.00    +0.020 A 
ATOM     28  C   UNL     1       0.115   4.090  -0.291  0.00  0.00    +0.041 A 
ATOM     29  C   UNL     1       1.473   4.139  -0.552  0.00  0.00    +0.020 A 
ATOM     30  C   UNL     1       2.238   2.993  -0.449  0.00  0.00    +0.007 A 
ATOM     31 CL   UNL     1      -0.847   5.529  -0.421  0.00  0.00    -0.084 Cl
ENDBRANCH  24  25
BRANCH  24  33
ATOM     32  N   UNL     1       2.178  -0.835  -2.001  0.00  0.00    -0.313 N 
ATOM     33  C   UNL     1       2.900   0.098  -1.349  0.00  0.00    +0.238 C 
ATOM     34  O   UNL     1       3.886   0.575  -1.870  0.00  0.00    -0.273 OA
ATOM     35  H   UNL     1       1.389  -1.216  -1.585  0.00  0.00    +0.149 HD
BRANCH  32  36
ATOM     36  C   UNL     1       2.584  -1.272  -3.339  0.00  0.00    +0.104 C 
BRANCH  36  37
ATOM     37  C   UNL     1       1.603  -2.328  -3.850  0.00  0.00    +0.022 C 
BRANCH  37  39
ATOM     38  C   UNL     1       3.379  -3.497  -5.163  0.00  0.00    +0.007 C 
ATOM     39  C   UNL     1       2.027  -2.785  -5.247  0.00  0.00    -0.016 C 
ATOM     40  C   UNL     1       0.978  -3.747  -5.810  0.00  0.00    +0.007 C 
ENDBRANCH  37  39
ENDBRANCH  36  37
ENDBRANCH  32  36
ENDBRANCH  24  33
ENDBRANCH   1  24
TORSDOF 10
