REMARK  Name = ZINC00061418
REMARK  7 active torsions:
REMARK  status: ('A' for Active; 'I' for Inactive)
REMARK    1  A    between atoms: C_1  and  C_2
REMARK    2  A    between atoms: C_3  and  C_20
REMARK    3  A    between atoms: C_4  and  C_12
REMARK    4  A    between atoms: C_6  and  C_10
REMARK    5  A    between atoms: C_7  and  N_9
REMARK    6  A    between atoms: C_20  and  O_22
REMARK    7  A    between atoms: O_22  and  C_23
REMARK                            x       y       z     vdW  Elec       q    Type
REMARK                         _______ _______ _______ _____ _____    ______ ____
ROOT
ATOM      1  C   UNL     1      -2.724   6.800  -2.366  0.00  0.00    +0.087 C 
ATOM      2  C   UNL     1      -2.047   6.314  -1.111  0.00  0.00    +0.115 C 
ATOM      3  C   UNL     1      -0.796   5.845  -1.191  0.00  0.00    +0.087 C 
ATOM      4  C   UNL     1      -0.070   5.349   0.030  0.00  0.00    +0.107 C 
ATOM      5  C   UNL     1      -0.772   5.834   1.270  0.00  0.00    +0.098 C 
ATOM      6  C   UNL     1      -2.039   6.309   1.208  0.00  0.00    +0.198 C 
ATOM      7  O   UNL     1      -2.719   6.366   0.049  0.00  0.00    -0.445 OA
ENDROOT
BRANCH   4   8
ATOM      8  C   UNL     1      -0.050   3.842   0.023  0.00  0.00    +0.002 A 
ATOM      9  C   UNL     1       1.157   3.166   0.008  0.00  0.00    +0.046 A 
ATOM     10  C   UNL     1       1.175   1.783   0.000  0.00  0.00    +0.020 A 
ATOM     11  C   UNL     1      -0.013   1.076   0.008  0.00  0.00    +0.003 A 
ATOM     12  C   UNL     1      -1.219   1.750   0.017  0.00  0.00    +0.020 A 
ATOM     13  C   UNL     1      -1.238   3.134   0.031  0.00  0.00    +0.046 A 
ATOM     14 CL   UNL     1      -2.754   3.981   0.050  0.00  0.00    -0.083 Cl
ATOM     15 CL   UNL     1       2.649   4.054  -0.002  0.00  0.00    -0.083 Cl
ENDBRANCH   4   8
BRANCH   6  16
ATOM     16  N   UNL     1      -2.646   6.745   2.359  0.00  0.00    -0.328 N 
ATOM     17  H   UNL     1      -2.168   6.710   3.202  0.00  0.00    +0.145 HD
ATOM     18  H   UNL     1      -3.553   7.088   2.329  0.00  0.00    +0.145 HD
ENDBRANCH   6  16
BRANCH   5  19
ATOM     19  C   UNL     1      -0.093   5.792   2.530  0.00  0.00    +0.101 C 
ATOM     20  N   UNL     1       0.446   5.759   3.530  0.00  0.00    -0.191 NA
ENDBRANCH   5  19
BRANCH   3  21
ATOM     21  C   UNL     1      -0.144   5.817  -2.448  0.00  0.00    +0.339 C 
ATOM     22  O   UNL     1      -0.722   6.216  -3.442  0.00  0.00    -0.245 OA
BRANCH  21  23
ATOM     23  O   UNL     1       1.117   5.347  -2.543  0.00  0.00    -0.465 OA
ATOM     24  C   UNL     1       1.713   5.348  -3.842  0.00  0.00    +0.280 C 
ENDBRANCH  21  23
ENDBRANCH   3  21
TORSDOF 5
