REMARK  Name = ZINC59294001
REMARK  9 active torsions:
REMARK  status: ('A' for Active; 'I' for Inactive)
REMARK    1  A    between atoms: C_1  and  O_2
REMARK    2  A    between atoms: O_2  and  C_3
REMARK    3  A    between atoms: C_3  and  C_5
REMARK    4  A    between atoms: C_6  and  N_39
REMARK    5  A    between atoms: C_11  and  C_12
REMARK    6  A    between atoms: C_20  and  C_29
REMARK    7  A    between atoms: C_21  and  C_23
REMARK    8  A    between atoms: N_31  and  C_32
REMARK    9  A    between atoms: C_32  and  C_33
REMARK                            x       y       z     vdW  Elec       q    Type
REMARK                         _______ _______ _______ _____ _____    ______ ____
ROOT
ATOM      1  C   UNL     1      -0.362  -2.642  -2.399  0.00  0.00    +0.087 C 
ATOM      2  C   UNL     1       0.463  -3.209  -3.311  0.00  0.00    +0.115 C 
ATOM      3  N   UNL     1       0.684  -4.585  -3.408  0.00  0.00    -0.257 N 
ATOM      4  C   UNL     1       1.507  -5.138  -4.320  0.00  0.00    +0.271 A 
ATOM      5  O   UNL     1       2.108  -4.444  -5.119  0.00  0.00    -0.266 OA
ATOM      6  C   UNL     1       1.663  -6.599  -4.327  0.00  0.00    +0.079 A 
ATOM      7  C   UNL     1       2.422  -7.381  -5.135  0.00  0.00    +0.028 C 
ATOM      8  S   UNL     1       0.583  -7.067  -2.985  0.00  0.00    -0.065 S 
ATOM      9  C   UNL     1       0.035  -5.434  -2.532  0.00  0.00    +0.099 A 
ATOM     10  C   UNL     1      -0.822  -5.024  -1.561  0.00  0.00    +0.057 C 
ATOM     11  C   UNL     1      -1.087  -3.538  -1.416  0.00  0.00    +0.097 C 
ENDROOT
BRANCH   7  12
ATOM     12  C   UNL     1       2.278  -8.843  -5.090  0.00  0.00    -0.024 A 
ATOM     13  C   UNL     1       1.240  -9.425  -4.353  0.00  0.00    +0.008 A 
ATOM     14  C   UNL     1       1.112 -10.797  -4.316  0.00  0.00    +0.001 A 
ATOM     15  C   UNL     1       2.006 -11.598  -5.005  0.00  0.00    +0.000 A 
ATOM     16  C   UNL     1       3.035 -11.030  -5.737  0.00  0.00    +0.001 A 
ATOM     17  C   UNL     1       3.173  -9.660  -5.789  0.00  0.00    +0.008 A 
ENDBRANCH   7  12
BRANCH  11  18
ATOM     18  C   UNL     1      -0.700  -3.120  -0.021  0.00  0.00    -0.035 A 
ATOM     19  C   UNL     1       0.625  -3.160   0.370  0.00  0.00    +0.004 A 
ATOM     20  C   UNL     1       0.980  -2.776   1.650  0.00  0.00    +0.000 A 
ATOM     21  C   UNL     1       0.010  -2.351   2.538  0.00  0.00    +0.000 A 
ATOM     22  C   UNL     1      -1.315  -2.309   2.147  0.00  0.00    +0.000 A 
ATOM     23  C   UNL     1      -1.670  -2.690   0.866  0.00  0.00    +0.004 A 
ENDBRANCH  11  18
BRANCH  10  24
ATOM     24  C   UNL     1      -1.442  -5.953  -0.710  0.00  0.00    +0.244 C 
ATOM     25  O   UNL     1      -1.214  -7.143  -0.837  0.00  0.00    -0.270 OA
ATOM     26  N   UNL     1      -2.290  -5.528   0.248  0.00  0.00    -0.307 N 
ATOM     27  H   UNL     1      -2.471  -4.580   0.349  0.00  0.00    +0.149 HD
BRANCH  26  28
ATOM     28  C   UNL     1      -2.937  -6.497   1.136  0.00  0.00    +0.139 C 
BRANCH  28  29
ATOM     29  C   UNL     1      -3.828  -5.769   2.109  0.00  0.00    -0.030 A 
ATOM     30  C   UNL     1      -3.321  -5.337   3.321  0.00  0.00    +0.005 A 
ATOM     31  C   UNL     1      -4.139  -4.669   4.213  0.00  0.00    +0.000 A 
ATOM     32  C   UNL     1      -5.463  -4.433   3.894  0.00  0.00    +0.000 A 
ATOM     33  C   UNL     1      -5.970  -4.864   2.683  0.00  0.00    +0.000 A 
ATOM     34  C   UNL     1      -5.151  -5.528   1.788  0.00  0.00    +0.005 A 
ENDBRANCH  28  29
ENDBRANCH  26  28
ENDBRANCH  10  24
BRANCH   2  35
ATOM     35  N   UNL     1       1.117  -2.386  -4.190  0.00  0.00    -0.344 N 
ATOM     36  H   UNL     1       1.431  -1.516  -3.898  0.00  0.00    +0.144 HD
ATOM     37  H   UNL     1       1.266  -2.674  -5.105  0.00  0.00    +0.144 HD
ENDBRANCH   2  35
BRANCH   1  38
ATOM     38  C   UNL     1      -0.536  -1.250  -2.360  0.00  0.00    +0.339 C 
ATOM     39  O   UNL     1      -0.022  -0.548  -3.213  0.00  0.00    -0.245 OA
BRANCH  38  41
ATOM     40  C   UNL     1      -1.411   0.733  -1.401  0.00  0.00    +0.280 C 
ATOM     41  O   UNL     1      -1.275  -0.689  -1.378  0.00  0.00    -0.465 OA
ENDBRANCH  38  41
ENDBRANCH   1  38
TORSDOF 8
