REMARK  Name = ZINC64567415
REMARK  10 active torsions:
REMARK  status: ('A' for Active; 'I' for Inactive)
REMARK    1  A    between atoms: C_1  and  C_2
REMARK    2  A    between atoms: C_2  and  C_3
REMARK    3  A    between atoms: C_2  and  O_4
REMARK    4  A    between atoms: O_4  and  C_5
REMARK    5  A    between atoms: C_10  and  C_11
REMARK    6  A    between atoms: C_14  and  C_17
REMARK    7  A    between atoms: C_20  and  O_25
REMARK    8  A    between atoms: C_21  and  O_23
REMARK    9  A    between atoms: O_23  and  C_24
REMARK   10  A    between atoms: C_26  and  C_28
REMARK                            x       y       z     vdW  Elec       q    Type
REMARK                         _______ _______ _______ _____ _____    ______ ____
ROOT
ATOM      1  C   UNL     1      -4.011  -1.400  -0.178  0.00  0.00    +0.243 C 
ATOM      2  N   UNL     1      -3.873  -0.306   0.499  0.00  0.00    -0.135 NA
ATOM      3  N   UNL     1      -5.119   0.137   0.966  0.00  0.00    -0.146 N 
ATOM      4  C   UNL     1      -6.094  -0.854   0.479  0.00  0.00    +0.320 C 
ATOM      5  O   UNL     1      -5.300  -1.802  -0.249  0.00  0.00    -0.447 OA
ATOM      6  C   UNL     1      -5.370   1.237   1.706  0.00  0.00    +0.235 C 
ATOM      7  O   UNL     1      -6.508   1.496   2.041  0.00  0.00    -0.274 OA
ATOM      8  C   UNL     1      -4.239   2.144   2.116  0.00  0.00    +0.111 C 
ENDROOT
BRANCH   1  14
ATOM      9  C   UNL     1      -1.580  -1.638  -0.686  0.00  0.00    +0.133 A 
ATOM     10  C   UNL     1      -0.533  -2.328  -1.275  0.00  0.00    +0.047 A 
ATOM     11  C   UNL     1      -0.779  -3.487  -1.985  0.00  0.00    +0.019 A 
ATOM     12  C   UNL     1      -2.072  -3.969  -2.113  0.00  0.00    +0.019 A 
ATOM     13  C   UNL     1      -3.126  -3.294  -1.532  0.00  0.00    +0.032 A 
ATOM     14  C   UNL     1      -2.888  -2.124  -0.808  0.00  0.00    +0.080 A 
ATOM     15 BR   UNL     1      -2.393  -5.557  -3.088  0.00  0.00    -0.050 Br
BRANCH   9  16
ATOM     16  O   UNL     1      -1.339  -0.499   0.012  0.00  0.00    -0.489 OA
BRANCH  16  18
ATOM     17  C   UNL     1      -0.011   1.505   0.263  0.00  0.00    +0.051 C 
ATOM     18  C   UNL     1       0.001  -0.002  -0.000  0.00  0.00    +0.167 C 
ATOM     19  C   UNL     1       0.815  -0.703   1.089  0.00  0.00    +0.051 C 
ENDBRANCH  16  18
ENDBRANCH   9  16
ENDBRANCH   1  14
BRANCH   4  20
ATOM     20  C   UNL     1      -7.100  -0.200  -0.432  0.00  0.00    +0.017 A 
ATOM     21  C   UNL     1      -6.732   0.894  -1.193  0.00  0.00    +0.013 A 
ATOM     22  C   UNL     1      -7.651   1.498  -2.031  0.00  0.00    +0.049 A 
ATOM     23  C   UNL     1      -8.944   1.006  -2.110  0.00  0.00    +0.158 A 
ATOM     24  C   UNL     1      -9.314  -0.096  -1.345  0.00  0.00    +0.162 A 
ATOM     25  C   UNL     1      -8.387  -0.699  -0.510  0.00  0.00    +0.058 A 
BRANCH  24  26
ATOM     26  O   UNL     1     -10.582  -0.582  -1.419  0.00  0.00    -0.491 OA
ATOM     27  C   UNL     1     -10.891  -1.715  -0.605  0.00  0.00    +0.277 C 
ENDBRANCH  24  26
BRANCH  23  28
ATOM     28  O   UNL     1      -9.849   1.599  -2.934  0.00  0.00    -0.503 OA
ATOM     29  H   UNL     1      -9.866   1.232  -3.828  0.00  0.00    +0.292 HD
ENDBRANCH  23  28
ENDBRANCH   4  20
TORSDOF 6
