REMARK  Name = ZINC12766571
REMARK  10 active torsions:
REMARK  status: ('A' for Active; 'I' for Inactive)
REMARK    1  A    between atoms: C_1  and  C_2
REMARK    2  A    between atoms: C_4  and  C_34
REMARK    3  A    between atoms: C_6  and  C_29
REMARK    4  A    between atoms: C_10  and  C_11
REMARK    5  A    between atoms: N_13  and  C_14
REMARK    6  A    between atoms: C_14  and  C_15
REMARK    7  A    between atoms: C_15  and  C_17
REMARK    8  A    between atoms: C_15  and  N_62
REMARK    9  A    between atoms: C_20  and  O_23
REMARK   10  A    between atoms: O_23  and  C_24
REMARK                            x       y       z     vdW  Elec       q    Type
REMARK                         _______ _______ _______ _____ _____    ______ ____
ROOT
ATOM      1  C   UNL     1      -4.946  -0.459   2.728  0.00  0.00    +0.251 C 
ATOM      2  O   UNL     1      -4.423  -0.180   3.790  0.00  0.00    -0.270 OA
ATOM      3  N   UNL     1      -4.273  -0.269   1.575  0.00  0.00    -0.312 N 
ATOM      4  H   UNL     1      -4.690  -0.492   0.728  0.00  0.00    +0.149 HD
ENDROOT
BRANCH   1  14
ATOM      5  C   UNL     1      -6.684  -0.987   5.158  0.00  0.00    +0.046 C 
ATOM      6  C   UNL     1      -7.140  -1.262   3.748  0.00  0.00    -0.020 A 
ATOM      7  C   UNL     1      -8.419  -1.786   3.512  0.00  0.00    +0.032 A 
ATOM      8  C   UNL     1      -9.434  -2.126   4.444  0.00  0.00    +0.051 A 
ATOM      9  N   UNL     1     -10.575  -2.607   4.011  0.00  0.00    -0.229 NA
ATOM     10  C   UNL     1     -10.823  -2.792   2.715  0.00  0.00    +0.197 A 
ATOM     11  N   UNL     1      -9.914  -2.494   1.791  0.00  0.00    -0.217 NA
ATOM     12  C   UNL     1      -8.748  -2.007   2.148  0.00  0.00    +0.113 A 
ATOM     13  S   UNL     1      -7.289  -1.478   1.286  0.00  0.00    -0.064 S 
ATOM     14  C   UNL     1      -6.310  -1.003   2.701  0.00  0.00    +0.079 A 
ATOM     15  C   UNL     1      -9.203  -1.935   5.921  0.00  0.00    +0.066 C 
BRANCH  10  16
ATOM     16  C   UNL     1     -12.127  -3.338   2.297  0.00  0.00    +0.172 A 
ATOM     17  C   UNL     1     -12.520  -3.580   1.016  0.00  0.00    +0.053 A 
ATOM     18  C   UNL     1     -13.828  -4.094   1.083  0.00  0.00    +0.042 A 
ATOM     19  C   UNL     1     -14.168  -4.142   2.388  0.00  0.00    +0.196 A 
ATOM     20  O   UNL     1     -13.137  -3.690   3.118  0.00  0.00    -0.460 OA
ENDBRANCH  10  16
ENDBRANCH   1  14
BRANCH   3  21
ATOM     21  C   UNL     1      -2.913   0.273   1.602  0.00  0.00    +0.094 C 
BRANCH  21  22
ATOM     22  C   UNL     1      -2.381   0.388   0.172  0.00  0.00    -0.020 C 
BRANCH  22  23
ATOM     23  C   UNL     1      -1.032   1.059   0.190  0.00  0.00    -0.059 A 
ATOM     24  C   UNL     1      -0.045   0.649  -0.688  0.00  0.00    +0.005 A 
ATOM     25  C   UNL     1       1.190   1.266  -0.677  0.00  0.00    +0.046 A 
ATOM     26  C   UNL     1       1.443   2.295   0.219  0.00  0.00    +0.120 A 
ATOM     27  C   UNL     1       0.454   2.701   1.102  0.00  0.00    +0.046 A 
ATOM     28  C   UNL     1      -0.781   2.080   1.088  0.00  0.00    +0.005 A 
BRANCH  26  29
ATOM     29  O   UNL     1       2.658   2.904   0.231  0.00  0.00    -0.495 OA
ATOM     30  C   UNL     1       2.847   3.955   1.180  0.00  0.00    +0.277 C 
ENDBRANCH  26  29
ENDBRANCH  22  23
BRANCH  22  35
ATOM     31  C   UNL     1      -3.334   2.601  -0.181  0.00  0.00    -0.078 C 
ATOM     32  C   UNL     1      -3.908   3.357  -1.405  0.00  0.00    -0.020 C 
ATOM     33  C   UNL     1      -3.277   2.609  -2.602  0.00  0.00    -0.020 C 
ATOM     34  C   UNL     1      -2.893   1.223  -2.051  0.00  0.00    -0.078 C 
ATOM     35  N   UNL     1      -3.321   1.207  -0.652  0.00  0.00    +0.385 N 
ATOM     36  H   UNL     1      -4.264   0.808  -0.582  0.00  0.00    -0.081 HD
ENDBRANCH  22  35
ENDBRANCH  21  22
ENDBRANCH   3  21
TORSDOF 7
