REMARK  Name = ZINC36213593
REMARK  10 active torsions:
REMARK  status: ('A' for Active; 'I' for Inactive)
REMARK    1  A    between atoms: C_1  and  C_2
REMARK    2  A    between atoms: C_7  and  C_9
REMARK    3  A    between atoms: C_7  and  C_10
REMARK    4  A    between atoms: N_13  and  C_17
REMARK    5  A    between atoms: C_17  and  C_18
REMARK    6  A    between atoms: C_18  and  O_20
REMARK    7  A    between atoms: O_20  and  C_21
REMARK    8  A    between atoms: C_21  and  C_23
REMARK    9  A    between atoms: C_21  and  C_24
REMARK   10  A    between atoms: N_29  and  C_30
REMARK                            x       y       z     vdW  Elec       q    Type
REMARK                         _______ _______ _______ _____ _____    ______ ____
ROOT
ATOM      1  C   UNL     1      -1.431  -5.488  -2.763  0.00  0.00    +0.326 C 
ATOM      2  O   UNL     1      -1.060  -5.764  -1.647  0.00  0.00    -0.249 OA
ENDROOT
BRANCH   1   3
ATOM      3  C   UNL     1      -2.030  -4.133  -3.044  0.00  0.00    +0.238 C 
BRANCH   3  15
ATOM      4  C   UNL     1      -0.019   1.528   0.010  0.00  0.00    +0.007 C 
ATOM      5  C   UNL     1       0.002  -0.004   0.002  0.00  0.00    -0.011 C 
ATOM      6  C   UNL     1      -1.435  -0.528   0.021  0.00  0.00    +0.038 C 
ATOM      7  C   UNL     1      -1.428  -2.050  -0.036  0.00  0.00    +0.113 C 
ATOM      8  C   UNL     1      -0.576  -2.676   1.050  0.00  0.00    +0.041 C 
ATOM      9  C   UNL     1       0.781  -2.031   1.272  0.00  0.00    -0.032 C 
ATOM     10  C   UNL     1       0.719  -0.508   1.253  0.00  0.00    +0.009 C 
ATOM     11  C   UNL     1       1.794  -2.527   0.236  0.00  0.00    +0.011 C 
ATOM     12  C   UNL     1       1.294  -2.463   2.663  0.00  0.00    +0.011 C 
ATOM     13  C   UNL     1      -1.044  -2.534  -1.413  0.00  0.00    +0.247 C 
ATOM     14  O   UNL     1      -0.057  -2.253  -2.059  0.00  0.00    -0.273 OA
ATOM     15  N   UNL     1      -2.050  -3.343  -1.811  0.00  0.00    -0.213 N 
ATOM     16  C   UNL     1      -3.063  -3.330  -0.939  0.00  0.00    +0.310 C 
ATOM     17  O   UNL     1      -4.089  -3.967  -1.084  0.00  0.00    -0.252 OA
ATOM     18  N   UNL     1      -2.817  -2.537   0.118  0.00  0.00    -0.285 N 
ATOM     19  H   UNL     1      -3.419  -2.317   0.843  0.00  0.00    +0.151 HD
ENDBRANCH   3  15
ENDBRANCH   1   3
BRANCH   1  20
ATOM     20  O   UNL     1      -1.311  -6.387  -3.752  0.00  0.00    -0.451 OA
BRANCH  20  21
ATOM     21  C   UNL     1      -0.735  -7.650  -3.414  0.00  0.00    +0.259 C 
ATOM     22  C   UNL     1      -1.841  -8.616  -2.984  0.00  0.00    +0.062 C 
BRANCH  21  23
ATOM     23  C   UNL     1      -0.016  -8.211  -4.614  0.00  0.00    +0.261 C 
ATOM     24  O   UNL     1       0.001  -7.591  -5.655  0.00  0.00    -0.271 OA
ATOM     25  N   UNL     1       0.608  -9.403  -4.529  0.00  0.00    -0.237 N 
ATOM     26  C   UNL     1       1.251  -9.905  -5.602  0.00  0.00    +0.306 C 
ATOM     27  O   UNL     1       1.268  -9.283  -6.646  0.00  0.00    -0.252 OA
ATOM     28  N   UNL     1       1.874 -11.097  -5.517  0.00  0.00    -0.296 N 
ATOM     29  H   UNL     1       0.594  -9.899  -3.696  0.00  0.00    +0.159 HD
ATOM     30  H   UNL     1       1.861 -11.593  -4.684  0.00  0.00    +0.151 HD
BRANCH  28  31
ATOM     31  C   UNL     1       2.573 -11.642  -6.683  0.00  0.00    +0.074 C 
ATOM     32  C   UNL     1       1.577 -12.392  -7.570  0.00  0.00    +0.022 C 
ATOM     33  C   UNL     1       2.307 -12.962  -8.788  0.00  0.00    +0.002 C 
ATOM     34  C   UNL     1       3.401 -13.925  -8.322  0.00  0.00    +0.000 C 
ATOM     35  C   UNL     1       4.397 -13.175  -7.436  0.00  0.00    +0.002 C 
ATOM     36  C   UNL     1       3.667 -12.605  -6.218  0.00  0.00    +0.022 C 
ENDBRANCH  28  31
ENDBRANCH  21  23
ENDBRANCH  20  21
ENDBRANCH   1  20
TORSDOF 6
