REMARK  Name = ZINC13122345
REMARK  5 active torsions:
REMARK  status: ('A' for Active; 'I' for Inactive)
REMARK    1  A    between atoms: C_7  and  N_12
REMARK    2  A    between atoms: C_8  and  O_11
REMARK    3  A    between atoms: N_13  and  C_14
REMARK    4  A    between atoms: N_15  and  C_16
REMARK    5  A    between atoms: C_16  and  C_17
REMARK                            x       y       z     vdW  Elec       q    Type
REMARK                         _______ _______ _______ _____ _____    ______ ____
ROOT
ATOM      1  C   UNL     1      -0.017   1.388   0.010  0.00  0.00    +0.032 A 
ATOM      2  C   UNL     1       1.173   2.088   0.002  0.00  0.00    +0.043 A 
ATOM      3  C   UNL     1       2.382   1.409  -0.013  0.00  0.00    +0.042 A 
ATOM      4  C   UNL     1       2.413   0.029  -0.021  0.00  0.00    +0.066 A 
ATOM      5  C   UNL     1       1.224  -0.693  -0.013  0.00  0.00    +0.070 A 
ATOM      6  C   UNL     1       0.002  -0.004   0.002  0.00  0.00    +0.033 A 
ATOM      7  C   UNL     1      -1.052  -1.039   0.006  0.00  0.00    +0.155 A 
ATOM      8  C   UNL     1      -0.389  -2.267  -0.006  0.00  0.00    +0.219 A 
ATOM      9  N   UNL     1       0.949  -2.051  -0.018  0.00  0.00    -0.323 N 
ATOM     10  H   UNL     1       1.621  -2.751  -0.028  0.00  0.00    +0.169 HD
ATOM     11 CL   UNL     1       3.935  -0.806  -0.040  0.00  0.00    -0.081 Cl
ATOM     12 CL   UNL     1       1.155   3.824   0.011  0.00  0.00    -0.083 Cl
ENDROOT
BRANCH   8  13
ATOM     13  O   UNL     1      -0.986  -3.478  -0.007  0.00  0.00    -0.492 OA
ATOM     14  H   UNL     1      -1.168  -3.827  -0.890  0.00  0.00    +0.294 HD
ENDBRANCH   8  13
BRANCH   7  15
ATOM     15  N   UNL     1      -2.375  -0.839   0.020  0.00  0.00    -0.141 NA
ATOM     16  N   UNL     1      -3.180  -1.847   0.022  0.00  0.00    -0.123 NA
BRANCH  16  17
ATOM     17  C   UNL     1      -4.513  -1.646   0.036  0.00  0.00    +0.195 C 
ATOM     18  N   UNL     1      -5.369  -2.719   0.039  0.00  0.00    -0.360 N 
ATOM     19  S   UNL     1      -5.118  -0.100   0.050  0.00  0.00    -0.010 SA
ATOM     20  H   UNL     1      -5.015  -3.622   0.030  0.00  0.00    +0.162 HD
BRANCH  18  21
ATOM     21  C   UNL     1      -6.817  -2.500   0.054  0.00  0.00    +0.146 C 
BRANCH  21  22
ATOM     22  C   UNL     1      -7.537  -3.850   0.053  0.00  0.00    +0.137 C 
ATOM     23  C   UNL     1      -9.062  -3.631  -0.053  0.00  0.00    +0.035 C 
ATOM     24  C   UNL     1      -9.618  -4.716   0.909  0.00  0.00    +0.031 C 
ATOM     25  C   UNL     1      -8.515  -4.740   1.996  0.00  0.00    +0.160 C 
ATOM     26  O   UNL     1      -7.282  -4.537   1.284  0.00  0.00    -0.375 OA
ENDBRANCH  21  22
ENDBRANCH  18  21
ENDBRANCH  16  17
ENDBRANCH   7  15
TORSDOF 5
