REMARK  Name = ZINC39979710
REMARK  11 active torsions:
REMARK  status: ('A' for Active; 'I' for Inactive)
REMARK    1  A    between atoms: C_1  and  C_2
REMARK    2  A    between atoms: C_2  and  C_3
REMARK    3  A    between atoms: C_2  and  C_4
REMARK    4  A    between atoms: C_4  and  C_6
REMARK    5  A    between atoms: C_4  and  N_10
REMARK    6  A    between atoms: C_6  and  O_8
REMARK    7  A    between atoms: O_8  and  C_9
REMARK    8  A    between atoms: C_11  and  N_13
REMARK    9  A    between atoms: C_17  and  C_20
REMARK   10  A    between atoms: C_23  and  O_26
REMARK   11  A    between atoms: O_26  and  C_27
REMARK                            x       y       z     vdW  Elec       q    Type
REMARK                         _______ _______ _______ _____ _____    ______ ____
ROOT
ATOM      1  N   UNL     1      -3.373   1.608  -2.243  0.00  0.00    -0.139 NA
ATOM      2  C   UNL     1      -3.951   2.807  -2.229  0.00  0.00    +0.165 A 
ATOM      3  N   UNL     1      -4.650   3.417  -3.225  0.00  0.00    -0.335 N 
ATOM      4  H   UNL     1      -4.781   2.975  -4.079  0.00  0.00    +0.168 HD
ATOM      5  C   UNL     1      -5.166   4.663  -2.999  0.00  0.00    +0.055 A 
ATOM      6  C   UNL     1      -4.939   5.206  -1.783  0.00  0.00    +0.074 A 
ATOM      7  S   UNL     1      -3.997   3.926  -0.975  0.00  0.00    -0.060 S 
ENDROOT
BRANCH   5   8
ATOM      8  C   UNL     1      -5.936   5.383  -4.037  0.00  0.00    -0.001 A 
ATOM      9  C   UNL     1      -6.157   4.791  -5.281  0.00  0.00    +0.013 A 
ATOM     10  C   UNL     1      -6.875   5.465  -6.246  0.00  0.00    +0.046 A 
ATOM     11  C   UNL     1      -7.379   6.731  -5.981  0.00  0.00    +0.120 A 
ATOM     12  C   UNL     1      -7.161   7.324  -4.745  0.00  0.00    +0.046 A 
ATOM     13  C   UNL     1      -6.448   6.654  -3.773  0.00  0.00    +0.013 A 
BRANCH  11  14
ATOM     14  O   UNL     1      -8.086   7.393  -6.935  0.00  0.00    -0.495 OA
ATOM     15  C   UNL     1      -8.575   8.692  -6.596  0.00  0.00    +0.277 C 
ENDBRANCH  11  14
ENDBRANCH   5   8
BRANCH   1  17
ATOM     16  N   UNL     1      -2.142  -0.048  -1.174  0.00  0.00    -0.284 N 
ATOM     17  C   UNL     1      -2.727   1.166  -1.160  0.00  0.00    +0.326 C 
ATOM     18  O   UNL     1      -2.667   1.860  -0.160  0.00  0.00    -0.251 OA
ATOM     19  H   UNL     1      -2.190  -0.601  -1.970  0.00  0.00    +0.151 HD
BRANCH  16  20
ATOM     20  C   UNL     1      -1.433  -0.534   0.013  0.00  0.00    +0.186 C 
BRANCH  20  22
ATOM     21  C   UNL     1      -0.019   1.526   0.010  0.00  0.00    +0.009 C 
ATOM     22  C   UNL     1       0.002  -0.004   0.002  0.00  0.00    +0.014 C 
ATOM     23  C   UNL     1       0.742  -0.511   1.242  0.00  0.00    +0.009 C 
ENDBRANCH  20  22
BRANCH  20  24
ATOM     24  C   UNL     1      -1.413  -2.041   0.005  0.00  0.00    +0.328 C 
ATOM     25  O   UNL     1      -1.936  -2.647  -0.900  0.00  0.00    -0.249 OA
BRANCH  24  26
ATOM     26  O   UNL     1      -0.813  -2.709   1.002  0.00  0.00    -0.467 OA
ATOM     27  C   UNL     1      -0.832  -4.136   0.930  0.00  0.00    +0.280 C 
ENDBRANCH  24  26
ENDBRANCH  20  24
ENDBRANCH  16  20
ENDBRANCH   1  17
TORSDOF 7
