REMARK  Name = ZINC63161921
REMARK  3 active torsions:
REMARK  status: ('A' for Active; 'I' for Inactive)
REMARK    1  A    between atoms: C_6  and  C_7
REMARK    2  A    between atoms: N_15  and  C_16
REMARK    3  A    between atoms: C_18  and  C_24
REMARK                            x       y       z     vdW  Elec       q    Type
REMARK                         _______ _______ _______ _____ _____    ______ ____
ROOT
ATOM      1  C   UNL     1      -2.476  -0.782   1.275  0.00  0.00    +0.166 C 
ATOM      2  C   UNL     1      -2.530  -0.711  -0.255  0.00  0.00    +0.145 C 
ATOM      3  N   UNL     1      -3.254  -1.893  -0.749  0.00  0.00    -0.280 N 
ATOM      4  C   UNL     1      -2.836  -3.216  -0.259  0.00  0.00    +0.137 C 
ATOM      5  C   UNL     1      -2.767  -3.164   1.271  0.00  0.00    +0.179 C 
ATOM      6  O   UNL     1      -1.958  -2.055   1.669  0.00  0.00    -0.369 OA
ATOM      7  C   UNL     1      -4.271  -1.768  -1.625  0.00  0.00    +0.307 C 
ATOM      8  O   UNL     1      -4.669  -0.663  -1.941  0.00  0.00    -0.252 OA
ATOM      9  N   UNL     1      -4.848  -2.867  -2.150  0.00  0.00    -0.265 N 
ATOM     10  H   UNL     1      -4.532  -3.748  -1.897  0.00  0.00    +0.157 HD
ENDROOT
BRANCH   9  11
ATOM     11  C   UNL     1      -5.905  -2.736  -3.062  0.00  0.00    +0.100 A 
ATOM     12  C   UNL     1      -6.984  -3.575  -2.996  0.00  0.00    +0.042 A 
ATOM     13  C   UNL     1      -8.027  -3.422  -3.920  0.00  0.00    +0.073 A 
ATOM     14  C   UNL     1      -7.960  -2.455  -4.863  0.00  0.00    +0.098 A 
ATOM     15  N   UNL     1      -6.889  -1.621  -4.930  0.00  0.00    -0.327 N 
ATOM     16  H   UNL     1      -6.859  -0.933  -5.614  0.00  0.00    +0.168 HD
ATOM     17  C   UNL     1      -5.871  -1.734  -4.056  0.00  0.00    +0.270 A 
ATOM     18  O   UNL     1      -4.918  -0.975  -4.125  0.00  0.00    -0.266 OA
BRANCH  13  19
ATOM     19  C   UNL     1      -9.223  -4.337  -3.863  0.00  0.00    +0.419 C 
ATOM     20  F   UNL     1     -10.123  -3.992  -4.877  0.00  0.00    -0.166 F 
ATOM     21  F   UNL     1      -8.807  -5.661  -4.038  0.00  0.00    -0.166 F 
ATOM     22  F   UNL     1      -9.851  -4.207  -2.619  0.00  0.00    -0.166 F 
ENDBRANCH  13  19
ENDBRANCH   9  11
BRANCH   1  28
ATOM     23  C   UNL     1      -2.130   1.473   2.304  0.00  0.00    +0.009 A 
ATOM     24  C   UNL     1      -1.309   2.476   2.784  0.00  0.00    +0.039 A 
ATOM     25  C   UNL     1       0.066   2.315   2.758  0.00  0.00    +0.123 A 
ATOM     26  C   UNL     1       0.617   1.150   2.252  0.00  0.00    +0.039 A 
ATOM     27  C   UNL     1      -0.207   0.149   1.772  0.00  0.00    +0.009 A 
ATOM     28  C   UNL     1      -1.579   0.310   1.798  0.00  0.00    -0.017 A 
ATOM     29  F   UNL     1       0.870   3.295   3.227  0.00  0.00    -0.205 F 
ENDBRANCH   1  28
TORSDOF 3
