REMARK  Name = ZINC22310737
REMARK  3 active torsions:
REMARK  status: ('A' for Active; 'I' for Inactive)
REMARK    1  A    between atoms: C_7  and  C_13
REMARK    2  A    between atoms: N_15  and  C_16
REMARK    3  A    between atoms: C_19  and  C_22
REMARK                            x       y       z     vdW  Elec       q    Type
REMARK                         _______ _______ _______ _____ _____    ______ ____
ROOT
ATOM      1  C   UNL     1      -1.911   0.712  -2.115  0.00  0.00    +0.225 C 
ATOM      2  O   UNL     1      -2.817   1.184  -2.768  0.00  0.00    -0.275 OA
ATOM      3  N   UNL     1      -2.065  -0.485  -1.514  0.00  0.00    -0.285 N 
ATOM      4  H   UNL     1      -1.216  -0.953  -0.995  0.00  0.00    +0.155 HD
ENDROOT
BRANCH   1  11
ATOM      5  C   UNL     1      -0.320   4.022  -4.737  0.00  0.00    +0.000 A 
ATOM      6  C   UNL     1      -0.856   5.145  -4.133  0.00  0.00    +0.002 A 
ATOM      7  C   UNL     1      -1.314   5.080  -2.832  0.00  0.00    +0.023 A 
ATOM      8  C   UNL     1      -1.235   3.884  -2.130  0.00  0.00    +0.037 A 
ATOM      9  C   UNL     1      -0.696   2.759  -2.739  0.00  0.00    -0.014 A 
ATOM     10  C   UNL     1      -0.240   2.830  -4.041  0.00  0.00    +0.006 A 
ATOM     11  C   UNL     1      -0.611   1.462  -1.977  0.00  0.00    +0.116 C 
ATOM     12  C   UNL     1      -0.347   1.754  -0.499  0.00  0.00    +0.113 C 
ATOM     13  C   UNL     1      -1.304   2.807  -0.008  0.00  0.00    +0.218 C 
ATOM     14  O   UNL     1      -1.726   2.750   1.128  0.00  0.00    -0.275 OA
ATOM     15  N   UNL     1      -1.696   3.811  -0.812  0.00  0.00    -0.285 N 
ATOM     16  H   UNL     1      -2.384   4.578  -0.426  0.00  0.00    +0.155 HD
ENDBRANCH   1  11
BRANCH   3  17
ATOM     17  C   UNL     1      -3.304  -1.129  -1.550  0.00  0.00    +0.033 A 
ATOM     18  C   UNL     1      -4.476  -0.381  -1.533  0.00  0.00    +0.024 A 
ATOM     19  C   UNL     1      -5.699  -1.014  -1.573  0.00  0.00    +0.012 A 
ATOM     20  C   UNL     1      -5.761  -2.408  -1.620  0.00  0.00    +0.007 A 
ATOM     21  C   UNL     1      -4.583  -3.156  -1.631  0.00  0.00    +0.012 A 
ATOM     22  C   UNL     1      -3.363  -2.518  -1.596  0.00  0.00    +0.024 A 
BRANCH  20  23
ATOM     23  C   UNL     1      -7.072  -3.090  -1.658  0.00  0.00    +0.109 A 
ATOM     24  N   UNL     1      -7.330  -4.378  -1.710  0.00  0.00    -0.239 NA
ATOM     25  C   UNL     1      -8.587  -4.864  -1.735  0.00  0.00    +0.079 A 
ATOM     26  C   UNL     1      -9.000  -6.217  -1.786  0.00  0.00    +0.029 A 
ATOM     27  C   UNL     1     -10.320  -6.542  -1.813  0.00  0.00    +0.002 A 
ATOM     28  C   UNL     1     -11.311  -5.570  -1.792  0.00  0.00    +0.001 A 
ATOM     29  C   UNL     1     -10.950  -4.236  -1.743  0.00  0.00    +0.017 A 
ATOM     30  C   UNL     1      -9.620  -3.897  -1.715  0.00  0.00    +0.040 A 
ATOM     31  S   UNL     1      -8.709  -2.373  -1.654  0.00  0.00    -0.067 S 
ENDBRANCH  20  23
ENDBRANCH   3  17
TORSDOF 3
