REMARK  Name = ZINC29020333
REMARK  4 active torsions:
REMARK  status: ('A' for Active; 'I' for Inactive)
REMARK    1  A    between atoms: C_3  and  S_18
REMARK    2  A    between atoms: C_6  and  C_7
REMARK    3  A    between atoms: S_18  and  N_21
REMARK    4  A    between atoms: N_21  and  C_22
REMARK                            x       y       z     vdW  Elec       q    Type
REMARK                         _______ _______ _______ _____ _____    ______ ____
ROOT
ATOM      1  C   UNL     1       3.182   1.036  -0.324  0.00  0.00    +0.015 A 
ATOM      2  C   UNL     1       4.220   1.941  -0.241  0.00  0.00    +0.029 A 
ATOM      3  C   UNL     1       3.955   3.297  -0.166  0.00  0.00    +0.109 A 
ATOM      4  C   UNL     1       2.650   3.756  -0.180  0.00  0.00    +0.029 A 
ATOM      5  C   UNL     1       1.603   2.862  -0.268  0.00  0.00    +0.015 A 
ATOM      6  C   UNL     1       1.862   1.493  -0.344  0.00  0.00    +0.037 A 
ENDROOT
BRANCH   6   7
ATOM      7  C   UNL     1       0.745   0.529  -0.438  0.00  0.00    +0.250 C 
ATOM      8  O   UNL     1      -0.402   0.930  -0.455  0.00  0.00    -0.270 OA
ATOM      9  N   UNL     1       0.999  -0.792  -0.510  0.00  0.00    -0.261 N 
ATOM     10  C   UNL     1      -0.051  -1.697  -0.599  0.00  0.00    +0.165 A 
ATOM     11  N   UNL     1      -1.343  -1.464  -0.620  0.00  0.00    -0.229 NA
ATOM     12  C   UNL     1      -2.247  -2.450  -0.713  0.00  0.00    +0.054 A 
ATOM     13  C   UNL     1      -1.748  -3.707  -0.775  0.00  0.00    +0.014 A 
ATOM     14  S   UNL     1       0.007  -3.430  -0.703  0.00  0.00    -0.057 S 
ATOM     15  C   UNL     1      -2.826  -4.742  -0.875  0.00  0.00    +0.045 C 
ATOM     16  C   UNL     1      -4.085  -3.953  -1.302  0.00  0.00    +0.011 C 
ATOM     17  C   UNL     1      -3.772  -2.542  -0.764  0.00  0.00    +0.056 C 
ATOM     18  H   UNL     1       2.038  -1.154  -0.500  0.00  0.00    +0.157 HD
ENDBRANCH   6   7
BRANCH   3  19
ATOM     19  S   UNL     1       5.287   4.445  -0.053  0.00  0.00    +0.072 S 
ATOM     20  O   UNL     1       6.452   3.760  -0.492  0.00  0.00    -0.150 OA
ATOM     21  O   UNL     1       4.838   5.649  -0.659  0.00  0.00    -0.150 OA
BRANCH  19  22
ATOM     22  N   UNL     1       5.511   4.779   1.554  0.00  0.00    -0.216 N 
ATOM     23  H   UNL     1       5.352   5.800   1.931  0.00  0.00    +0.174 HD
BRANCH  22  24
ATOM     24  C   UNL     1       5.899   3.767   2.427  0.00  0.00    +0.051 A 
ATOM     25  C   UNL     1       4.993   3.217   3.333  0.00  0.00    +0.042 A 
ATOM     26  C   UNL     1       5.416   2.212   4.177  0.00  0.00    +0.084 A 
ATOM     27  N   UNL     1       6.663   1.779   4.142  0.00  0.00    -0.367 N 
ATOM     28  C   UNL     1       7.551   2.278   3.303  0.00  0.00    +0.084 A 
ATOM     29  C   UNL     1       7.207   3.281   2.422  0.00  0.00    +0.042 A 
ATOM     30  H   UNL     1       6.987   0.980   4.825  0.00  0.00    +0.165 HD
ENDBRANCH  22  24
ENDBRANCH  19  22
ENDBRANCH   3  19
TORSDOF 4
