REMARK  Name = ZINC34793425
REMARK  10 active torsions:
REMARK  status: ('A' for Active; 'I' for Inactive)
REMARK    1  A    between atoms: C_1  and  C_2
REMARK    2  A    between atoms: C_2  and  N_3
REMARK    3  A    between atoms: C_6  and  C_11
REMARK    4  A    between atoms: N_21  and  C_23
REMARK    5  A    between atoms: C_23  and  C_25
REMARK    6  A    between atoms: C_23  and  C_26
REMARK    7  A    between atoms: N_28  and  C_29
REMARK    8  A    between atoms: N_28  and  C_30
REMARK    9  A    between atoms: C_30  and  C_31
REMARK   10  A    between atoms: C_30  and  C_32
REMARK                            x       y       z     vdW  Elec       q    Type
REMARK                         _______ _______ _______ _____ _____    ______ ____
ROOT
ATOM      1  N   UNL     1      -1.107   1.328  -0.238  0.00  0.00    -0.257 N 
ATOM      2  C   UNL     1      -1.406   0.776  -1.451  0.00  0.00    +0.042 C 
ATOM      3  C   UNL     1      -0.433   0.370  -2.293  0.00  0.00    +0.058 C 
ATOM      4  C   UNL     1       1.004   0.548  -1.847  0.00  0.00    +0.143 C 
ATOM      5  N   UNL     1       1.220   1.154  -0.522  0.00  0.00    -0.288 N 
ATOM      6  C   UNL     1       0.143   1.514   0.204  0.00  0.00    +0.307 C 
ATOM      7  O   UNL     1       0.312   2.019   1.296  0.00  0.00    -0.252 OA
ATOM      8  C   UNL     1      -0.995  -0.162  -3.471  0.00  0.00    +0.247 C 
ATOM      9  O   UNL     1      -0.348  -0.604  -4.403  0.00  0.00    -0.270 OA
ATOM     10  N   UNL     1      -2.339  -0.119  -3.431  0.00  0.00    -0.281 N 
ATOM     11  C   UNL     1      -2.718   0.481  -2.143  0.00  0.00    +0.160 C 
ATOM     12  H   UNL     1       2.118   1.294  -0.181  0.00  0.00    +0.151 HD
ENDROOT
BRANCH   4  13
ATOM     13  C   UNL     1       1.663  -0.807  -1.851  0.00  0.00    -0.004 A 
ATOM     14  C   UNL     1       1.718  -1.552  -0.688  0.00  0.00    +0.008 A 
ATOM     15  C   UNL     1       2.323  -2.795  -0.691  0.00  0.00    +0.020 A 
ATOM     16  C   UNL     1       2.873  -3.294  -1.858  0.00  0.00    +0.042 A 
ATOM     17  C   UNL     1       2.818  -2.549  -3.022  0.00  0.00    +0.040 A 
ATOM     18  C   UNL     1       2.208  -1.307  -3.020  0.00  0.00    +0.048 A 
ATOM     19 CL   UNL     1       2.133  -0.374  -4.482  0.00  0.00    -0.083 Cl
ATOM     20 CL   UNL     1       3.633  -4.855  -1.862  0.00  0.00    -0.083 Cl
ENDBRANCH   4  13
BRANCH   1  22
ATOM     21  C   UNL     1      -2.581   3.200   0.316  0.00  0.00    +0.025 C 
ATOM     22  C   UNL     1      -2.216   1.746   0.624  0.00  0.00    +0.111 C 
ENDBRANCH   1  22
BRANCH  10  23
ATOM     23  C   UNL     1      -3.255  -0.583  -4.476  0.00  0.00    +0.160 C 
ATOM     24  C   UNL     1      -3.033  -2.077  -4.723  0.00  0.00    +0.038 C 
BRANCH  23  25
ATOM     25  C   UNL     1      -2.994   0.181  -5.749  0.00  0.00    +0.236 C 
ATOM     26  O   UNL     1      -1.959   0.799  -5.883  0.00  0.00    -0.274 OA
ATOM     27  N   UNL     1      -3.910   0.177  -6.737  0.00  0.00    -0.300 N 
ATOM     28  C   UNL     1      -3.615   0.836  -8.012  0.00  0.00    +0.132 C 
BRANCH  27  29
ATOM     29  C   UNL     1      -5.201  -0.486  -6.537  0.00  0.00    +0.070 C 
ATOM     30  C   UNL     1      -6.319   0.558  -6.559  0.00  0.00    +0.028 C 
ATOM     31  C   UNL     1      -5.431  -1.503  -7.657  0.00  0.00    +0.028 C 
ENDBRANCH  27  29
ENDBRANCH  23  25
ENDBRANCH  10  23
TORSDOF 5
