REMARK  Name = ZINC39237425
REMARK  5 active torsions:
REMARK  status: ('A' for Active; 'I' for Inactive)
REMARK    1  A    between atoms: C_3  and  C_6
REMARK    2  A    between atoms: C_9  and  C_34
REMARK    3  A    between atoms: C_15  and  C_19
REMARK    4  A    between atoms: N_21  and  C_22
REMARK    5  A    between atoms: C_22  and  C_23
REMARK                            x       y       z     vdW  Elec       q    Type
REMARK                         _______ _______ _______ _____ _____    ______ ____
ROOT
ATOM      1  C   UNL     1       3.599   0.625  -0.029  0.00  0.00    -0.000 C 
ATOM      2  C   UNL     1       4.081   0.388  -1.460  0.00  0.00    +0.021 C 
ATOM      3  C   UNL     1       5.606   0.188  -1.488  0.00  0.00    +0.174 C 
ATOM      4  N   UNL     1       5.919  -0.888  -0.555  0.00  0.00    -0.245 NA
ATOM      5  C   UNL     1       5.526  -0.465   0.817  0.00  0.00    +0.030 C 
ATOM      6  N   UNL     1       4.068  -0.447   0.869  0.00  0.00    +0.397 N 
ATOM      7  C   UNL     1       6.176  -1.539   1.697  0.00  0.00    +0.091 C 
ATOM      8  C   UNL     1       7.385  -2.020   0.855  0.00  0.00    +0.111 C 
ATOM      9  N   UNL     1       7.321  -1.246  -0.417  0.00  0.00    -0.254 NA
ATOM     10  H   UNL     1       3.762  -0.259   1.813  0.00  0.00    -0.082 HD
ATOM     11  H   UNL     1       7.902  -0.423  -0.369  0.00  0.00    +0.141 HD
ATOM     12  H   UNL     1       3.703  -1.335   0.561  0.00  0.00    -0.082 HD
ENDROOT
BRANCH   1  15
ATOM     13  C   UNL     1      -0.016   1.341   0.009  0.00  0.00    +0.041 A 
ATOM     14  C   UNL     1       1.331   1.769  -0.001  0.00  0.00    +0.043 A 
ATOM     15  C   UNL     1       2.092   0.660  -0.014  0.00  0.00    +0.091 A 
ATOM     16  O   UNL     1       1.282  -0.411  -0.012  0.00  0.00    -0.469 OA
ATOM     17  C   UNL     1       0.002  -0.004   0.002  0.00  0.00    +0.195 A 
ENDBRANCH   1  15
BRANCH   7  18
ATOM     18  C   UNL     1       6.639  -0.946   3.003  0.00  0.00    +0.217 C 
ATOM     19  O   UNL     1       6.470   0.234   3.226  0.00  0.00    -0.275 OA
ATOM     20  N   UNL     1       7.240  -1.727   3.922  0.00  0.00    -0.310 N 
ATOM     21  H   UNL     1       7.375  -2.671   3.744  0.00  0.00    +0.149 HD
BRANCH  20  22
ATOM     22  C   UNL     1       7.690  -1.150   5.192  0.00  0.00    +0.157 C 
BRANCH  22  23
ATOM     23  C   UNL     1       8.324  -2.226   6.035  0.00  0.00    +0.034 A 
ATOM     24  H   UNL     1       6.684  -3.076   6.997  0.00  0.00    +0.166 HD
ATOM     25  C   UNL     1       9.640  -2.487   6.089  0.00  0.00    +0.032 A 
ATOM     26  C   UNL     1       9.817  -3.600   7.025  0.00  0.00    +0.001 A 
ATOM     27  C   UNL     1      10.927  -4.309   7.490  0.00  0.00    +0.030 A 
ATOM     28  C   UNL     1      10.751  -5.332   8.395  0.00  0.00    +0.042 A 
ATOM     29  C   UNL     1       9.479  -5.661   8.844  0.00  0.00    +0.022 A 
ATOM     30  C   UNL     1       8.375  -4.972   8.394  0.00  0.00    +0.027 A 
ATOM     31  C   UNL     1       8.529  -3.934   7.481  0.00  0.00    +0.047 A 
ATOM     32  N   UNL     1       7.645  -3.076   6.865  0.00  0.00    -0.357 N 
ATOM     33 CL   UNL     1      12.128  -6.216   8.976  0.00  0.00    -0.084 Cl
ENDBRANCH  22  23
ENDBRANCH  20  22
ENDBRANCH   7  18
BRANCH   3  34
ATOM     34  C   UNL     1       6.054  -0.198  -2.900  0.00  0.00    +0.406 C 
ATOM     35  F   UNL     1       5.705   0.820  -3.794  0.00  0.00    -0.169 F 
ATOM     36  F   UNL     1       7.441  -0.378  -2.916  0.00  0.00    -0.169 F 
ATOM     37  F   UNL     1       5.425  -1.388  -3.279  0.00  0.00    -0.169 F 
ENDBRANCH   3  34
TORSDOF 5
