REMARK  Name = ZINC66482803
REMARK  7 active torsions:
REMARK  status: ('A' for Active; 'I' for Inactive)
REMARK    1  A    between atoms: C_1  and  C_2
REMARK    2  A    between atoms: C_7  and  C_31
REMARK    3  A    between atoms: N_12  and  C_16
REMARK    4  A    between atoms: C_16  and  C_17
REMARK    5  A    between atoms: C_17  and  C_19
REMARK    6  A    between atoms: C_17  and  O_30
REMARK    7  A    between atoms: C_19  and  N_20
REMARK                            x       y       z     vdW  Elec       q    Type
REMARK                         _______ _______ _______ _____ _____    ______ ____
ROOT
ATOM      1  C   UNL     1       0.777   1.438   4.394  0.00  0.00    +0.147 C 
ENDROOT
BRANCH   1  11
ATOM      2  C   UNL     1      -0.019   1.526   0.010  0.00  0.00    +0.010 C 
ATOM      3  C   UNL     1       0.002  -0.004   0.002  0.00  0.00    +0.019 C 
ATOM      4  C   UNL     1       0.718  -0.498  -1.258  0.00  0.00    +0.006 C 
ATOM      5  C   UNL     1       0.756  -2.027  -1.255  0.00  0.00    +0.001 C 
ATOM      6  C   UNL     1       1.516  -2.519  -0.021  0.00  0.00    +0.006 C 
ATOM      7  C   UNL     1       0.803  -2.032   1.243  0.00  0.00    +0.019 C 
ATOM      8  C   UNL     1       0.739  -0.509   1.238  0.00  0.00    +0.118 C 
ATOM      9  C   UNL     1       0.069  -0.004   2.495  0.00  0.00    +0.247 C 
ATOM     10  O   UNL     1      -1.064  -0.228   2.863  0.00  0.00    -0.273 OA
ATOM     11  N   UNL     1       0.998   0.746   3.122  0.00  0.00    -0.222 N 
ATOM     12  C   UNL     1       2.148   0.781   2.437  0.00  0.00    +0.309 C 
ATOM     13  O   UNL     1       3.133   1.393   2.801  0.00  0.00    -0.252 OA
ATOM     14  N   UNL     1       2.091   0.063   1.300  0.00  0.00    -0.284 N 
ATOM     15  C   UNL     1      -0.617  -2.602   1.279  0.00  0.00    +0.010 C 
ATOM     16  H   UNL     1       2.801  -0.054   0.650  0.00  0.00    +0.151 HD
ENDBRANCH   1  11
BRANCH   1  17
ATOM     17  C   UNL     1       1.160   0.512   5.551  0.00  0.00    +0.116 C 
BRANCH  17  18
ATOM     18  O   UNL     1       0.355  -0.668   5.504  0.00  0.00    -0.392 OA
ATOM     19  H   UNL     1      -0.594  -0.499   5.575  0.00  0.00    +0.210 HD
ENDBRANCH  17  18
BRANCH  17  20
ATOM     20  C   UNL     1       0.928   1.234   6.880  0.00  0.00    -0.045 C 
BRANCH  20  21
ATOM     21  N   UNL     1       1.407   0.393   7.984  0.00  0.00    +0.384 N 
ATOM     22  C   UNL     1       1.088   1.036   9.268  0.00  0.00    -0.074 C 
ATOM     23  C   UNL     1       1.310   0.022  10.391  0.00  0.00    +0.017 C 
ATOM     24  C   UNL     1       2.678  -0.596  10.256  0.00  0.00    -0.048 A 
ATOM     25  C   UNL     1       3.213  -1.270  11.343  0.00  0.00    +0.004 A 
ATOM     26  C   UNL     1       4.462  -1.851  11.256  0.00  0.00    +0.000 A 
ATOM     27  C   UNL     1       5.183  -1.761  10.080  0.00  0.00    +0.000 A 
ATOM     28  C   UNL     1       4.651  -1.088   8.998  0.00  0.00    +0.002 A 
ATOM     29  C   UNL     1       3.397  -0.502   9.084  0.00  0.00    -0.061 A 
ATOM     30  C   UNL     1       2.860   0.229   7.881  0.00  0.00    -0.043 C 
ATOM     31  H   UNL     1       0.961  -0.511   7.938  0.00  0.00    -0.081 HD
ENDBRANCH  20  21
ENDBRANCH  17  20
ENDBRANCH   1  17
TORSDOF 5
