REMARK  Name = ZINC00664000
REMARK  7 active torsions:
REMARK  status: ('A' for Active; 'I' for Inactive)
REMARK    1  A    between atoms: C_4  and  C_33
REMARK    2  A    between atoms: C_5  and  C_7
REMARK    3  A    between atoms: C_7  and  O_8
REMARK    4  A    between atoms: O_8  and  C_9
REMARK    5  A    between atoms: C_12  and  C_16
REMARK    6  A    between atoms: C_25  and  N_29
REMARK    7  A    between atoms: C_26  and  C_27
REMARK                            x       y       z     vdW  Elec       q    Type
REMARK                         _______ _______ _______ _____ _____    ______ ____
ROOT
ATOM      1  C   UNL     1       1.173   3.598   0.012  0.00  0.00    +0.098 C 
ATOM      2  C   UNL     1       1.175   2.092   0.002  0.00  0.00    +0.011 A 
ATOM      3  C   UNL     1       2.382   1.414  -0.013  0.00  0.00    +0.057 A 
ATOM      4  C   UNL     1       2.405   0.030  -0.022  0.00  0.00    +0.167 A 
ATOM      5  C   UNL     1       1.208  -0.683  -0.013  0.00  0.00    +0.170 A 
ATOM      6  C   UNL     1       0.002  -0.004   0.002  0.00  0.00    +0.096 A 
ATOM      7  C   UNL     1      -0.017   1.385   0.010  0.00  0.00    +0.138 A 
ATOM      8  O   UNL     1      -1.209   2.033   0.019  0.00  0.00    -0.441 OA
ATOM      9  C   UNL     1      -1.277   3.321  -0.350  0.00  0.00    +0.199 C 
ATOM     10  C   UNL     1      -0.182   4.118  -0.378  0.00  0.00    +0.098 C 
ATOM     11  O   UNL     1       1.495  -2.018  -0.023  0.00  0.00    -0.452 OA
ATOM     12  C   UNL     1       2.875  -2.117   0.375  0.00  0.00    +0.466 C 
ATOM     13  O   UNL     1       3.442  -0.859  -0.037  0.00  0.00    -0.453 OA
ENDROOT
BRANCH   1  17
ATOM     14  C   UNL     1       2.149   4.989   3.934  0.00  0.00    +0.139 A 
ATOM     15  C   UNL     1       2.950   5.333   2.855  0.00  0.00    +0.047 A 
ATOM     16  C   UNL     1       2.632   4.882   1.588  0.00  0.00    +0.008 A 
ATOM     17  C   UNL     1       1.517   4.088   1.395  0.00  0.00    -0.033 A 
ATOM     18  C   UNL     1       0.713   3.747   2.468  0.00  0.00    +0.028 A 
ATOM     19  C   UNL     1       1.030   4.191   3.738  0.00  0.00    +0.083 A 
ATOM     20 CL   UNL     1       0.025   3.758   5.086  0.00  0.00    -0.080 Cl
BRANCH  14  21
ATOM     21  O   UNL     1       2.460   5.431   5.181  0.00  0.00    -0.486 OA
BRANCH  21  22
ATOM     22  C   UNL     1       3.627   6.247   5.308  0.00  0.00    +0.265 C 
BRANCH  22  27
ATOM     23  C   UNL     1       3.080   6.566   9.030  0.00  0.00    +0.000 A 
ATOM     24  C   UNL     1       4.148   7.362   9.409  0.00  0.00    +0.001 A 
ATOM     25  C   UNL     1       5.053   7.801   8.465  0.00  0.00    +0.019 A 
ATOM     26  C   UNL     1       4.890   7.442   7.126  0.00  0.00    +0.058 A 
ATOM     27  C   UNL     1       3.811   6.639   6.751  0.00  0.00    +0.007 A 
ATOM     28  C   UNL     1       2.910   6.211   7.704  0.00  0.00    +0.008 A 
BRANCH  26  29
ATOM     29  C   UNL     1       5.825   7.896   6.141  0.00  0.00    +0.100 C 
ATOM     30  N   UNL     1       6.567   8.255   5.359  0.00  0.00    -0.191 NA
ENDBRANCH  26  29
ENDBRANCH  22  27
ENDBRANCH  21  22
ENDBRANCH  14  21
ENDBRANCH   1  17
BRANCH   9  31
ATOM     31  N   UNL     1      -2.492   3.845  -0.716  0.00  0.00    -0.328 N 
ATOM     32  H   UNL     1      -2.557   4.774  -0.989  0.00  0.00    +0.145 HD
ATOM     33  H   UNL     1      -3.285   3.287  -0.701  0.00  0.00    +0.145 HD
ENDBRANCH   9  31
BRANCH  10  34
ATOM     34  C   UNL     1      -0.319   5.484  -0.786  0.00  0.00    +0.101 C 
ATOM     35  N   UNL     1      -0.427   6.567  -1.110  0.00  0.00    -0.191 NA
ENDBRANCH  10  34
TORSDOF 7
