REMARK  Name = ZINC21272461
REMARK  10 active torsions:
REMARK  status: ('A' for Active; 'I' for Inactive)
REMARK    1  A    between atoms: C_4  and  C_7
REMARK    2  A    between atoms: C_7  and  C_9
REMARK    3  A    between atoms: C_7  and  N_16
REMARK    4  A    between atoms: C_17  and  C_19
REMARK    5  A    between atoms: C_19  and  S_20
REMARK    6  A    between atoms: S_20  and  C_21
REMARK    7  A    between atoms: C_24  and  C_27
REMARK    8  A    between atoms: N_25  and  N_26
REMARK    9  A    between atoms: C_27  and  O_28
REMARK   10  A    between atoms: O_28  and  C_29
REMARK                            x       y       z     vdW  Elec       q    Type
REMARK                         _______ _______ _______ _____ _____    ______ ____
ROOT
ATOM      1  C   UNL     1      -0.013   1.086   0.008  0.00  0.00    +0.173 C 
ENDROOT
BRANCH   1   3
ATOM      2  N   UNL     1      -0.242   1.246   2.466  0.00  0.00    -0.304 N 
ATOM      3  C   UNL     1      -0.718   1.572   1.248  0.00  0.00    +0.224 C 
ATOM      4  O   UNL     1      -1.714   2.256   1.150  0.00  0.00    -0.275 OA
ATOM      5  H   UNL     1       0.662   0.625   2.555  0.00  0.00    +0.150 HD
BRANCH   2   6
ATOM      6  C   UNL     1      -0.927   1.718   3.671  0.00  0.00    +0.134 C 
BRANCH   6   7
ATOM      7  C   UNL     1       0.051   1.776   4.816  0.00  0.00    -0.023 A 
ATOM      8  C   UNL     1       0.988   0.772   4.975  0.00  0.00    +0.007 A 
ATOM      9  C   UNL     1       1.889   0.827   6.022  0.00  0.00    +0.020 A 
ATOM     10  C   UNL     1       1.847   1.882   6.916  0.00  0.00    +0.041 A 
ATOM     11  C   UNL     1       0.905   2.884   6.759  0.00  0.00    +0.020 A 
ATOM     12  C   UNL     1       0.008   2.830   5.709  0.00  0.00    +0.007 A 
ATOM     13 CL   UNL     1       2.974   1.948   8.235  0.00  0.00    -0.084 Cl
ENDBRANCH   6   7
BRANCH   6  17
ATOM     14  C   UNL     1      -4.104  -0.966   4.647  0.00  0.00    +0.000 A 
ATOM     15  C   UNL     1      -4.286   0.398   4.780  0.00  0.00    +0.000 A 
ATOM     16  C   UNL     1      -3.258   1.266   4.464  0.00  0.00    +0.006 A 
ATOM     17  C   UNL     1      -2.048   0.771   4.015  0.00  0.00    -0.023 A 
ATOM     18  C   UNL     1      -1.867  -0.592   3.877  0.00  0.00    +0.006 A 
ATOM     19  C   UNL     1      -2.894  -1.461   4.197  0.00  0.00    +0.000 A 
ENDBRANCH   6  17
ENDBRANCH   2   6
ENDBRANCH   1   3
BRANCH   1  20
ATOM     20  S   UNL     1      -0.888   1.685  -1.458  0.00  0.00    -0.075 S 
BRANCH  20  21
ATOM     21  C   UNL     1       0.122   0.990  -2.724  0.00  0.00    +0.209 A 
ATOM     22  N   UNL     1       1.198   0.258  -2.549  0.00  0.00    -0.121 NA
ATOM     23  N   UNL     1       1.684  -0.082  -3.689  0.00  0.00    -0.128 NA
ATOM     24  C   UNL     1       0.958   0.414  -4.651  0.00  0.00    +0.189 A 
ATOM     25  N   UNL     1      -0.063   1.115  -4.071  0.00  0.00    -0.225 N 
BRANCH  25  26
ATOM     26  N   UNL     1      -1.060   1.799  -4.706  0.00  0.00    -0.295 N 
ATOM     27  H   UNL     1      -1.096   1.822  -5.805  0.00  0.00    +0.163 HD
ATOM     28  H   UNL     1      -1.827   2.325  -4.119  0.00  0.00    +0.163 HD
ENDBRANCH  25  26
BRANCH  24  29
ATOM     29  C   UNL     1       1.199   0.247  -6.129  0.00  0.00    +0.306 C 
BRANCH  29  30
ATOM     30  O   UNL     1       2.038   1.306  -6.598  0.00  0.00    -0.481 OA
BRANCH  30  31
ATOM     31  C   UNL     1       2.354   1.303  -7.920  0.00  0.00    +0.156 A 
ATOM     32  C   UNL     1       1.873   0.300  -8.748  0.00  0.00    +0.048 A 
ATOM     33  C   UNL     1       2.192   0.302 -10.092  0.00  0.00    +0.004 A 
ATOM     34  C   UNL     1       2.999   1.297 -10.611  0.00  0.00    +0.003 A 
ATOM     35  C   UNL     1       3.485   2.296  -9.789  0.00  0.00    +0.042 A 
ATOM     36  C   UNL     1       3.165   2.302  -8.443  0.00  0.00    +0.165 A 
ATOM     37  F   UNL     1       3.641   3.278  -7.639  0.00  0.00    -0.202 F 
ENDBRANCH  30  31
ENDBRANCH  29  30
ENDBRANCH  24  29
ENDBRANCH  20  21
ENDBRANCH   1  20
TORSDOF 10
