REMARK  Name = ZINC17897954
REMARK  10 active torsions:
REMARK  status: ('A' for Active; 'I' for Inactive)
REMARK    1  A    between atoms: C_1  and  C_2
REMARK    2  A    between atoms: C_5  and  C_8
REMARK    3  A    between atoms: C_12  and  C_13
REMARK    4  A    between atoms: C_13  and  O_15
REMARK    5  A    between atoms: O_15  and  C_16
REMARK    6  A    between atoms: C_16  and  C_18
REMARK    7  A    between atoms: C_16  and  C_19
REMARK    8  A    between atoms: N_21  and  C_22
REMARK    9  A    between atoms: C_25  and  S_28
REMARK   10  A    between atoms: S_28  and  N_31
REMARK                            x       y       z     vdW  Elec       q    Type
REMARK                         _______ _______ _______ _____ _____    ______ ____
ROOT
ATOM      1  C   UNL     1       2.425  -4.236  -0.260  0.00  0.00    +0.259 C 
ATOM      2  C   UNL     1       1.751  -4.648  -1.570  0.00  0.00    +0.062 C 
ENDROOT
BRANCH   1   3
ATOM      3  C   UNL     1       2.410  -2.734  -0.138  0.00  0.00    +0.258 C 
ATOM      4  O   UNL     1       3.452  -2.114  -0.144  0.00  0.00    -0.271 OA
ATOM      5  N   UNL     1       1.237  -2.079  -0.021  0.00  0.00    -0.282 N 
ATOM      6  H   UNL     1       0.409  -2.578   0.061  0.00  0.00    +0.155 HD
BRANCH   5   7
ATOM      7  C   UNL     1       1.214  -0.680  -0.019  0.00  0.00    +0.034 A 
ATOM      8  C   UNL     1       2.137   0.032  -0.773  0.00  0.00    +0.025 A 
ATOM      9  C   UNL     1       2.112   1.413  -0.768  0.00  0.00    +0.030 A 
ATOM     10  C   UNL     1       1.169   2.086  -0.014  0.00  0.00    +0.105 A 
ATOM     11  C   UNL     1       0.249   1.380   0.739  0.00  0.00    +0.030 A 
ATOM     12  C   UNL     1       0.269  -0.001   0.738  0.00  0.00    +0.025 A 
BRANCH  10  13
ATOM     13  S   UNL     1       1.141   3.848  -0.010  0.00  0.00    +0.056 S 
ATOM     14  O   UNL     1       0.513   4.241   1.202  0.00  0.00    -0.153 OA
ATOM     15  O   UNL     1       2.449   4.276  -0.363  0.00  0.00    -0.153 OA
BRANCH  13  16
ATOM     16  N   UNL     1       0.139   4.324  -1.239  0.00  0.00    -0.204 NA
ATOM     17  H   UNL     1      -0.357   5.155  -1.166  0.00  0.00    +0.144 HD
ATOM     18  H   UNL     1       0.048   3.773  -2.032  0.00  0.00    +0.144 HD
ENDBRANCH  13  16
ENDBRANCH  10  13
ENDBRANCH   5   7
ENDBRANCH   1   3
BRANCH   1  19
ATOM     19  O   UNL     1       3.777  -4.700  -0.253  0.00  0.00    -0.448 OA
BRANCH  19  20
ATOM     20  C   UNL     1       3.999  -5.930   0.258  0.00  0.00    +0.347 C 
ATOM     21  O   UNL     1       3.070  -6.588   0.685  0.00  0.00    -0.244 OA
BRANCH  20  26
ATOM     22  C   UNL     1       5.760  -7.690   0.777  0.00  0.00    +0.003 A 
ATOM     23  C   UNL     1       7.118  -7.937   0.688  0.00  0.00    +0.017 A 
ATOM     24  C   UNL     1       7.929  -6.993   0.152  0.00  0.00    +0.046 A 
ATOM     25  S   UNL     1       6.839  -5.711  -0.264  0.00  0.00    -0.090 S 
ATOM     26  C   UNL     1       5.317  -6.454   0.296  0.00  0.00    +0.104 A 
BRANCH  22  31
ATOM     27  C   UNL     1       2.123 -11.549   3.019  0.00  0.00    +0.044 C 
ATOM     28  C   UNL     1       3.075 -10.539   2.432  0.00  0.00    -0.050 A 
ATOM     29  C   UNL     1       3.976 -10.927   1.457  0.00  0.00    +0.004 A 
ATOM     30  C   UNL     1       4.850 -10.007   0.916  0.00  0.00    +0.009 A 
ATOM     31  C   UNL     1       4.824  -8.683   1.354  0.00  0.00    -0.017 A 
ATOM     32  C   UNL     1       3.916  -8.299   2.341  0.00  0.00    +0.009 A 
ATOM     33  C   UNL     1       3.044  -9.227   2.871  0.00  0.00    +0.004 A 
ENDBRANCH  22  31
ENDBRANCH  20  26
ENDBRANCH  19  20
ENDBRANCH   1  19
TORSDOF 8
