REMARK  Name = ZINC13995348
REMARK  10 active torsions:
REMARK  status: ('A' for Active; 'I' for Inactive)
REMARK    1  A    between atoms: C_1  and  C_2
REMARK    2  A    between atoms: C_6  and  N_8
REMARK    3  A    between atoms: C_13  and  C_34
REMARK    4  A    between atoms: C_16  and  C_22
REMARK    5  A    between atoms: C_19  and  C_21
REMARK    6  A    between atoms: C_25  and  O_30
REMARK    7  A    between atoms: C_26  and  O_28
REMARK    8  A    between atoms: O_28  and  C_29
REMARK    9  A    between atoms: O_30  and  C_31
REMARK   10  A    between atoms: C_31  and  C_32
REMARK                            x       y       z     vdW  Elec       q    Type
REMARK                         _______ _______ _______ _____ _____    ______ ____
ROOT
ATOM      1  N   UNL     1      -0.126  -2.766   2.387  0.00  0.00    -0.206 N 
ATOM      2  C   UNL     1       0.058  -4.137   2.517  0.00  0.00    +0.141 C 
ATOM      3  N   UNL     1       0.066  -4.924   1.471  0.00  0.00    -0.163 NA
ATOM      4  C   UNL     1       0.200  -6.180   1.253  0.00  0.00    +0.251 C 
ATOM      5  O   UNL     1       0.078  -6.517   0.091  0.00  0.00    -0.272 OA
ATOM      6  C   UNL     1       0.480  -7.281   2.197  0.00  0.00    +0.132 C 
ATOM      7  S   UNL     1      -0.355  -7.088   3.778  0.00  0.00    -0.135 S 
ATOM      8  C   UNL     1       0.444  -5.699   4.590  0.00  0.00    +0.112 C 
ATOM      9  C   UNL     1       0.207  -4.398   3.885  0.00  0.00    +0.027 C 
ATOM     10  C   UNL     1       0.105  -3.216   4.558  0.00  0.00    +0.027 C 
ATOM     11  N   UNL     1      -0.094  -2.210   3.667  0.00  0.00    -0.262 N 
ATOM     12  C   UNL     1       0.204  -3.051   6.053  0.00  0.00    +0.062 C 
ATOM     13  C   UNL     1       1.988  -7.345   2.445  0.00  0.00    +0.029 C 
ATOM     14  H   UNL     1      -0.198  -1.270   3.884  0.00  0.00    +0.170 HD
ENDROOT
BRANCH   1  20
ATOM     15  C   UNL     1      -2.349  -2.352  -1.977  0.00  0.00    +0.044 C 
ATOM     16  C   UNL     1      -1.376  -1.844  -0.944  0.00  0.00    -0.049 A 
ATOM     17  C   UNL     1      -0.659  -0.685  -1.181  0.00  0.00    +0.003 A 
ATOM     18  C   UNL     1       0.235  -0.216  -0.236  0.00  0.00    +0.002 A 
ATOM     19  C   UNL     1       0.414  -0.904   0.948  0.00  0.00    +0.025 A 
ATOM     20  C   UNL     1      -0.305  -2.067   1.190  0.00  0.00    +0.055 A 
ATOM     21  C   UNL     1      -1.206  -2.533   0.240  0.00  0.00    +0.028 A 
ENDBRANCH   1  20
BRANCH   8  22
ATOM     22  C   UNL     1      -0.084  -5.591   5.997  0.00  0.00    -0.026 A 
ATOM     23  C   UNL     1      -1.443  -5.460   6.216  0.00  0.00    +0.009 A 
ATOM     24  C   UNL     1      -1.933  -5.360   7.505  0.00  0.00    +0.050 A 
ATOM     25  C   UNL     1      -1.061  -5.391   8.581  0.00  0.00    +0.163 A 
ATOM     26  C   UNL     1       0.307  -5.522   8.362  0.00  0.00    +0.162 A 
ATOM     27  C   UNL     1       0.790  -5.627   7.067  0.00  0.00    +0.054 A 
BRANCH  26  28
ATOM     28  O   UNL     1       1.167  -5.552   9.415  0.00  0.00    -0.491 OA
ATOM     29  C   UNL     1       2.557  -5.689   9.114  0.00  0.00    +0.277 C 
ENDBRANCH  26  28
BRANCH  25  30
ATOM     30  O   UNL     1      -1.541  -5.292   9.850  0.00  0.00    -0.476 OA
BRANCH  30  31
ATOM     31  C   UNL     1      -2.956  -5.159  10.000  0.00  0.00    +0.317 C 
BRANCH  31  32
ATOM     32  C   UNL     1      -3.291  -5.065  11.430  0.00  0.00    -0.065 C 
ATOM     33  C   UNL     1      -3.558  -4.991  12.571  0.00  0.00    +0.007 C 
ENDBRANCH  31  32
ENDBRANCH  30  31
ENDBRANCH  25  30
ENDBRANCH   8  22
TORSDOF 6
