REMARK  Name = ZINC16464025
REMARK  7 active torsions:
REMARK  status: ('A' for Active; 'I' for Inactive)
REMARK    1  A    between atoms: C_1  and  C_2
REMARK    2  A    between atoms: C_2  and  C_26
REMARK    3  A    between atoms: N_5  and  C_9
REMARK    4  A    between atoms: C_9  and  C_10
REMARK    5  A    between atoms: N_12  and  C_13
REMARK    6  A    between atoms: C_13  and  C_14
REMARK    7  A    between atoms: C_17  and  C_19
REMARK                            x       y       z     vdW  Elec       q    Type
REMARK                         _______ _______ _______ _____ _____    ______ ____
ROOT
ATOM      1  C   UNL     1       3.364   6.425  -2.836  0.00  0.00    +0.213 C 
ENDROOT
BRANCH   1   6
ATOM      2  C   UNL     1       2.905   4.505   1.430  0.00  0.00    +0.047 C 
ATOM      3  C   UNL     1       2.448   4.209   0.001  0.00  0.00    +0.135 C 
ATOM      4  C   UNL     1       2.299   5.492  -0.792  0.00  0.00    +0.251 C 
ATOM      5  O   UNL     1       1.547   6.415  -0.558  0.00  0.00    -0.272 OA
ATOM      6  N   UNL     1       3.174   5.395  -1.812  0.00  0.00    -0.215 N 
ATOM      7  C   UNL     1       3.849   4.240  -1.774  0.00  0.00    +0.310 C 
ATOM      8  O   UNL     1       4.694   3.924  -2.588  0.00  0.00    -0.252 OA
ATOM      9  N   UNL     1       3.487   3.467  -0.733  0.00  0.00    -0.281 N 
ATOM     10  H   UNL     1       3.842   2.593  -0.510  0.00  0.00    +0.152 HD
BRANCH   3  11
ATOM     11  C   UNL     1       1.153   3.438   0.010  0.00  0.00    -0.013 A 
ATOM     12  C   UNL     1      -0.053   4.113   0.025  0.00  0.00    +0.009 A 
ATOM     13  C   UNL     1      -1.242   3.408   0.032  0.00  0.00    +0.041 A 
ATOM     14  C   UNL     1      -1.226   2.024   0.019  0.00  0.00    +0.158 A 
ATOM     15  C   UNL     1      -0.016   1.347   0.009  0.00  0.00    +0.159 A 
ATOM     16  C   UNL     1       1.172   2.056   0.002  0.00  0.00    +0.047 A 
ATOM     17  F   UNL     1       0.002  -0.004   0.002  0.00  0.00    -0.202 F 
ATOM     18  F   UNL     1      -2.387   1.335   0.021  0.00  0.00    -0.202 F 
ENDBRANCH   3  11
ENDBRANCH   1   6
BRANCH   1  19
ATOM     19  C   UNL     1       2.427   6.167  -3.988  0.00  0.00    +0.231 C 
ATOM     20  O   UNL     1       1.675   5.215  -3.956  0.00  0.00    -0.274 OA
ATOM     21  N   UNL     1       2.425   6.992  -5.053  0.00  0.00    -0.307 N 
ATOM     22  H   UNL     1       3.026   7.753  -5.077  0.00  0.00    +0.149 HD
BRANCH  21  23
ATOM     23  C   UNL     1       1.514   6.741  -6.173  0.00  0.00    +0.178 C 
BRANCH  23  24
ATOM     24  C   UNL     1       1.709   7.801  -7.226  0.00  0.00    +0.123 A 
ATOM     25  C   UNL     1       2.574   7.735  -8.257  0.00  0.00    +0.047 A 
ATOM     26  C   UNL     1       2.433   8.929  -8.992  0.00  0.00    +0.050 A 
ATOM     27  C   UNL     1       1.479   9.666  -8.363  0.00  0.00    +0.135 A 
ATOM     28  O   UNL     1       1.045   8.967  -7.296  0.00  0.00    -0.458 OA
BRANCH  27  29
ATOM     29  C   UNL     1       0.998  10.999  -8.780  0.00  0.00    +0.017 A 
ATOM     30  C   UNL     1       1.535  11.616  -9.911  0.00  0.00    +0.013 A 
ATOM     31  C   UNL     1       1.077  12.858 -10.299  0.00  0.00    +0.021 A 
ATOM     32  C   UNL     1       0.096  13.499  -9.561  0.00  0.00    +0.041 A 
ATOM     33  C   UNL     1      -0.436  12.895  -8.434  0.00  0.00    +0.021 A 
ATOM     34  C   UNL     1       0.009  11.650  -8.040  0.00  0.00    +0.013 A 
ATOM     35 CL   UNL     1      -0.468  15.066 -10.050  0.00  0.00    -0.084 Cl
ENDBRANCH  27  29
ENDBRANCH  23  24
ENDBRANCH  21  23
ENDBRANCH   1  19
TORSDOF 6
