REMARK  Name = ZINC39664033
REMARK  10 active torsions:
REMARK  status: ('A' for Active; 'I' for Inactive)
REMARK    1  A    between atoms: C_1  and  O_2
REMARK    2  A    between atoms: O_2  and  C_3
REMARK    3  A    between atoms: C_6  and  C_9
REMARK    4  A    between atoms: C_9  and  C_11
REMARK    5  A    between atoms: C_9  and  N_35
REMARK    6  A    between atoms: C_11  and  N_12
REMARK    7  A    between atoms: C_13  and  C_15
REMARK    8  A    between atoms: C_26  and  C_28
REMARK    9  A    between atoms: C_28  and  C_29
REMARK   10  A    between atoms: C_29  and  C_30
REMARK                            x       y       z     vdW  Elec       q    Type
REMARK                         _______ _______ _______ _____ _____    ______ ____
ROOT
ATOM      1  C   UNL     1       6.653  -4.809   6.120  0.00  0.00    +0.100 C 
ATOM      2  C   UNL     1       6.994  -3.901   7.323  0.00  0.00    +0.121 C 
ATOM      3  N   UNL     1       8.230  -4.485   7.894  0.00  0.00    -0.300 N 
ATOM      4  C   UNL     1       9.027  -4.889   6.712  0.00  0.00    +0.115 C 
ATOM      5  C   UNL     1       7.990  -5.455   5.721  0.00  0.00    -0.004 C 
ATOM      6  C   UNL     1       8.360  -5.067   4.293  0.00  0.00    -0.010 C 
ATOM      7  C   UNL     1       9.663  -5.768   3.899  0.00  0.00    -0.082 C 
ATOM      8  N   UNL     1       9.490  -7.222   4.003  0.00  0.00    +0.379 N 
ATOM      9  C   UNL     1       9.227  -7.596   5.398  0.00  0.00    -0.082 C 
ATOM     10  C   UNL     1       7.905  -6.972   5.855  0.00  0.00    -0.010 C 
ATOM     11  C   UNL     1       8.555  -4.619   9.195  0.00  0.00    +0.216 C 
ATOM     12  O   UNL     1       9.614  -5.122   9.507  0.00  0.00    -0.276 OA
ATOM     13  H   UNL     1       8.713  -7.509   3.427  0.00  0.00    -0.086 HD
ATOM     14  H   UNL     1      10.329  -7.683   3.685  0.00  0.00    -0.086 HD
ENDROOT
BRANCH   1  16
ATOM     15  N   UNL     1       5.271  -4.549   4.085  0.00  0.00    -0.316 N 
ATOM     16  C   UNL     1       6.107  -3.987   4.981  0.00  0.00    +0.218 C 
ATOM     17  O   UNL     1       6.419  -2.821   4.870  0.00  0.00    -0.275 OA
ATOM     18  H   UNL     1       5.021  -5.482   4.173  0.00  0.00    +0.149 HD
BRANCH  15  19
ATOM     19  C   UNL     1       4.740  -3.751   2.977  0.00  0.00    +0.093 C 
BRANCH  19  20
ATOM     20  C   UNL     1       3.721  -4.580   2.193  0.00  0.00    -0.020 C 
BRANCH  20  24
ATOM     21  C   UNL     1       0.348  -5.411   4.682  0.00  0.00    +0.120 A 
ATOM     22  C   UNL     1       1.328  -6.375   4.495  0.00  0.00    +0.046 A 
ATOM     23  C   UNL     1       2.417  -6.104   3.690  0.00  0.00    +0.005 A 
ATOM     24  C   UNL     1       2.531  -4.873   3.071  0.00  0.00    -0.059 A 
ATOM     25  C   UNL     1       1.556  -3.910   3.256  0.00  0.00    +0.005 A 
ATOM     26  C   UNL     1       0.462  -4.179   4.055  0.00  0.00    +0.046 A 
BRANCH  21  28
ATOM     27  C   UNL     1      -0.777  -6.965   6.086  0.00  0.00    +0.277 C 
ATOM     28  O   UNL     1      -0.725  -5.676   5.473  0.00  0.00    -0.495 OA
ENDBRANCH  21  28
ENDBRANCH  20  24
BRANCH  20  29
ATOM     29  N   UNL     1       3.283  -3.827   1.010  0.00  0.00    +0.385 N 
ATOM     30  C   UNL     1       4.437  -3.567   0.112  0.00  0.00    -0.078 C 
ATOM     31  C   UNL     1       3.767  -3.309  -1.261  0.00  0.00    -0.020 C 
ATOM     32  C   UNL     1       2.592  -4.313  -1.266  0.00  0.00    -0.020 C 
ATOM     33  C   UNL     1       2.329  -4.632   0.218  0.00  0.00    -0.078 C 
ATOM     34  H   UNL     1       2.856  -2.956   1.290  0.00  0.00    -0.081 HD
ENDBRANCH  20  29
ENDBRANCH  19  20
ENDBRANCH  15  19
ENDBRANCH   1  16
BRANCH  11  35
ATOM     35  C   UNL     1       7.604  -4.144  10.263  0.00  0.00    +0.096 C 
BRANCH  35  36
ATOM     36  C   UNL     1       8.210  -4.412  11.642  0.00  0.00    +0.013 C 
BRANCH  36  37
ATOM     37  C   UNL     1       7.244  -3.929  12.726  0.00  0.00    -0.011 C 
ATOM     38  C   UNL     1       7.139  -2.390  12.694  0.00  0.00    +0.003 C 
ATOM     39  C   UNL     1       7.026  -1.986  14.185  0.00  0.00    +0.000 C 
ATOM     40  C   UNL     1       7.987  -2.980  14.882  0.00  0.00    +0.000 C 
ATOM     41  C   UNL     1       7.783  -4.304  14.117  0.00  0.00    +0.003 C 
ENDBRANCH  36  37
ENDBRANCH  35  36
ENDBRANCH  11  35
TORSDOF 9
