REMARK  Name = ZINC16802207
REMARK  8 active torsions:
REMARK  status: ('A' for Active; 'I' for Inactive)
REMARK    1  A    between atoms: C_1  and  C_2
REMARK    2  A    between atoms: C_2  and  C_24
REMARK    3  A    between atoms: N_5  and  C_9
REMARK    4  A    between atoms: C_9  and  C_10
REMARK    5  A    between atoms: N_12  and  C_13
REMARK    6  A    between atoms: N_12  and  C_18
REMARK    7  A    between atoms: C_13  and  C_14
REMARK    8  A    between atoms: C_14  and  C_15
REMARK                            x       y       z     vdW  Elec       q    Type
REMARK                         _______ _______ _______ _____ _____    ______ ____
ROOT
ATOM      1  C   UNL     1      -2.558   0.011  -1.729  0.00  0.00    +0.047 C 
ATOM      2  C   UNL     1      -1.831  -0.173  -0.395  0.00  0.00    +0.136 C 
ATOM      3  C   UNL     1      -2.745   0.172   0.765  0.00  0.00    +0.251 C 
ATOM      4  O   UNL     1      -3.262   1.244   0.996  0.00  0.00    -0.272 OA
ATOM      5  N   UNL     1      -2.861  -0.961   1.486  0.00  0.00    -0.215 N 
ATOM      6  C   UNL     1      -2.156  -1.963   0.949  0.00  0.00    +0.310 C 
ATOM      7  O   UNL     1      -2.105  -3.082   1.420  0.00  0.00    -0.252 OA
ATOM      8  N   UNL     1      -1.509  -1.593  -0.172  0.00  0.00    -0.281 N 
ATOM      9  H   UNL     1      -0.942  -2.152  -0.725  0.00  0.00    +0.152 HD
ENDROOT
BRANCH   2  10
ATOM     10  C   UNL     1      -0.581   0.667  -0.353  0.00  0.00    -0.008 A 
ATOM     11  C   UNL     1       0.632   0.080  -0.161  0.00  0.00    +0.007 A 
ATOM     12  C   UNL     1       1.799   0.840  -0.125  0.00  0.00    +0.001 A 
ATOM     13  C   UNL     1       1.760   2.192  -0.276  0.00  0.00    +0.008 A 
ATOM     14  C   UNL     1       0.526   2.835  -0.470  0.00  0.00    -0.018 A 
ATOM     15  C   UNL     1      -0.662   2.062  -0.506  0.00  0.00    -0.012 A 
ATOM     16  C   UNL     1      -1.897   2.704  -0.701  0.00  0.00    +0.009 A 
ATOM     17  C   UNL     1      -1.936   4.056  -0.852  0.00  0.00    +0.001 A 
ATOM     18  C   UNL     1      -0.768   4.816  -0.816  0.00  0.00    +0.001 A 
ATOM     19  C   UNL     1       0.445   4.229  -0.630  0.00  0.00    +0.008 A 
ENDBRANCH   2  10
BRANCH   5  20
ATOM     20  C   UNL     1      -3.661  -1.080   2.708  0.00  0.00    +0.214 C 
BRANCH  20  21
ATOM     21  C   UNL     1      -2.806  -0.743   3.902  0.00  0.00    +0.238 C 
ATOM     22  O   UNL     1      -1.679  -0.325   3.743  0.00  0.00    -0.274 OA
ATOM     23  N   UNL     1      -3.295  -0.905   5.148  0.00  0.00    -0.270 N 
BRANCH  23  24
ATOM     24  C   UNL     1      -4.629  -1.285   5.332  0.00  0.00    +0.036 A 
ATOM     25  C   UNL     1      -5.654  -0.404   5.009  0.00  0.00    +0.023 A 
ATOM     26  C   UNL     1      -6.970  -0.783   5.188  0.00  0.00    +0.002 A 
ATOM     27  C   UNL     1      -7.267  -2.034   5.698  0.00  0.00    +0.000 A 
ATOM     28  C   UNL     1      -6.249  -2.911   6.025  0.00  0.00    +0.002 A 
ATOM     29  C   UNL     1      -4.931  -2.540   5.843  0.00  0.00    +0.023 A 
ENDBRANCH  23  24
BRANCH  23  30
ATOM     30  C   UNL     1      -2.429  -0.685   6.309  0.00  0.00    +0.123 C 
BRANCH  30  31
ATOM     31  C   UNL     1      -2.518   0.780   6.741  0.00  0.00    +0.115 C 
BRANCH  31  32
ATOM     32  C   UNL     1      -1.627   1.007   7.935  0.00  0.00    +0.212 C 
ATOM     33  O   UNL     1      -0.985   0.087   8.395  0.00  0.00    -0.276 OA
ATOM     34  N   UNL     1      -1.545   2.231   8.492  0.00  0.00    -0.329 N 
ATOM     35  H   UNL     1      -2.059   2.967   8.124  0.00  0.00    +0.145 HD
ATOM     36  H   UNL     1      -0.972   2.377   9.261  0.00  0.00    +0.145 HD
ENDBRANCH  31  32
ENDBRANCH  30  31
ENDBRANCH  23  30
ENDBRANCH  20  21
ENDBRANCH   5  20
TORSDOF 7
