REMARK  Name = ZINC66891500
REMARK  8 active torsions:
REMARK  status: ('A' for Active; 'I' for Inactive)
REMARK    1  A    between atoms: C_1  and  C_2
REMARK    2  A    between atoms: C_3  and  C_7
REMARK    3  A    between atoms: N_9  and  C_10
REMARK    4  A    between atoms: N_13  and  C_16
REMARK    5  A    between atoms: C_16  and  C_18
REMARK    6  A    between atoms: C_16  and  C_19
REMARK    7  A    between atoms: N_21  and  C_22
REMARK    8  A    between atoms: C_28  and  C_30
REMARK                            x       y       z     vdW  Elec       q    Type
REMARK                         _______ _______ _______ _____ _____    ______ ____
ROOT
ATOM      1  C   UNL     1      -5.435   0.179  -0.883  0.00  0.00    +0.070 C 
ATOM      2  C   UNL     1      -5.456  -0.062   0.629  0.00  0.00    +0.004 C 
ATOM      3  C   UNL     1      -6.904  -0.046   1.123  0.00  0.00    -0.076 C 
ATOM      4  N   UNL     1      -7.666  -1.103   0.448  0.00  0.00    +0.387 N 
ATOM      5  C   UNL     1      -7.712  -0.840  -0.995  0.00  0.00    -0.076 C 
ATOM      6  C   UNL     1      -6.295  -0.886  -1.571  0.00  0.00    +0.004 C 
ATOM      7  H   UNL     1      -7.222  -1.994   0.613  0.00  0.00    -0.081 HD
ENDROOT
BRANCH   1  10
ATOM      8  C   UNL     1      -3.256   1.172  -1.330  0.00  0.00    +0.248 C 
ATOM      9  O   UNL     1      -3.675   2.222  -0.882  0.00  0.00    -0.270 OA
ATOM     10  N   UNL     1      -4.058   0.090  -1.374  0.00  0.00    -0.309 N 
ATOM     11  H   UNL     1      -3.724  -0.748  -1.732  0.00  0.00    +0.149 HD
BRANCH   8  14
ATOM     12  C   UNL     1      -1.143   3.491  -1.369  0.00  0.00    +0.087 C 
ATOM     13  C   UNL     1      -0.938   2.077  -1.850  0.00  0.00    +0.114 A 
ATOM     14  C   UNL     1      -1.870   1.082  -1.825  0.00  0.00    +0.077 A 
ATOM     15  C   UNL     1      -1.204  -0.099  -2.394  0.00  0.00    +0.054 A 
ATOM     16  C   UNL     1       0.042   0.293  -2.701  0.00  0.00    +0.196 A 
ATOM     17  O   UNL     1       0.188   1.587  -2.379  0.00  0.00    -0.467 OA
ENDBRANCH   8  14
ENDBRANCH   1  10
BRANCH   4  18
ATOM     18  C   UNL     1      -9.035  -1.135   0.982  0.00  0.00    +0.016 C 
ATOM     19  C   UNL     1      -8.990  -1.426   2.483  0.00  0.00    -0.004 C 
BRANCH  18  20
ATOM     20  C   UNL     1      -9.821  -2.216   0.284  0.00  0.00    +0.199 C 
ATOM     21  O   UNL     1      -9.252  -3.194  -0.151  0.00  0.00    -0.278 OA
ATOM     22  N   UNL     1     -11.156  -2.094   0.144  0.00  0.00    -0.314 N 
ATOM     23  H   UNL     1     -11.610  -1.311   0.493  0.00  0.00    +0.149 HD
BRANCH  22  24
ATOM     24  C   UNL     1     -11.920  -3.144  -0.534  0.00  0.00    +0.076 C 
ATOM     25  C   UNL     1     -11.887  -2.904  -2.044  0.00  0.00    +0.022 C 
ATOM     26  C   UNL     1     -12.506  -1.540  -2.357  0.00  0.00    +0.002 C 
ATOM     27  C   UNL     1     -13.955  -1.513  -1.868  0.00  0.00    +0.000 C 
ATOM     28  C   UNL     1     -13.988  -1.753  -0.357  0.00  0.00    +0.005 C 
ATOM     29  C   UNL     1     -13.369  -3.117  -0.044  0.00  0.00    +0.006 C 
ATOM     30  C   UNL     1     -13.402  -3.357   1.467  0.00  0.00    +0.009 C 
ENDBRANCH  22  24
ENDBRANCH  18  20
ENDBRANCH   4  18
TORSDOF 5
