REMARK  Name = ZINC18057181
REMARK  6 active torsions:
REMARK  status: ('A' for Active; 'I' for Inactive)
REMARK    1  A    between atoms: C_1  and  O_2
REMARK    2  A    between atoms: O_2  and  C_3
REMARK    3  A    between atoms: C_5  and  C_10
REMARK    4  A    between atoms: C_8  and  O_9
REMARK    5  A    between atoms: N_18  and  C_21
REMARK    6  A    between atoms: N_29  and  C_30
REMARK                            x       y       z     vdW  Elec       q    Type
REMARK                         _______ _______ _______ _____ _____    ______ ____
ROOT
ATOM      1  C   UNL     1      -4.678   0.429   0.317  0.00  0.00    +0.157 C 
ATOM      2  C   UNL     1      -5.497   0.256   1.617  0.00  0.00    +0.145 C 
ATOM      3  C   UNL     1      -6.549  -0.822   1.238  0.00  0.00    +0.249 C 
ATOM      4  C   UNL     1      -7.856  -0.064   1.274  0.00  0.00    +0.259 C 
ATOM      5  O   UNL     1      -8.946  -0.534   1.029  0.00  0.00    -0.272 OA
ATOM      6  N   UNL     1      -7.622   1.208   1.619  0.00  0.00    -0.208 N 
ATOM      7  C   UNL     1      -6.319   1.504   1.849  0.00  0.00    +0.235 C 
ATOM      8  O   UNL     1      -5.875   2.583   2.180  0.00  0.00    -0.274 OA
ATOM      9  O   UNL     1      -6.241  -1.208  -0.113  0.00  0.00    -0.257 OA
ATOM     10  N   UNL     1      -5.601  -0.075  -0.729  0.00  0.00    -0.244 N 
ENDROOT
BRANCH   6  11
ATOM     11  C   UNL     1      -8.644   2.161   1.741  0.00  0.00    +0.044 A 
ATOM     12  C   UNL     1      -8.717   3.220   0.847  0.00  0.00    +0.025 A 
ATOM     13  C   UNL     1      -9.725   4.157   0.969  0.00  0.00    +0.017 A 
ATOM     14  C   UNL     1     -10.659   4.041   1.982  0.00  0.00    +0.018 A 
ATOM     15  C   UNL     1     -10.588   2.987   2.875  0.00  0.00    +0.017 A 
ATOM     16  C   UNL     1      -9.586   2.044   2.753  0.00  0.00    +0.025 A 
ATOM     17 BR   UNL     1     -12.037   5.327   2.147  0.00  0.00    -0.050 Br
ENDBRANCH   6  11
BRANCH   1  20
ATOM     18  C   UNL     1      -1.049  -0.560   0.673  0.00  0.00    +0.162 A 
ATOM     19  C   UNL     1      -2.206   0.202   0.630  0.00  0.00    +0.055 A 
ATOM     20  C   UNL     1      -3.421  -0.401   0.363  0.00  0.00    -0.018 A 
ATOM     21  C   UNL     1      -3.485  -1.764   0.140  0.00  0.00    +0.009 A 
ATOM     22  C   UNL     1      -2.335  -2.530   0.182  0.00  0.00    +0.049 A 
ATOM     23  C   UNL     1      -1.113  -1.931   0.442  0.00  0.00    +0.158 A 
BRANCH  18  25
ATOM     24  C   UNL     1       0.137   1.443   1.162  0.00  0.00    +0.277 C 
ATOM     25  O   UNL     1       0.147   0.032   0.935  0.00  0.00    -0.491 OA
ENDBRANCH  18  25
BRANCH  23  26
ATOM     26  O   UNL     1       0.020  -2.682   0.478  0.00  0.00    -0.503 OA
ATOM     27  H   UNL     1       0.228  -3.039   1.353  0.00  0.00    +0.292 HD
ENDBRANCH  23  26
ENDBRANCH   1  20
BRANCH  10  28
ATOM     28  C   UNL     1      -5.796   0.433  -2.015  0.00  0.00    +0.065 A 
ATOM     29  C   UNL     1      -5.071   1.538  -2.443  0.00  0.00    +0.028 A 
ATOM     30  C   UNL     1      -5.265   2.038  -3.716  0.00  0.00    +0.002 A 
ATOM     31  C   UNL     1      -6.180   1.440  -4.563  0.00  0.00    +0.000 A 
ATOM     32  C   UNL     1      -6.903   0.340  -4.140  0.00  0.00    +0.002 A 
ATOM     33  C   UNL     1      -6.710  -0.168  -2.870  0.00  0.00    +0.028 A 
ENDBRANCH  10  28
TORSDOF 5
