REMARK  Name = ZINC01579596
REMARK  8 active torsions:
REMARK  status: ('A' for Active; 'I' for Inactive)
REMARK    1  A    between atoms: C_1  and  C_2
REMARK    2  A    between atoms: C_2  and  C_4
REMARK    3  A    between atoms: C_5  and  O_22
REMARK    4  A    between atoms: C_7  and  O_20
REMARK    5  A    between atoms: C_8  and  O_19
REMARK    6  A    between atoms: C_9  and  C_10
REMARK    7  A    between atoms: C_10  and  C_18
REMARK    8  A    between atoms: O_20  and  C_21
REMARK                            x       y       z     vdW  Elec       q    Type
REMARK                         _______ _______ _______ _____ _____    ______ ____
ROOT
ATOM      1  C   UNL     1      -4.149   0.831   3.217  0.00  0.00    +0.067 A 
ATOM      2  C   UNL     1      -4.915  -0.022   2.403  0.00  0.00    +0.131 A 
ATOM      3  C   UNL     1      -4.628  -0.126   1.053  0.00  0.00    +0.095 A 
ATOM      4  C   UNL     1      -3.582   0.601   0.506  0.00  0.00    +0.165 A 
ATOM      5  C   UNL     1      -2.815   1.447   1.311  0.00  0.00    +0.164 A 
ATOM      6  C   UNL     1      -3.093   1.564   2.655  0.00  0.00    +0.032 A 
ENDROOT
BRANCH   6   7
ATOM      7  C   UNL     1      -2.263   2.476   3.521  0.00  0.00    +0.113 C 
ATOM      8  C   UNL     1      -3.151   3.177   4.530  0.00  0.00    +0.151 C 
ATOM      9  O   UNL     1      -3.128   2.867   5.697  0.00  0.00    -0.296 OA
ATOM     10  C   UNL     1      -4.064   4.276   4.031  0.00  0.00    +0.076 C 
ATOM     11  C   UNL     1      -3.228   5.321   3.285  0.00  0.00    +0.015 C 
ATOM     12  C   UNL     1      -2.488   4.653   2.123  0.00  0.00    +0.076 C 
ATOM     13  C   UNL     1      -1.613   3.546   2.667  0.00  0.00    +0.151 C 
ATOM     14  O   UNL     1      -0.430   3.514   2.427  0.00  0.00    -0.296 OA
ATOM     15  C   UNL     1      -1.188   1.667   4.248  0.00  0.00    +0.032 C 
ENDBRANCH   6   7
BRANCH   1  17
ATOM     16  C   UNL     1      -5.634   1.764   5.100  0.00  0.00    +0.092 C 
ATOM     17  C   UNL     1      -4.450   0.951   4.645  0.00  0.00    +0.164 C 
ATOM     18  O   UNL     1      -3.745   0.396   5.462  0.00  0.00    -0.292 OA
ENDBRANCH   1  17
BRANCH   5  19
ATOM     19  O   UNL     1      -1.791   2.157   0.765  0.00  0.00    -0.503 OA
ATOM     20  H   UNL     1      -0.941   1.696   0.780  0.00  0.00    +0.292 HD
ENDBRANCH   5  19
BRANCH   4  21
ATOM     21  O   UNL     1      -3.303   0.491  -0.818  0.00  0.00    -0.491 OA
ATOM     22  C   UNL     1      -4.126  -0.391  -1.583  0.00  0.00    +0.277 C 
ENDBRANCH   4  21
BRANCH   2  23
ATOM     23  O   UNL     1      -5.934  -0.739   2.939  0.00  0.00    -0.506 OA
ATOM     24  H   UNL     1      -6.787  -0.283   2.922  0.00  0.00    +0.292 HD
ENDBRANCH   2  23
TORSDOF 5
