REMARK  Name = ZINC39668682
REMARK  10 active torsions:
REMARK  status: ('A' for Active; 'I' for Inactive)
REMARK    1  A    between atoms: C_1  and  C_2
REMARK    2  A    between atoms: C_2  and  C_4
REMARK    3  A    between atoms: C_2  and  O_30
REMARK    4  A    between atoms: C_4  and  N_5
REMARK    5  A    between atoms: C_6  and  C_8
REMARK    6  A    between atoms: C_19  and  C_21
REMARK    7  A    between atoms: C_21  and  C_22
REMARK    8  A    between atoms: C_22  and  C_23
REMARK    9  A    between atoms: C_23  and  C_24
REMARK   10  A    between atoms: O_30  and  C_31
REMARK                            x       y       z     vdW  Elec       q    Type
REMARK                         _______ _______ _______ _____ _____    ______ ____
ROOT
ATOM      1  C   UNL     1       1.459  -4.350   2.584  0.00  0.00    +0.100 C 
ATOM      2  C   UNL     1       2.424  -4.953   1.538  0.00  0.00    +0.121 C 
ATOM      3  N   UNL     1       3.706  -5.118   2.263  0.00  0.00    -0.300 N 
ATOM      4  C   UNL     1       3.308  -5.581   3.614  0.00  0.00    +0.115 C 
ATOM      5  C   UNL     1       2.041  -4.768   3.945  0.00  0.00    -0.004 C 
ATOM      6  C   UNL     1       1.041  -5.634   4.704  0.00  0.00    -0.010 C 
ATOM      7  C   UNL     1       1.618  -5.988   6.077  0.00  0.00    -0.082 C 
ATOM      8  N   UNL     1       1.896  -4.756   6.826  0.00  0.00    +0.379 N 
ATOM      9  C   UNL     1       2.928  -3.973   6.135  0.00  0.00    -0.082 C 
ATOM     10  C   UNL     1       2.406  -3.534   4.764  0.00  0.00    -0.010 C 
ATOM     11  C   UNL     1       4.952  -4.899   1.798  0.00  0.00    +0.216 C 
ATOM     12  O   UNL     1       5.909  -5.081   2.520  0.00  0.00    -0.276 OA
ATOM     13  H   UNL     1       1.051  -4.208   6.896  0.00  0.00    -0.086 HD
ATOM     14  H   UNL     1       2.218  -4.992   7.752  0.00  0.00    -0.086 HD
ENDROOT
BRANCH   1  16
ATOM     15  N   UNL     1       0.304  -2.171   2.771  0.00  0.00    -0.312 N 
ATOM     16  C   UNL     1       1.428  -2.848   2.464  0.00  0.00    +0.218 C 
ATOM     17  O   UNL     1       2.415  -2.249   2.093  0.00  0.00    -0.275 OA
ATOM     18  H   UNL     1      -0.485  -2.650   3.068  0.00  0.00    +0.149 HD
BRANCH  15  19
ATOM     19  C   UNL     1       0.274  -0.711   2.655  0.00  0.00    +0.148 C 
BRANCH  19  21
ATOM     20  C   UNL     1      -1.180   1.314   2.820  0.00  0.00    +0.053 C 
ATOM     21  C   UNL     1      -1.109  -0.196   3.059  0.00  0.00    +0.187 C 
BRANCH  21  22
ATOM     22  O   UNL     1      -1.333  -0.470   4.443  0.00  0.00    -0.486 OA
BRANCH  22  23
ATOM     23  C   UNL     1      -2.626  -0.563   4.852  0.00  0.00    +0.139 A 
ATOM     24  C   UNL     1      -3.667  -0.291   3.969  0.00  0.00    +0.049 A 
ATOM     25  C   UNL     1      -4.968  -0.400   4.431  0.00  0.00    +0.023 A 
ATOM     26  C   UNL     1      -5.189  -0.771   5.745  0.00  0.00    +0.111 A 
ATOM     27  N   UNL     1      -4.180  -1.021   6.556  0.00  0.00    -0.260 NA
ATOM     28  C   UNL     1      -2.928  -0.935   6.154  0.00  0.00    +0.156 A 
ENDBRANCH  22  23
ENDBRANCH  21  22
ENDBRANCH  19  21
ENDBRANCH  15  19
ENDBRANCH   1  16
BRANCH  11  29
ATOM     29  C   UNL     1       5.155  -4.426   0.382  0.00  0.00    +0.096 C 
BRANCH  29  30
ATOM     30  C   UNL     1       6.651  -4.255   0.111  0.00  0.00    +0.014 C 
BRANCH  30  31
ATOM     31  C   UNL     1       6.858  -3.775  -1.327  0.00  0.00    +0.035 C 
BRANCH  31  32
ATOM     32  C   UNL     1       8.331  -3.607  -1.594  0.00  0.00    -0.047 A 
ATOM     33  C   UNL     1       8.946  -2.395  -1.341  0.00  0.00    +0.003 A 
ATOM     34  C   UNL     1      10.298  -2.241  -1.585  0.00  0.00    +0.000 A 
ATOM     35  C   UNL     1      11.035  -3.299  -2.083  0.00  0.00    +0.000 A 
ATOM     36  C   UNL     1      10.421  -4.512  -2.336  0.00  0.00    +0.000 A 
ATOM     37  C   UNL     1       9.070  -4.667  -2.087  0.00  0.00    +0.003 A 
ENDBRANCH  31  32
ENDBRANCH  30  31
ENDBRANCH  29  30
ENDBRANCH  11  29
TORSDOF 9
