REMARK  Name = ZINC62265579
REMARK  2 active torsions:
REMARK  status: ('A' for Active; 'I' for Inactive)
REMARK    1  A    between atoms: C_11  and  C_26
REMARK    2  A    between atoms: C_16  and  C_18
REMARK                            x       y       z     vdW  Elec       q    Type
REMARK                         _______ _______ _______ _____ _____    ______ ____
ROOT
ATOM      1  C   UNL     1      -0.495   0.745  -0.508  0.00  0.00    +0.001 A 
ATOM      2  C   UNL     1       0.547   1.628  -0.258  0.00  0.00    +0.002 A 
ATOM      3  C   UNL     1       1.831   1.164  -0.077  0.00  0.00    +0.026 A 
ATOM      4  C   UNL     1       2.089  -0.201  -0.144  0.00  0.00    +0.047 A 
ATOM      5  C   UNL     1       1.029  -1.093  -0.397  0.00  0.00    +0.003 A 
ATOM      6  C   UNL     1      -0.265  -0.599  -0.578  0.00  0.00    +0.010 A 
ATOM      7  C   UNL     1       1.622  -2.427  -0.403  0.00  0.00    -0.016 A 
ATOM      8  C   UNL     1       2.940  -2.279  -0.169  0.00  0.00    +0.041 A 
ATOM      9  N   UNL     1       3.235  -0.956  -0.010  0.00  0.00    -0.356 N 
ATOM     10  H   UNL     1       4.119  -0.599   0.170  0.00  0.00    +0.166 HD
ATOM     11  C   UNL     1       3.910  -3.439  -0.105  0.00  0.00    +0.126 C 
ATOM     12  N   UNL     1       3.114  -4.678  -0.060  0.00  0.00    -0.288 N 
ATOM     13  C   UNL     1       1.972  -4.808  -0.977  0.00  0.00    +0.113 C 
ATOM     14  C   UNL     1       0.924  -3.745  -0.622  0.00  0.00    +0.056 C 
ATOM     15  C   UNL     1       3.426  -5.668   0.799  0.00  0.00    +0.249 C 
ATOM     16  O   UNL     1       4.317  -5.509   1.612  0.00  0.00    -0.270 OA
ENDROOT
BRANCH  15  17
ATOM     17  C   UNL     1       2.686  -6.942   0.755  0.00  0.00    +0.053 A 
ATOM     18  C   UNL     1       1.666  -7.209   1.701  0.00  0.00    +0.020 A 
ATOM     19  C   UNL     1       1.001  -8.393   1.637  0.00  0.00    +0.071 A 
ATOM     20  C   UNL     1       1.338  -9.324   0.637  0.00  0.00    +0.249 A 
ATOM     21  O   UNL     1       0.743 -10.387   0.575  0.00  0.00    -0.268 OA
ATOM     22  N   UNL     1       2.310  -9.050  -0.252  0.00  0.00    -0.328 N 
ATOM     23  H   UNL     1       2.530  -9.703  -0.935  0.00  0.00    +0.168 HD
ATOM     24  C   UNL     1       2.979  -7.883  -0.211  0.00  0.00    +0.099 A 
ENDBRANCH  15  17
BRANCH  11  25
ATOM     25  C   UNL     1       4.804  -3.438  -1.348  0.00  0.00    +0.015 C 
ATOM     26  C   UNL     1       5.804  -4.592  -1.258  0.00  0.00    +0.006 C 
ATOM     27  C   UNL     1       6.697  -4.591  -2.500  0.00  0.00    +0.000 C 
ATOM     28  C   UNL     1       7.455  -3.265  -2.582  0.00  0.00    +0.000 C 
ATOM     29  C   UNL     1       6.455  -2.110  -2.671  0.00  0.00    +0.000 C 
ATOM     30  C   UNL     1       5.562  -2.111  -1.429  0.00  0.00    +0.006 C 
ENDBRANCH  11  25
TORSDOF 2
