REMARK  Name = ZINC36704007
REMARK  9 active torsions:
REMARK  status: ('A' for Active; 'I' for Inactive)
REMARK    1  A    between atoms: C_4  and  C_7
REMARK    2  A    between atoms: C_7  and  C_8
REMARK    3  A    between atoms: C_8  and  C_10
REMARK    4  A    between atoms: C_8  and  N_23
REMARK    5  A    between atoms: N_12  and  N_13
REMARK    6  A    between atoms: C_14  and  C_16
REMARK    7  A    between atoms: C_24  and  O_26
REMARK    8  A    between atoms: O_26  and  C_27
REMARK    9  A    between atoms: C_27  and  C_28
REMARK                            x       y       z     vdW  Elec       q    Type
REMARK                         _______ _______ _______ _____ _____    ______ ____
ROOT
ATOM      1  C   UNL     1       4.171  -0.963   1.399  0.00  0.00    +0.168 C 
ENDROOT
BRANCH   1   2
ATOM      2  C   UNL     1       5.543  -1.588   1.383  0.00  0.00    +0.250 C 
ATOM      3  O   UNL     1       5.715  -2.683   1.875  0.00  0.00    -0.272 OA
ATOM      4  N   UNL     1       6.577  -0.931   0.823  0.00  0.00    -0.233 N 
ATOM      5  H   UNL     1       6.438  -0.055   0.429  0.00  0.00    +0.173 HD
BRANCH   4   6
ATOM      6  N   UNL     1       7.851  -1.512   0.808  0.00  0.00    -0.230 N 
ATOM      7  C   UNL     1       8.885  -0.854   0.247  0.00  0.00    +0.261 C 
ATOM      8  O   UNL     1       8.712   0.243  -0.246  0.00  0.00    -0.269 OA
ATOM      9  H   UNL     1       7.990  -2.388   1.201  0.00  0.00    +0.173 HD
BRANCH   7  10
ATOM     10  C   UNL     1      10.230  -1.467   0.232  0.00  0.00    +0.052 A 
ATOM     11  C   UNL     1      10.431  -2.730   0.792  0.00  0.00    +0.014 A 
ATOM     12  C   UNL     1      11.689  -3.296   0.774  0.00  0.00    +0.001 A 
ATOM     13  C   UNL     1      12.750  -2.616   0.203  0.00  0.00    +0.001 A 
ATOM     14  C   UNL     1      12.559  -1.365  -0.354  0.00  0.00    +0.016 A 
ATOM     15  C   UNL     1      11.304  -0.788  -0.348  0.00  0.00    +0.030 A 
ATOM     16 BR   UNL     1      11.042   0.920  -1.117  0.00  0.00    -0.050 Br
ENDBRANCH   7  10
ENDBRANCH   4   6
ENDBRANCH   1   2
BRANCH   1  17
ATOM     17  N   UNL     1       3.229  -1.870   2.059  0.00  0.00    -0.269 N 
ATOM     18  C   UNL     1       2.116  -1.379   2.640  0.00  0.00    +0.401 C 
ATOM     19  O   UNL     1       1.895  -0.184   2.616  0.00  0.00    -0.226 OA
ATOM     20  H   UNL     1       3.406  -2.823   2.078  0.00  0.00    +0.153 HD
BRANCH  18  21
ATOM     21  O   UNL     1       1.250  -2.212   3.247  0.00  0.00    -0.446 OA
BRANCH  21  22
ATOM     22  C   UNL     1       0.092  -1.623   3.842  0.00  0.00    +0.269 C 
BRANCH  22  23
ATOM     23  C   UNL     1      -0.754  -2.701   4.469  0.00  0.00    -0.010 A 
ATOM     24  C   UNL     1      -1.734  -3.331   3.724  0.00  0.00    +0.007 A 
ATOM     25  C   UNL     1      -2.511  -4.320   4.299  0.00  0.00    +0.000 A 
ATOM     26  C   UNL     1      -2.306  -4.679   5.618  0.00  0.00    +0.000 A 
ATOM     27  C   UNL     1      -1.326  -4.051   6.362  0.00  0.00    +0.000 A 
ATOM     28  C   UNL     1      -0.546  -3.065   5.786  0.00  0.00    +0.007 A 
ENDBRANCH  22  23
ENDBRANCH  21  22
ENDBRANCH  18  21
ENDBRANCH   1  17
BRANCH   1  29
ATOM     29  C   UNL     1       3.711  -0.707  -0.038  0.00  0.00    +0.067 C 
BRANCH  29  33
ATOM     30  C   UNL     1      -0.017   1.378   0.010  0.00  0.00    +0.000 A 
ATOM     31  C   UNL     1       1.171   2.086   0.002  0.00  0.00    +0.000 A 
ATOM     32  C   UNL     1       2.377   1.411  -0.013  0.00  0.00    +0.004 A 
ATOM     33  C   UNL     1       2.396   0.029  -0.020  0.00  0.00    -0.045 A 
ATOM     34  C   UNL     1       1.208  -0.679  -0.012  0.00  0.00    +0.004 A 
ATOM     35  C   UNL     1       0.002  -0.004   0.002  0.00  0.00    +0.000 A 
ENDBRANCH  29  33
ENDBRANCH   1  29
TORSDOF 9
