REMARK  Name = ZINC48572071
REMARK  7 active torsions:
REMARK  status: ('A' for Active; 'I' for Inactive)
REMARK    1  A    between atoms: C_4  and  C_7
REMARK    2  A    between atoms: C_7  and  O_9
REMARK    3  A    between atoms: O_9  and  C_10
REMARK    4  A    between atoms: C_19  and  C_20
REMARK    5  A    between atoms: N_21  and  N_22
REMARK    6  A    between atoms: C_23  and  C_25
REMARK    7  A    between atoms: N_27  and  C_28
REMARK                            x       y       z     vdW  Elec       q    Type
REMARK                         _______ _______ _______ _____ _____    ______ ____
ROOT
ATOM      1  C   UNL     1       3.538  -4.755   0.395  0.00  0.00    +0.142 C 
ATOM      2  N   UNL     1       2.398  -4.133   0.310  0.00  0.00    -0.187 NA
ENDROOT
BRANCH   1  12
ATOM      3  C   UNL     1       4.778  -2.596   0.373  0.00  0.00    +0.141 A 
ATOM      4  C   UNL     1       5.971  -1.876   0.419  0.00  0.00    +0.047 A 
ATOM      5  C   UNL     1       7.177  -2.495   0.519  0.00  0.00    +0.012 A 
ATOM      6  C   UNL     1       7.264  -3.897   0.582  0.00  0.00    -0.017 A 
ATOM      7  C   UNL     1       8.506  -4.547   0.686  0.00  0.00    +0.008 A 
ATOM      8  C   UNL     1       8.552  -5.906   0.744  0.00  0.00    +0.001 A 
ATOM      9  C   UNL     1       7.386  -6.666   0.702  0.00  0.00    +0.001 A 
ATOM     10  C   UNL     1       6.165  -6.069   0.600  0.00  0.00    +0.009 A 
ATOM     11  C   UNL     1       6.080  -4.673   0.539  0.00  0.00    -0.006 A 
ATOM     12  C   UNL     1       4.791  -3.990   0.436  0.00  0.00    +0.045 A 
BRANCH   3  13
ATOM     13  O   UNL     1       3.595  -1.937   0.272  0.00  0.00    -0.422 OA
BRANCH  13  14
ATOM     14  C   UNL     1       2.938  -1.640   1.410  0.00  0.00    +0.344 C 
ATOM     15  O   UNL     1       3.348  -2.055   2.475  0.00  0.00    -0.245 OA
BRANCH  14  19
ATOM     16  C   UNL     1      -0.571   0.749   1.273  0.00  0.00    +0.000 A 
ATOM     17  C   UNL     1      -0.162   0.193   2.473  0.00  0.00    +0.001 A 
ATOM     18  C   UNL     1       0.976  -0.584   2.524  0.00  0.00    +0.015 A 
ATOM     19  C   UNL     1       1.717  -0.809   1.362  0.00  0.00    +0.059 A 
ATOM     20  C   UNL     1       1.299  -0.245   0.155  0.00  0.00    +0.015 A 
ATOM     21  C   UNL     1       0.159   0.530   0.118  0.00  0.00    +0.001 A 
ENDBRANCH  14  19
ENDBRANCH  13  14
ENDBRANCH   3  13
ENDBRANCH   1  12
BRANCH   2  22
ATOM     22  N   UNL     1       1.200  -4.855   0.380  0.00  0.00    -0.199 N 
ATOM     23  C   UNL     1       0.022  -4.223   0.207  0.00  0.00    +0.318 C 
ATOM     24  O   UNL     1       0.002  -3.050  -0.106  0.00  0.00    -0.263 OA
ATOM     25  H   UNL     1       1.217  -5.809   0.553  0.00  0.00    +0.178 HD
BRANCH  23  26
ATOM     26  C   UNL     1      -1.257  -4.964   0.401  0.00  0.00    +0.305 C 
ATOM     27  O   UNL     1      -1.237  -6.137   0.715  0.00  0.00    -0.265 OA
ATOM     28  N   UNL     1      -2.435  -4.332   0.229  0.00  0.00    -0.277 N 
ATOM     29  H   UNL     1      -2.451  -3.415  -0.086  0.00  0.00    +0.155 HD
BRANCH  28  30
ATOM     30  C   UNL     1      -3.629  -4.997   0.502  0.00  0.00    +0.042 A 
ATOM     31  C   UNL     1      -3.653  -6.042   1.401  0.00  0.00    +0.024 A 
ATOM     32  C   UNL     1      -4.840  -6.712   1.681  0.00  0.00    +0.002 A 
ATOM     33  C   UNL     1      -6.007  -6.356   1.078  0.00  0.00    +0.008 A 
ATOM     34  C   UNL     1      -6.026  -5.296   0.156  0.00  0.00    -0.016 A 
ATOM     35  C   UNL     1      -4.825  -4.602  -0.134  0.00  0.00    +0.003 A 
ATOM     36  C   UNL     1      -4.847  -3.540  -1.051  0.00  0.00    +0.010 A 
ATOM     37  C   UNL     1      -6.020  -3.187  -1.646  0.00  0.00    +0.001 A 
ATOM     38  C   UNL     1      -7.202  -3.865  -1.358  0.00  0.00    +0.001 A 
ATOM     39  C   UNL     1      -7.217  -4.908  -0.483  0.00  0.00    +0.008 A 
ENDBRANCH  28  30
ENDBRANCH  23  26
ENDBRANCH   2  22
TORSDOF 7
