REMARK  Name = ZINC03999548
REMARK  5 active torsions:
REMARK  status: ('A' for Active; 'I' for Inactive)
REMARK    1  A    between atoms: C_1  and  C_2
REMARK    2  A    between atoms: C_5  and  N_8
REMARK    3  A    between atoms: C_11  and  C_14
REMARK    4  A    between atoms: C_14  and  C_27
REMARK    5  A    between atoms: C_18  and  C_23
REMARK                            x       y       z     vdW  Elec       q    Type
REMARK                         _______ _______ _______ _____ _____    ______ ____
ROOT
ATOM      1  N   UNL     1      -0.717   5.829  -4.276  0.00  0.00    -0.294 N 
ATOM      2  C   UNL     1       0.237   5.927  -3.275  0.00  0.00    +0.163 A 
ATOM      3  N   UNL     1       0.830   4.962  -2.598  0.00  0.00    -0.226 NA
ATOM      4  C   UNL     1       1.723   5.232  -1.664  0.00  0.00    +0.094 A 
ATOM      5  C   UNL     1       2.031   6.528  -1.420  0.00  0.00    +0.075 A 
ATOM      6  S   UNL     1       0.965   7.350  -2.595  0.00  0.00    -0.060 S 
ATOM      7  H   UNL     1      -0.969   4.959  -4.623  0.00  0.00    +0.154 HD
ENDROOT
BRANCH   4   8
ATOM      8  C   UNL     1       2.390   4.123  -0.892  0.00  0.00    +0.154 C 
ATOM      9  C   UNL     1       1.813   2.751  -1.312  0.00  0.00    +0.084 C 
ATOM     10  C   UNL     1       1.634   2.035   0.035  0.00  0.00    +0.171 C 
ATOM     11  C   UNL     1       2.451   0.736   0.077  0.00  0.00    +0.074 C 
ATOM     12  C   UNL     1       1.439  -0.255   0.703  0.00  0.00    +0.175 C 
ATOM     13  O   UNL     1       0.131   0.290   0.354  0.00  0.00    -0.461 OA
ATOM     14  C   UNL     1       0.203   1.628   0.253  0.00  0.00    +0.325 C 
ATOM     15  O   UNL     1      -0.736   2.385   0.322  0.00  0.00    -0.250 OA
ATOM     16  C   UNL     1       1.615  -1.650   0.101  0.00  0.00    +0.052 C 
ATOM     17  C   UNL     1       2.104   3.011   1.080  0.00  0.00    +0.325 C 
ATOM     18  O   UNL     1       2.437   2.739   2.209  0.00  0.00    -0.250 OA
ATOM     19  O   UNL     1       2.088   4.243   0.532  0.00  0.00    -0.451 OA
ATOM     20  C   UNL     1       3.903   4.155  -1.118  0.00  0.00    +0.063 C 
ENDBRANCH   4   8
BRANCH   1  25
ATOM     21  C   UNL     1      -3.152  10.517  -6.340  0.00  0.00    +0.044 C 
ATOM     22  C   UNL     1      -2.505   9.271  -5.792  0.00  0.00    -0.050 A 
ATOM     23  C   UNL     1      -2.281   8.188  -6.621  0.00  0.00    +0.005 A 
ATOM     24  C   UNL     1      -1.688   7.045  -6.122  0.00  0.00    +0.023 A 
ATOM     25  C   UNL     1      -1.317   6.984  -4.785  0.00  0.00    +0.033 A 
ATOM     26  C   UNL     1      -1.548   8.072  -3.953  0.00  0.00    +0.023 A 
ATOM     27  C   UNL     1      -2.136   9.215  -4.460  0.00  0.00    +0.005 A 
ENDBRANCH   1  25
TORSDOF 2
