REMARK  Name = ZINC15968016
REMARK  4 active torsions:
REMARK  status: ('A' for Active; 'I' for Inactive)
REMARK    1  A    between atoms: C_16  and  C_19
REMARK    2  A    between atoms: C_19  and  C_20
REMARK    3  A    between atoms: N_25  and  C_28
REMARK    4  A    between atoms: C_28  and  C_29
REMARK                            x       y       z     vdW  Elec       q    Type
REMARK                         _______ _______ _______ _____ _____    ______ ____
ROOT
ATOM      1  C   UNL     1      -0.017   1.379   0.010  0.00  0.00    +0.002 A 
ATOM      2  C   UNL     1       1.174   2.083   0.002  0.00  0.00    +0.008 A 
ATOM      3  C   UNL     1       2.374   1.409  -0.013  0.00  0.00    +0.005 A 
ATOM      4  C   UNL     1       2.406   0.018  -0.022  0.00  0.00    +0.057 A 
ATOM      5  C   UNL     1       1.203  -0.685  -0.014  0.00  0.00    +0.062 A 
ATOM      6  C   UNL     1       0.002  -0.004   0.002  0.00  0.00    +0.022 A 
ATOM      7 CL   UNL     1       1.214  -2.421  -0.023  0.00  0.00    -0.082 Cl
ATOM      8  N   UNL     1       3.728  -0.435  -0.041  0.00  0.00    -0.282 N 
ATOM      9  C   UNL     1       4.613   0.581  -0.046  0.00  0.00    +0.243 C 
ATOM     10  O   UNL     1       5.822   0.488  -0.065  0.00  0.00    -0.273 OA
ATOM     11  C   UNL     1       3.810   1.853  -0.024  0.00  0.00    +0.136 C 
ATOM     12  C   UNL     1       4.119   2.733  -1.241  0.00  0.00    +0.122 C 
ATOM     13  C   UNL     1       5.140   3.781  -0.718  0.00  0.00    +0.107 C 
ATOM     14  C   UNL     1       5.348   3.422   0.769  0.00  0.00    +0.076 C 
ATOM     15  N   UNL     1       4.133   2.671   1.159  0.00  0.00    -0.295 NA
ATOM     16  C   UNL     1       6.395   3.464  -1.500  0.00  0.00    +0.227 C 
ATOM     17  O   UNL     1       7.450   4.052  -1.399  0.00  0.00    -0.275 OA
ATOM     18  N   UNL     1       6.160   2.432  -2.319  0.00  0.00    -0.237 N 
ATOM     19  C   UNL     1       4.902   1.939  -2.262  0.00  0.00    +0.229 C 
ATOM     20  O   UNL     1       4.467   1.015  -2.914  0.00  0.00    -0.275 OA
ATOM     21  H   UNL     1       3.979  -1.372  -0.049  0.00  0.00    +0.155 HD
ATOM     22  H   UNL     1       3.381   3.308   1.375  0.00  0.00    +0.124 HD
ENDROOT
BRANCH  14  23
ATOM     23  C   UNL     1       5.503   4.693   1.607  0.00  0.00    +0.115 C 
BRANCH  23  24
ATOM     24  C   UNL     1       5.826   4.319   3.031  0.00  0.00    +0.212 C 
ATOM     25  O   UNL     1       5.923   3.152   3.345  0.00  0.00    -0.276 OA
ATOM     26  N   UNL     1       6.008   5.283   3.956  0.00  0.00    -0.329 N 
ATOM     27  H   UNL     1       5.930   6.217   3.705  0.00  0.00    +0.145 HD
ATOM     28  H   UNL     1       6.216   5.043   4.872  0.00  0.00    +0.145 HD
ENDBRANCH  23  24
ENDBRANCH  14  23
BRANCH  18  29
ATOM     29  C   UNL     1       7.182   1.883  -3.215  0.00  0.00    +0.151 C 
BRANCH  29  30
ATOM     30  C   UNL     1       7.939   0.791  -2.503  0.00  0.00    -0.026 A 
ATOM     31  C   UNL     1       9.069   1.101  -1.770  0.00  0.00    +0.009 A 
ATOM     32  C   UNL     1       9.767   0.104  -1.115  0.00  0.00    +0.050 A 
ATOM     33  C   UNL     1       9.334  -1.210  -1.192  0.00  0.00    +0.166 A 
ATOM     34  C   UNL     1       8.195  -1.522  -1.930  0.00  0.00    +0.167 A 
ATOM     35  C   UNL     1       7.498  -0.516  -2.579  0.00  0.00    +0.054 A 
ATOM     36  O   UNL     1       7.979  -2.868  -1.851  0.00  0.00    -0.453 OA
ATOM     37  C   UNL     1       9.224  -3.431  -1.397  0.00  0.00    +0.466 C 
ATOM     38  O   UNL     1       9.832  -2.360  -0.650  0.00  0.00    -0.453 OA
ENDBRANCH  29  30
ENDBRANCH  18  29
TORSDOF 4
