REMARK  Name = ZINC16237576
REMARK  6 active torsions:
REMARK  status: ('A' for Active; 'I' for Inactive)
REMARK    1  A    between atoms: C_4  and  C_7
REMARK    2  A    between atoms: C_7  and  N_55
REMARK    3  A    between atoms: C_16  and  C_18
REMARK    4  A    between atoms: C_18  and  N_19
REMARK    5  A    between atoms: C_20  and  C_22
REMARK    6  A    between atoms: C_23  and  C_24
REMARK                            x       y       z     vdW  Elec       q    Type
REMARK                         _______ _______ _______ _____ _____    ______ ____
ROOT
ATOM      1  C   UNL     1       3.982   5.141  -1.440  0.00  0.00    -0.072 C 
ATOM      2  C   UNL     1       4.635   5.116  -2.825  0.00  0.00    +0.038 C 
ATOM      3  C   UNL     1       3.542   5.313  -3.870  0.00  0.00    +0.050 A 
ATOM      4  C   UNL     1       2.243   5.107  -3.523  0.00  0.00    -0.002 A 
ATOM      5  S   UNL     1       1.379   5.454  -5.029  0.00  0.00    -0.059 S 
ATOM      6  C   UNL     1       2.776   5.838  -5.991  0.00  0.00    +0.165 A 
ATOM      7  N   UNL     1       3.759   5.681  -5.127  0.00  0.00    -0.229 NA
ATOM      8  N   UNL     1       2.839   6.216  -7.327  0.00  0.00    -0.263 N 
ATOM      9  C   UNL     1       4.032   6.474  -7.899  0.00  0.00    +0.236 C 
ATOM     10  O   UNL     1       5.051   6.378  -7.247  0.00  0.00    -0.274 OA
ATOM     11  C   UNL     1       1.722   4.690  -2.190  0.00  0.00    -0.033 C 
ATOM     12  H   UNL     1       2.025   6.293  -7.849  0.00  0.00    +0.157 HD
ATOM     13  N   UNL     1       2.867   4.172  -1.400  0.00  0.00    +0.386 N 
ATOM     14  H   UNL     1       3.181   3.284  -1.809  0.00  0.00    -0.081 HD
ENDROOT
BRANCH  13  15
ATOM     15  C   UNL     1       2.451   3.937  -0.001  0.00  0.00    -0.043 C 
BRANCH  15  19
ATOM     16  C   UNL     1      -1.219   1.751   0.017  0.00  0.00    +0.000 A 
ATOM     17  C   UNL     1      -0.013   1.076   0.008  0.00  0.00    +0.000 A 
ATOM     18  C   UNL     1       1.175   1.783   0.000  0.00  0.00    +0.002 A 
ATOM     19  C   UNL     1       1.156   3.165   0.008  0.00  0.00    -0.064 A 
ATOM     20  C   UNL     1      -0.050   3.840   0.023  0.00  0.00    +0.002 A 
ATOM     21  C   UNL     1      -1.238   3.133   0.030  0.00  0.00    +0.000 A 
ENDBRANCH  15  19
ENDBRANCH  13  15
BRANCH   9  22
ATOM     22  C   UNL     1       4.101   6.883  -9.347  0.00  0.00    +0.200 C 
BRANCH  22  23
ATOM     23  N   UNL     1       5.498   7.106  -9.726  0.00  0.00    -0.303 N 
ATOM     24  C   UNL     1       5.804   7.481 -10.984  0.00  0.00    +0.237 C 
ATOM     25  O   UNL     1       4.919   7.636 -11.805  0.00  0.00    -0.271 OA
ATOM     26  H   UNL     1       6.204   6.983  -9.072  0.00  0.00    +0.149 HD
BRANCH  24  27
ATOM     27  C   UNL     1       7.201   7.704 -11.363  0.00  0.00    +0.068 C 
ATOM     28  C   UNL     1       7.507   8.080 -12.621  0.00  0.00    +0.013 C 
BRANCH  28  29
ATOM     29  C   UNL     1       8.911   8.303 -13.002  0.00  0.00    -0.025 A 
ATOM     30  C   UNL     1       9.930   8.132 -12.060  0.00  0.00    +0.008 A 
ATOM     31  C   UNL     1      11.244   8.339 -12.425  0.00  0.00    +0.001 A 
ATOM     32  C   UNL     1      11.553   8.725 -13.718  0.00  0.00    +0.000 A 
ATOM     33  C   UNL     1      10.550   8.901 -14.654  0.00  0.00    +0.001 A 
ATOM     34  C   UNL     1       9.232   8.693 -14.306  0.00  0.00    +0.008 A 
ENDBRANCH  28  29
ENDBRANCH  24  27
ENDBRANCH  22  23
ENDBRANCH   9  22
TORSDOF 6
