REMARK  Name = ZINC46569554
REMARK  8 active torsions:
REMARK  status: ('A' for Active; 'I' for Inactive)
REMARK    1  A    between atoms: C_8  and  C_10
REMARK    2  A    between atoms: C_13  and  C_16
REMARK    3  A    between atoms: C_21  and  C_23
REMARK    4  A    between atoms: C_23  and  N_24
REMARK    5  A    between atoms: N_24  and  C_25
REMARK    6  A    between atoms: N_24  and  C_35
REMARK    7  A    between atoms: C_25  and  C_26
REMARK    8  A    between atoms: C_29  and  C_32
REMARK                            x       y       z     vdW  Elec       q    Type
REMARK                         _______ _______ _______ _____ _____    ______ ____
ROOT
ATOM      1  C   UNL     1       3.795  -3.402   0.723  0.00  0.00    +0.104 C 
ATOM      2  N   UNL     1       3.344  -4.589   0.489  0.00  0.00    -0.178 NA
ATOM      3  N   UNL     1       4.338  -5.542   0.275  0.00  0.00    -0.184 N 
ATOM      4  C   UNL     1       5.653  -4.892   0.383  0.00  0.00    +0.173 C 
ATOM      5  C   UNL     1       5.307  -3.420   0.684  0.00  0.00    +0.093 C 
ATOM      6  C   UNL     1       4.128  -6.847   0.013  0.00  0.00    +0.219 C 
ATOM      7  O   UNL     1       5.071  -7.591  -0.157  0.00  0.00    -0.276 OA
ENDROOT
BRANCH   1  15
ATOM      8  C   UNL     1      -0.013   1.176   1.732  0.00  0.00    +0.001 A 
ATOM      9  C   UNL     1       1.174   1.885   1.847  0.00  0.00    +0.004 A 
ATOM     10  C   UNL     1       2.390   1.254   1.692  0.00  0.00    +0.047 A 
ATOM     11  C   UNL     1       2.433  -0.107   1.418  0.00  0.00    +0.136 A 
ATOM     12  C   UNL     1       1.226  -0.822   1.302  0.00  0.00    +0.021 A 
ATOM     13  C   UNL     1       0.005  -0.164   1.462  0.00  0.00    +0.011 A 
ATOM     14  C   UNL     1       1.610  -2.204   1.015  0.00  0.00    +0.059 A 
ATOM     15  C   UNL     1       2.969  -2.218   0.980  0.00  0.00    +0.152 A 
ATOM     16  O   UNL     1       3.443  -0.978   1.219  0.00  0.00    -0.454 OA
ENDBRANCH   1  15
BRANCH   4  17
ATOM     17  C   UNL     1       6.407  -5.002  -0.916  0.00  0.00    +0.128 A 
ATOM     18  C   UNL     1       7.728  -5.225  -1.043  0.00  0.00    +0.046 A 
ATOM     19  C   UNL     1       8.007  -5.253  -2.429  0.00  0.00    +0.041 A 
ATOM     20  C   UNL     1       6.841  -5.045  -3.066  0.00  0.00    +0.195 A 
ATOM     21  O   UNL     1       5.874  -4.899  -2.145  0.00  0.00    -0.466 OA
ENDBRANCH   4  17
BRANCH   6  22
ATOM     22  C   UNL     1       2.721  -7.383  -0.071  0.00  0.00    +0.021 C 
BRANCH  22  23
ATOM     23  N   UNL     1       2.761  -8.844  -0.215  0.00  0.00    +0.390 N 
ATOM     24  H   UNL     1       3.353  -9.089  -0.995  0.00  0.00    -0.080 HD
BRANCH  23  25
ATOM     25  C   UNL     1       1.403  -9.350  -0.452  0.00  0.00    -0.068 C 
ATOM     26  C   UNL     1       1.217 -10.376  -1.572  0.00  0.00    -0.017 C 
ATOM     27  C   UNL     1       0.715  -8.943  -1.757  0.00  0.00    -0.017 C 
ENDBRANCH  23  25
BRANCH  23  28
ATOM     28  C   UNL     1       3.299  -9.443   1.014  0.00  0.00    -0.042 C 
BRANCH  28  29
ATOM     29  C   UNL     1       3.455 -10.929   0.822  0.00  0.00    -0.064 A 
ATOM     30  C   UNL     1       2.408 -11.778   1.134  0.00  0.00    +0.002 A 
ATOM     31  C   UNL     1       2.545 -13.140   0.961  0.00  0.00    +0.013 A 
ATOM     32  C   UNL     1       3.742 -13.661   0.469  0.00  0.00    +0.037 A 
ATOM     33  C   UNL     1       4.795 -12.799   0.155  0.00  0.00    +0.013 A 
ATOM     34  C   UNL     1       4.643 -11.439   0.328  0.00  0.00    +0.002 A 
BRANCH  32  35
ATOM     35  C   UNL     1       3.896 -15.119   0.281  0.00  0.00    +0.242 C 
ATOM     36  O   UNL     1       2.978 -15.867   0.555  0.00  0.00    -0.270 OA
ATOM     37  N   UNL     1       5.053 -15.619  -0.195  0.00  0.00    -0.325 N 
ATOM     38  H   UNL     1       5.786 -15.022  -0.414  0.00  0.00    +0.145 HD
ATOM     39  H   UNL     1       5.154 -16.576  -0.319  0.00  0.00    +0.145 HD
ENDBRANCH  32  35
ENDBRANCH  28  29
ENDBRANCH  23  28
ENDBRANCH  22  23
ENDBRANCH   6  22
TORSDOF 8
