REMARK  Name = ZINC32001101
REMARK  6 active torsions:
REMARK  status: ('A' for Active; 'I' for Inactive)
REMARK    1  A    between atoms: C_1  and  C_2
REMARK    2  A    between atoms: C_2  and  C_4
REMARK    3  A    between atoms: C_2  and  N_25
REMARK    4  A    between atoms: N_9  and  C_12
REMARK    5  A    between atoms: C_12  and  C_13
REMARK    6  A    between atoms: C_16  and  C_18
REMARK                            x       y       z     vdW  Elec       q    Type
REMARK                         _______ _______ _______ _____ _____    ______ ____
ROOT
ATOM      1  C   UNL     1      -2.413   0.873  -0.581  0.00  0.00    +0.236 C 
ATOM      2  O   UNL     1      -2.226  -0.283  -0.898  0.00  0.00    -0.274 OA
ATOM      3  N   UNL     1      -3.624   1.435  -0.763  0.00  0.00    -0.298 N 
ATOM      4  C   UNL     1      -3.844   2.862  -0.483  0.00  0.00    +0.123 C 
ATOM      5  C   UNL     1      -4.511   3.498  -1.713  0.00  0.00    +0.104 C 
ATOM      6  N   UNL     1      -5.722   2.738  -2.054  0.00  0.00    -0.295 NA
ATOM      7  C   UNL     1      -5.395   1.358  -2.437  0.00  0.00    +0.104 C 
ATOM      8  C   UNL     1      -4.762   0.636  -1.242  0.00  0.00    +0.123 C 
ENDROOT
BRANCH   1  10
ATOM      9  C   UNL     1      -1.475   1.767   1.534  0.00  0.00    +0.038 C 
ATOM     10  C   UNL     1      -1.290   1.681   0.018  0.00  0.00    +0.157 C 
BRANCH  10  11
ATOM     11  N   UNL     1      -0.010   1.034  -0.281  0.00  0.00    -0.289 N 
ATOM     12  C   UNL     1       1.122   1.765  -0.319  0.00  0.00    +0.298 C 
ATOM     13  O   UNL     1       1.081   2.960  -0.101  0.00  0.00    -0.253 OA
ATOM     14  N   UNL     1       2.299   1.171  -0.600  0.00  0.00    -0.313 N 
ATOM     15  H   UNL     1       0.028  -0.048  -0.475  0.00  0.00    +0.151 HD
ATOM     16  H   UNL     1       3.222   1.768  -0.631  0.00  0.00    +0.146 HD
ATOM     17  H   UNL     1       2.336   0.090  -0.798  0.00  0.00    +0.146 HD
ENDBRANCH  10  11
ENDBRANCH   1  10
BRANCH   6  18
ATOM     18  C   UNL     1      -6.485   3.412  -3.113  0.00  0.00    +0.127 C 
BRANCH  18  19
ATOM     19  C   UNL     1      -6.590   4.882  -2.800  0.00  0.00    +0.004 A 
ATOM     20  C   UNL     1      -5.751   5.891  -3.149  0.00  0.00    +0.013 A 
ATOM     21  C   UNL     1      -6.047   7.177  -2.752  0.00  0.00    +0.016 A 
ATOM     22  C   UNL     1      -7.175   7.393  -2.007  0.00  0.00    +0.022 A 
ATOM     23  S   UNL     1      -7.844   5.744  -1.866  0.00  0.00    -0.092 S 
BRANCH  22  24
ATOM     24  C   UNL     1      -7.703   8.662  -1.462  0.00  0.00    +0.024 A 
ATOM     25  C   UNL     1      -6.869   9.513  -0.735  0.00  0.00    +0.012 A 
ATOM     26  C   UNL     1      -7.366  10.697  -0.232  0.00  0.00    +0.001 A 
ATOM     27  C   UNL     1      -8.691  11.039  -0.438  0.00  0.00    +0.003 A 
ATOM     28  C   UNL     1      -9.526  10.200  -1.153  0.00  0.00    +0.039 A 
ATOM     29  C   UNL     1      -9.040   9.012  -1.667  0.00  0.00    +0.132 A 
ATOM     30  F   UNL     1      -9.856   8.192  -2.364  0.00  0.00    -0.205 F 
ENDBRANCH  22  24
ENDBRANCH  18  19
ENDBRANCH   6  18
TORSDOF 5
