REMARK  Name = ZINC40011174
REMARK  7 active torsions:
REMARK  status: ('A' for Active; 'I' for Inactive)
REMARK    1  A    between atoms: C_1  and  C_2
REMARK    2  A    between atoms: C_5  and  N_27
REMARK    3  A    between atoms: C_7  and  C_13
REMARK    4  A    between atoms: C_19  and  O_25
REMARK    5  A    between atoms: O_25  and  C_26
REMARK    6  A    between atoms: N_27  and  C_28
REMARK    7  A    between atoms: C_28  and  C_29
REMARK                            x       y       z     vdW  Elec       q    Type
REMARK                         _______ _______ _______ _____ _____    ______ ____
ROOT
ATOM      1  C   UNL     1      -0.279   1.603   0.258  0.00  0.00    +0.045 C 
ATOM      2  C   UNL     1      -0.177   0.101   0.186  0.00  0.00    -0.036 C 
ATOM      3  C   UNL     1      -1.297  -0.648   0.134  0.00  0.00    +0.078 C 
ATOM      4  N   UNL     1      -1.228  -2.010   0.069  0.00  0.00    -0.304 N 
ATOM      5  C   UNL     1      -2.301  -3.016   0.005  0.00  0.00    +0.049 C 
ATOM      6  C   UNL     1      -1.540  -4.353  -0.050  0.00  0.00    +0.126 C 
ATOM      7  N   UNL     1      -0.127  -3.961  -0.013  0.00  0.00    -0.265 NA
ATOM      8  C   UNL     1      -0.017  -2.651   0.053  0.00  0.00    +0.119 C 
ATOM      9  C   UNL     1       1.172  -1.869   0.107  0.00  0.00    +0.044 C 
ATOM     10  C   UNL     1       1.085  -0.517   0.167  0.00  0.00    +0.008 C 
ENDROOT
BRANCH   6  11
ATOM     11  C   UNL     1      -1.891  -5.220   1.160  0.00  0.00    +0.123 C 
ATOM     12  C   UNL     1      -1.041  -6.474   1.096  0.00  0.00    -0.003 C 
ATOM     13  C   UNL     1      -1.691  -7.669   1.064  0.00  0.00    -0.007 A 
ATOM     14  C   UNL     1      -0.942  -8.926   1.002  0.00  0.00    +0.013 A 
ATOM     15  C   UNL     1      -1.622 -10.097   0.972  0.00  0.00    +0.046 A 
ATOM     16  C   UNL     1      -3.025 -10.126   0.999  0.00  0.00    +0.122 A 
ATOM     17  C   UNL     1      -3.783  -8.977   1.057  0.00  0.00    +0.069 A 
ATOM     18  C   UNL     1      -3.164  -7.720   1.091  0.00  0.00    +0.044 A 
ATOM     19  N   UNL     1      -3.909  -6.613   1.147  0.00  0.00    -0.284 N 
ATOM     20  C   UNL     1      -3.393  -5.399   1.183  0.00  0.00    +0.226 C 
ATOM     21  O   UNL     1      -4.122  -4.426   1.234  0.00  0.00    -0.275 OA
ATOM     22  H   UNL     1      -4.875  -6.706   1.162  0.00  0.00    +0.155 HD
BRANCH  16  23
ATOM     23  O   UNL     1      -3.655 -11.324   0.967  0.00  0.00    -0.495 OA
ATOM     24  C   UNL     1      -2.830 -12.489   0.907  0.00  0.00    +0.277 C 
ENDBRANCH  16  23
ENDBRANCH   6  11
BRANCH   5  25
ATOM     25  N   UNL     1      -3.114  -2.829  -1.204  0.00  0.00    +0.396 N 
ATOM     26  H   UNL     1      -2.513  -2.822  -2.015  0.00  0.00    -0.083 HD
ATOM     27  H   UNL     1      -3.777  -3.586  -1.284  0.00  0.00    -0.083 HD
BRANCH  25  28
ATOM     28  C   UNL     1      -3.835  -1.553  -1.118  0.00  0.00    -0.044 C 
BRANCH  28  29
ATOM     29  C   UNL     1      -4.775  -1.426  -2.289  0.00  0.00    -0.064 A 
ATOM     30  C   UNL     1      -4.340  -0.842  -3.464  0.00  0.00    +0.002 A 
ATOM     31  C   UNL     1      -5.203  -0.726  -4.538  0.00  0.00    +0.000 A 
ATOM     32  C   UNL     1      -6.499  -1.194  -4.437  0.00  0.00    +0.000 A 
ATOM     33  C   UNL     1      -6.934  -1.779  -3.263  0.00  0.00    +0.000 A 
ATOM     34  C   UNL     1      -6.070  -1.899  -2.190  0.00  0.00    +0.002 A 
ENDBRANCH  28  29
ENDBRANCH  25  28
ENDBRANCH   5  25
TORSDOF 5
