REMARK  Name = ZINC29930094
REMARK  11 active torsions:
REMARK  status: ('A' for Active; 'I' for Inactive)
REMARK    1  A    between atoms: C_1  and  N_2
REMARK    2  A    between atoms: N_2  and  C_3
REMARK    3  A    between atoms: N_2  and  C_4
REMARK    4  A    between atoms: C_4  and  C_6
REMARK    5  A    between atoms: C_4  and  C_28
REMARK    6  A    between atoms: C_6  and  N_7
REMARK    7  A    between atoms: C_8  and  C_10
REMARK    8  A    between atoms: C_10  and  C_11
REMARK    9  A    between atoms: C_11  and  S_12
REMARK   10  A    between atoms: S_12  and  C_13
REMARK   11  A    between atoms: C_13  and  C_14
REMARK                            x       y       z     vdW  Elec       q    Type
REMARK                         _______ _______ _______ _____ _____    ______ ____
ROOT
ATOM      1  C   UNL     1      -1.787   3.390  -2.728  0.00  0.00    +0.106 C 
ENDROOT
BRANCH   1   3
ATOM      2  N   UNL     1      -1.702   1.302  -1.405  0.00  0.00    -0.317 N 
ATOM      3  C   UNL     1      -2.076   1.923  -2.541  0.00  0.00    +0.214 C 
ATOM      4  O   UNL     1      -2.645   1.302  -3.413  0.00  0.00    -0.276 OA
ATOM      5  H   UNL     1      -1.246   1.799  -0.708  0.00  0.00    +0.149 HD
BRANCH   2   6
ATOM      6  C   UNL     1      -1.983  -0.125  -1.224  0.00  0.00    +0.093 C 
BRANCH   6   7
ATOM      7  C   UNL     1      -1.353  -0.606   0.085  0.00  0.00    -0.020 C 
BRANCH   7   8
ATOM      8  C   UNL     1       0.147  -0.502  -0.012  0.00  0.00    -0.041 A 
ATOM      9  C   UNL     1       0.805   0.566   0.570  0.00  0.00    +0.003 A 
ATOM     10  C   UNL     1       2.181   0.661   0.481  0.00  0.00    +0.000 A 
ATOM     11  C   UNL     1       2.901  -0.311  -0.189  0.00  0.00    +0.001 A 
ATOM     12  C   UNL     1       2.244  -1.379  -0.770  0.00  0.00    +0.020 A 
ATOM     13  C   UNL     1       0.868  -1.478  -0.677  0.00  0.00    +0.043 A 
ATOM     14 CL   UNL     1       0.043  -2.823  -1.402  0.00  0.00    -0.083 Cl
ENDBRANCH   7   8
BRANCH   7  16
ATOM     15  C   UNL     1      -3.300   0.231   1.207  0.00  0.00    -0.096 C 
ATOM     16  N   UNL     1      -1.831   0.228   1.195  0.00  0.00    +0.382 N 
ATOM     17  C   UNL     1      -1.332  -0.314   2.465  0.00  0.00    -0.096 C 
ATOM     18  H   UNL     1      -1.494   1.172   1.076  0.00  0.00    -0.082 HD
ENDBRANCH   7  16
ENDBRANCH   6   7
ENDBRANCH   2   6
ENDBRANCH   1   3
BRANCH   1  19
ATOM     19  C   UNL     1      -2.311   3.844  -4.091  0.00  0.00    +0.079 C 
BRANCH  19  20
ATOM     20  S   UNL     1      -1.963   5.610  -4.316  0.00  0.00    -0.153 S 
BRANCH  20  21
ATOM     21  C   UNL     1      -2.638   5.986  -5.957  0.00  0.00    +0.143 C 
BRANCH  21  22
ATOM     22  C   UNL     1      -2.412   7.442  -6.272  0.00  0.00    +0.121 A 
ATOM     23  N   UNL     1      -2.847   7.942  -7.457  0.00  0.00    -0.310 N 
ATOM     24  H   UNL     1      -3.297   7.355  -8.085  0.00  0.00    +0.170 HD
ATOM     25  C   UNL     1      -2.666   9.237  -7.779  0.00  0.00    +0.260 A 
ATOM     26  O   UNL     1      -3.061   9.673  -8.847  0.00  0.00    -0.267 OA
ATOM     27  C   UNL     1      -2.000  10.093  -6.843  0.00  0.00    +0.075 A 
ATOM     28  C   UNL     1      -1.696  11.526  -6.982  0.00  0.00    -0.023 A 
ATOM     29  C   UNL     1      -1.055  12.112  -5.956  0.00  0.00    -0.004 A 
ATOM     30  S   UNL     1      -0.822  10.818  -4.759  0.00  0.00    -0.073 S 
ATOM     31  C   UNL     1      -1.587   9.489  -5.649  0.00  0.00    +0.116 A 
ATOM     32  N   UNL     1      -1.807   8.200  -5.398  0.00  0.00    -0.226 NA
ATOM     33  C   UNL     1      -0.794  13.573  -6.210  0.00  0.00    +0.043 C 
ATOM     34  C   UNL     1      -0.979  13.740  -7.735  0.00  0.00    +0.010 C 
ATOM     35  C   UNL     1      -1.942  12.582  -8.062  0.00  0.00    +0.037 C 
ENDBRANCH  21  22
ENDBRANCH  20  21
ENDBRANCH  19  20
ENDBRANCH   1  19
TORSDOF 9
