REMARK  Name = ZINC21022906
REMARK  7 active torsions:
REMARK  status: ('A' for Active; 'I' for Inactive)
REMARK    1  A    between atoms: C_1  and  C_2
REMARK    2  A    between atoms: C_5  and  C_33
REMARK    3  A    between atoms: C_6  and  N_8
REMARK    4  A    between atoms: C_9  and  C_11
REMARK    5  A    between atoms: C_16  and  S_24
REMARK    6  A    between atoms: C_21  and  C_23
REMARK    7  A    between atoms: S_24  and  N_27
REMARK                            x       y       z     vdW  Elec       q    Type
REMARK                         _______ _______ _______ _____ _____    ______ ____
ROOT
ATOM      1  C   UNL     1      -7.664   1.537  -1.500  0.00  0.00    +0.172 C 
ATOM      2  C   UNL     1      -6.416   2.223  -2.080  0.00  0.00    +0.069 C 
ATOM      3  C   UNL     1      -5.643   2.696  -0.870  0.00  0.00    -0.022 A 
ATOM      4  C   UNL     1      -4.447   3.380  -0.769  0.00  0.00    +0.034 A 
ATOM      5  C   UNL     1      -3.933   3.700   0.474  0.00  0.00    +0.106 A 
ATOM      6  C   UNL     1      -4.626   3.346   1.617  0.00  0.00    +0.030 A 
ATOM      7  C   UNL     1      -5.823   2.669   1.521  0.00  0.00    +0.026 A 
ATOM      8  C   UNL     1      -6.345   2.336   0.270  0.00  0.00    +0.040 A 
ATOM      9  N   UNL     1      -7.527   1.659  -0.046  0.00  0.00    -0.259 N 
ATOM     10  C   UNL     1      -8.412   1.188   0.855  0.00  0.00    +0.217 C 
ATOM     11  O   UNL     1      -8.163   1.253   2.040  0.00  0.00    -0.276 OA
ATOM     12  C   UNL     1      -9.710   0.580   0.390  0.00  0.00    +0.109 C 
ENDROOT
BRANCH   1  14
ATOM     13  N   UNL     1      -8.130  -0.264  -3.130  0.00  0.00    -0.284 N 
ATOM     14  C   UNL     1      -7.697   0.085  -1.902  0.00  0.00    +0.238 C 
ATOM     15  O   UNL     1      -7.335  -0.769  -1.121  0.00  0.00    -0.273 OA
ATOM     16  H   UNL     1      -8.388   0.513  -3.864  0.00  0.00    +0.155 HD
BRANCH  13  22
ATOM     17  C   UNL     1      -6.495  -4.886  -2.759  0.00  0.00    +0.044 C 
ATOM     18  C   UNL     1      -7.473  -3.878  -3.304  0.00  0.00    -0.049 A 
ATOM     19  C   UNL     1      -8.493  -4.289  -4.143  0.00  0.00    +0.004 A 
ATOM     20  C   UNL     1      -9.393  -3.367  -4.645  0.00  0.00    +0.005 A 
ATOM     21  C   UNL     1      -9.279  -2.033  -4.307  0.00  0.00    -0.029 A 
ATOM     22  C   UNL     1      -8.252  -1.616  -3.470  0.00  0.00    +0.037 A 
ATOM     23  C   UNL     1      -7.350  -2.544  -2.967  0.00  0.00    +0.027 A 
ATOM     24  C   UNL     1     -10.264  -1.030  -4.850  0.00  0.00    +0.045 C 
ENDBRANCH  13  22
ENDBRANCH   1  14
BRANCH   5  25
ATOM     25  S   UNL     1      -2.404   4.566   0.601  0.00  0.00    +0.061 S 
ATOM     26  O   UNL     1      -2.416   5.230   1.857  0.00  0.00    -0.153 OA
ATOM     27  O   UNL     1      -2.227   5.260  -0.626  0.00  0.00    -0.153 OA
BRANCH  25  28
ATOM     28  N   UNL     1      -1.203   3.428   0.679  0.00  0.00    -0.177 NA
ATOM     29  C   UNL     1      -0.564   2.929  -0.547  0.00  0.00    +0.109 C 
ATOM     30  C   UNL     1      -0.645   1.400  -0.557  0.00  0.00    +0.017 C 
ATOM     31  C   UNL     1      -0.038   0.852   0.736  0.00  0.00    +0.003 C 
ATOM     32  C   UNL     1      -0.835   1.369   1.935  0.00  0.00    +0.017 C 
ATOM     33  C   UNL     1      -0.756   2.898   1.974  0.00  0.00    +0.109 C 
ENDBRANCH  25  28
ENDBRANCH   5  25
TORSDOF 4
