REMARK  Name = ZINC42167060
REMARK  4 active torsions:
REMARK  status: ('A' for Active; 'I' for Inactive)
REMARK    1  A    between atoms: C_6  and  S_7
REMARK    2  A    between atoms: S_7  and  N_10
REMARK    3  A    between atoms: N_10  and  C_11
REMARK    4  A    between atoms: C_11  and  C_12
REMARK                            x       y       z     vdW  Elec       q    Type
REMARK                         _______ _______ _______ _____ _____    ______ ____
ROOT
ATOM      1  C   UNL     1      -0.017   1.380   0.010  0.00  0.00    +0.030 A 
ATOM      2  C   UNL     1       1.167   2.093   0.002  0.00  0.00    +0.030 A 
ATOM      3  C   UNL     1       2.378   1.419  -0.013  0.00  0.00    +0.067 A 
ATOM      4  C   UNL     1       2.397   0.022  -0.021  0.00  0.00    +0.069 A 
ATOM      5  C   UNL     1       1.204  -0.684  -0.014  0.00  0.00    +0.056 A 
ATOM      6  C   UNL     1       0.002  -0.004   0.002  0.00  0.00    +0.107 A 
ATOM      7  N   UNL     1       3.736  -0.362  -0.035  0.00  0.00    -0.306 N 
ATOM      8  H   UNL     1       4.064  -1.275  -0.043  0.00  0.00    +0.170 HD
ATOM      9  C   UNL     1       4.496   0.749  -0.035  0.00  0.00    +0.325 A 
ATOM     10  O   UNL     1       5.713   0.766  -0.047  0.00  0.00    -0.247 OA
ATOM     11  N   UNL     1       3.706   1.839  -0.023  0.00  0.00    -0.306 N 
ATOM     12  H   UNL     1       4.010   2.760  -0.020  0.00  0.00    +0.170 HD
ENDROOT
BRANCH   6  13
ATOM     13  S   UNL     1      -1.514  -0.902   0.012  0.00  0.00    +0.058 S 
ATOM     14  O   UNL     1      -1.223  -2.183   0.553  0.00  0.00    -0.153 OA
ATOM     15  O   UNL     1      -2.493  -0.041   0.577  0.00  0.00    -0.153 OA
BRANCH  13  16
ATOM     16  N   UNL     1      -1.951  -1.143  -1.567  0.00  0.00    -0.190 NA
ATOM     17  H   UNL     1      -2.757  -0.732  -1.915  0.00  0.00    +0.148 HD
BRANCH  16  18
ATOM     18  C   UNL     1      -1.119  -1.977  -2.438  0.00  0.00    +0.109 C 
BRANCH  18  19
ATOM     19  C   UNL     1      -1.907  -2.345  -3.696  0.00  0.00    +0.005 C 
ATOM     20  C   UNL     1      -2.759  -3.616  -3.541  0.00  0.00    +0.005 C 
ATOM     21  C   UNL     1      -2.333  -3.982  -4.973  0.00  0.00    +0.001 C 
ATOM     22  C   UNL     1      -1.081  -3.120  -4.736  0.00  0.00    +0.005 C 
ENDBRANCH  18  19
ENDBRANCH  16  18
ENDBRANCH  13  16
ENDBRANCH   6  13
TORSDOF 4
