REMARK  Name = ZINC41019641
REMARK  11 active torsions:
REMARK  status: ('A' for Active; 'I' for Inactive)
REMARK    1  A    between atoms: C_1  and  C_2
REMARK    2  A    between atoms: C_2  and  C_3
REMARK    3  A    between atoms: C_3  and  C_4
REMARK    4  A    between atoms: C_4  and  S_5
REMARK    5  A    between atoms: S_5  and  C_6
REMARK    6  A    between atoms: C_11  and  C_28
REMARK    7  A    between atoms: C_13  and  C_17
REMARK    8  A    between atoms: C_14  and  C_16
REMARK    9  A    between atoms: N_19  and  C_20
REMARK   10  A    between atoms: C_24  and  C_27
REMARK   11  A    between atoms: C_25  and  C_26
REMARK                            x       y       z     vdW  Elec       q    Type
REMARK                         _______ _______ _______ _____ _____    ______ ____
ROOT
ATOM      1  C   UNL     1       0.352  -4.535  -4.144  0.00  0.00    +0.210 A 
ATOM      2  N   UNL     1       0.394  -5.022  -2.896  0.00  0.00    -0.187 NA
ATOM      3  C   UNL     1       0.804  -6.261  -2.925  0.00  0.00    +0.219 A 
ATOM      4  N   UNL     1       1.032  -6.599  -4.218  0.00  0.00    -0.220 N 
ATOM      5  N   UNL     1       0.733  -5.474  -4.984  0.00  0.00    -0.141 NA
ATOM      6  C   UNL     1       1.494  -7.920  -4.639  0.00  0.00    +0.179 C 
ATOM      7  C   UNL     1       1.948  -8.700  -3.433  0.00  0.00    +0.060 C 
ATOM      8  C   UNL     1       1.696  -8.313  -2.174  0.00  0.00    +0.018 C 
ATOM      9  N   UNL     1       1.008  -7.160  -1.886  0.00  0.00    -0.287 N 
ATOM     10  C   UNL     1       2.183  -9.174  -1.037  0.00  0.00    +0.061 C 
ATOM     11  H   UNL     1       0.679  -6.980  -0.992  0.00  0.00    +0.155 HD
ENDROOT
BRANCH   6  12
ATOM     12  C   UNL     1       0.367  -8.653  -5.317  0.00  0.00    -0.000 A 
ATOM     13  C   UNL     1      -0.785  -8.954  -4.615  0.00  0.00    +0.007 A 
ATOM     14  C   UNL     1      -1.819  -9.627  -5.237  0.00  0.00    +0.000 A 
ATOM     15  C   UNL     1      -1.702 -10.000  -6.563  0.00  0.00    +0.001 A 
ATOM     16  C   UNL     1      -0.551  -9.701  -7.267  0.00  0.00    +0.020 A 
ATOM     17  C   UNL     1       0.482  -9.022  -6.646  0.00  0.00    +0.046 A 
ATOM     18 CL   UNL     1       1.925  -8.639  -7.531  0.00  0.00    -0.083 Cl
ENDBRANCH   6  12
BRANCH   7  19
ATOM     19  C   UNL     1       2.673  -9.897  -3.639  0.00  0.00    +0.248 C 
ATOM     20  O   UNL     1       3.852  -9.851  -3.940  0.00  0.00    -0.270 OA
ATOM     21  N   UNL     1       2.058 -11.089  -3.503  0.00  0.00    -0.281 N 
ATOM     22  H   UNL     1       1.141 -11.129  -3.189  0.00  0.00    +0.155 HD
BRANCH  21  23
ATOM     23  C   UNL     1       2.743 -12.268  -3.813  0.00  0.00    +0.037 A 
ATOM     24  C   UNL     1       4.063 -12.433  -3.411  0.00  0.00    +0.023 A 
ATOM     25  C   UNL     1       4.736 -13.598  -3.719  0.00  0.00    +0.002 A 
ATOM     26  C   UNL     1       4.098 -14.601  -4.427  0.00  0.00    +0.004 A 
ATOM     27  C   UNL     1       2.785 -14.440  -4.828  0.00  0.00    -0.046 A 
ATOM     28  C   UNL     1       2.104 -13.279  -4.519  0.00  0.00    -0.026 A 
ATOM     29  C   UNL     1       0.671 -13.107  -4.951  0.00  0.00    +0.046 C 
ATOM     30  C   UNL     1       2.094 -15.535  -5.599  0.00  0.00    +0.044 C 
ENDBRANCH  21  23
ENDBRANCH   7  19
BRANCH   1  31
ATOM     31  S   UNL     1      -0.141  -2.903  -4.589  0.00  0.00    -0.084 S 
BRANCH  31  32
ATOM     32  C   UNL     1      -0.538  -2.117  -3.004  0.00  0.00    +0.077 C 
BRANCH  32  33
ATOM     33  C   UNL     1      -0.988  -0.675  -3.248  0.00  0.00    +0.011 C 
BRANCH  33  35
ATOM     34  C   UNL     1      -1.772   1.431  -2.154  0.00  0.00    +0.004 C 
ATOM     35  C   UNL     1      -1.322  -0.012  -1.910  0.00  0.00    -0.003 C 
ENDBRANCH  33  35
ENDBRANCH  32  33
ENDBRANCH  31  32
ENDBRANCH   1  31
TORSDOF 7
