REMARK  Name = ZINC39608910
REMARK  6 active torsions:
REMARK  status: ('A' for Active; 'I' for Inactive)
REMARK    1  A    between atoms: C_4  and  C_7
REMARK    2  A    between atoms: C_7  and  O_8
REMARK    3  A    between atoms: O_8  and  C_9
REMARK    4  A    between atoms: C_14  and  N_16
REMARK    5  A    between atoms: C_17  and  C_19
REMARK    6  A    between atoms: C_30  and  C_32
REMARK                            x       y       z     vdW  Elec       q    Type
REMARK                         _______ _______ _______ _____ _____    ______ ____
ROOT
ATOM      1  C   UNL     1       9.321   0.276   3.342  0.00  0.00    +0.100 C 
ATOM      2  C   UNL     1      10.533  -0.654   3.107  0.00  0.00    +0.121 C 
ATOM      3  N   UNL     1      11.690   0.093   3.654  0.00  0.00    -0.296 N 
ATOM      4  C   UNL     1      11.167   0.733   4.884  0.00  0.00    +0.115 C 
ATOM      5  C   UNL     1       9.742   1.185   4.509  0.00  0.00    -0.004 C 
ATOM      6  C   UNL     1       8.799   0.992   5.694  0.00  0.00    -0.010 C 
ATOM      7  C   UNL     1       9.202   1.948   6.821  0.00  0.00    -0.082 C 
ATOM      8  N   UNL     1       9.137   3.332   6.338  0.00  0.00    +0.379 N 
ATOM      9  C   UNL     1      10.113   3.533   5.260  0.00  0.00    -0.082 C 
ATOM     10  C   UNL     1       9.749   2.645   4.067  0.00  0.00    -0.010 C 
ATOM     11  C   UNL     1      12.936   0.172   3.146  0.00  0.00    +0.247 C 
ATOM     12  O   UNL     1      13.180  -0.307   2.056  0.00  0.00    -0.270 OA
ATOM     13  H   UNL     1       8.209   3.522   5.989  0.00  0.00    -0.086 HD
ATOM     14  H   UNL     1       9.343   3.963   7.098  0.00  0.00    -0.086 HD
ENDROOT
BRANCH  11  15
ATOM     15  C   UNL     1      14.005   0.842   3.915  0.00  0.00    +0.037 A 
ATOM     16  C   UNL     1      13.877   0.988   5.308  0.00  0.00    +0.013 A 
ATOM     17  C   UNL     1      14.845   1.599   6.036  0.00  0.00    +0.009 A 
ATOM     18  C   UNL     1      15.997   2.097   5.399  0.00  0.00    -0.018 A 
ATOM     19  C   UNL     1      17.012   2.734   6.131  0.00  0.00    +0.008 A 
ATOM     20  C   UNL     1      18.115   3.205   5.487  0.00  0.00    +0.001 A 
ATOM     21  C   UNL     1      18.255   3.067   4.107  0.00  0.00    +0.001 A 
ATOM     22  C   UNL     1      17.292   2.456   3.364  0.00  0.00    +0.008 A 
ATOM     23  C   UNL     1      16.138   1.956   3.995  0.00  0.00    -0.017 A 
ATOM     24  C   UNL     1      15.129   1.316   3.260  0.00  0.00    +0.021 A 
ENDBRANCH  11  15
BRANCH   1  26
ATOM     25  N   UNL     1       6.875  -0.085   3.392  0.00  0.00    -0.310 N 
ATOM     26  C   UNL     1       8.105  -0.530   3.716  0.00  0.00    +0.218 C 
ATOM     27  O   UNL     1       8.232  -1.581   4.309  0.00  0.00    -0.275 OA
ATOM     28  H   UNL     1       6.773   0.755   2.917  0.00  0.00    +0.149 HD
BRANCH  25  33
ATOM     29  C   UNL     1       4.464   0.051   3.868  0.00  0.00    +0.139 C 
ATOM     30  C   UNL     1       3.443  -0.446   2.823  0.00  0.00    +0.033 C 
ATOM     31  C   UNL     1       4.306  -1.190   1.773  0.00  0.00    +0.004 C 
ATOM     32  C   UNL     1       5.374  -1.894   2.646  0.00  0.00    +0.025 C 
ATOM     33  C   UNL     1       5.692  -0.869   3.755  0.00  0.00    +0.102 C 
BRANCH  29  34
ATOM     34  O   UNL     1       3.904  -0.038   5.179  0.00  0.00    -0.370 OA
BRANCH  34  35
ATOM     35  C   UNL     1       3.248   1.155   5.613  0.00  0.00    +0.195 C 
BRANCH  35  39
ATOM     36  C   UNL     1       1.689   0.574   9.548  0.00  0.00    +0.000 A 
ATOM     37  C   UNL     1       2.970   1.063   9.377  0.00  0.00    +0.000 A 
ATOM     38  C   UNL     1       3.475   1.251   8.104  0.00  0.00    +0.006 A 
ATOM     39  C   UNL     1       2.698   0.949   7.001  0.00  0.00    -0.022 A 
ATOM     40  C   UNL     1       1.417   0.459   7.172  0.00  0.00    +0.006 A 
ATOM     41  C   UNL     1       0.912   0.273   8.445  0.00  0.00    +0.000 A 
ENDBRANCH  35  39
ENDBRANCH  34  35
ENDBRANCH  29  34
ENDBRANCH  25  33
ENDBRANCH   1  26
TORSDOF 6
