REMARK  Name = ZINC23595829
REMARK  10 active torsions:
REMARK  status: ('A' for Active; 'I' for Inactive)
REMARK    1  A    between atoms: C_1  and  C_2
REMARK    2  A    between atoms: C_2  and  C_3
REMARK    3  A    between atoms: C_8  and  N_9
REMARK    4  A    between atoms: C_12  and  C_17
REMARK    5  A    between atoms: C_17  and  S_18
REMARK    6  A    between atoms: S_18  and  C_19
REMARK    7  A    between atoms: C_22  and  C_25
REMARK    8  A    between atoms: N_23  and  C_24
REMARK    9  A    between atoms: C_25  and  O_26
REMARK   10  A    between atoms: O_26  and  C_27
REMARK                            x       y       z     vdW  Elec       q    Type
REMARK                         _______ _______ _______ _____ _____    ______ ____
ROOT
ATOM      1  N   UNL     1       7.720   3.002   2.296  0.00  0.00    -0.283 N 
ATOM      2  C   UNL     1       7.025   3.077   1.105  0.00  0.00    +0.224 A 
ATOM      3  N   UNL     1       5.700   3.207   1.113  0.00  0.00    -0.198 NA
ATOM      4  C   UNL     1       5.034   3.274  -0.026  0.00  0.00    +0.146 A 
ATOM      5  N   UNL     1       5.680   3.223  -1.177  0.00  0.00    -0.199 NA
ATOM      6  C   UNL     1       7.005   3.099  -1.194  0.00  0.00    +0.217 A 
ATOM      7  N   UNL     1       7.678   3.026  -0.051  0.00  0.00    -0.181 NA
ATOM      8  N   UNL     1       7.679   3.045  -2.397  0.00  0.00    -0.327 N 
ATOM      9  H   UNL     1       7.192   3.141   3.251  0.00  0.00    +0.155 HD
ATOM     10  H   UNL     1       8.774   2.942  -2.410  0.00  0.00    +0.145 HD
ATOM     11  H   UNL     1       7.121   3.105  -3.343  0.00  0.00    +0.145 HD
ENDROOT
BRANCH   1  17
ATOM     12  C   UNL     1       9.884   3.157   3.355  0.00  0.00    -0.026 A 
ATOM     13  C   UNL     1      11.242   2.904   3.345  0.00  0.00    +0.005 A 
ATOM     14  C   UNL     1      11.816   2.243   2.274  0.00  0.00    +0.000 A 
ATOM     15  C   UNL     1      11.032   1.833   1.210  0.00  0.00    +0.002 A 
ATOM     16  C   UNL     1       9.673   2.079   1.217  0.00  0.00    +0.023 A 
ATOM     17  C   UNL     1       9.095   2.748   2.289  0.00  0.00    +0.037 A 
BRANCH  12  19
ATOM     18  C   UNL     1       8.706   2.855   5.516  0.00  0.00    +0.009 C 
ATOM     19  C   UNL     1       9.260   3.878   4.522  0.00  0.00    +0.033 C 
ENDBRANCH  12  19
ENDBRANCH   1  17
BRANCH   4  20
ATOM     20  C   UNL     1       3.533   3.415  -0.012  0.00  0.00    +0.153 C 
BRANCH  20  21
ATOM     21  S   UNL     1       2.773   1.772  -0.020  0.00  0.00    -0.078 S 
BRANCH  21  22
ATOM     22  C   UNL     1       1.070   2.223  -0.002  0.00  0.00    +0.192 A 
ATOM     23  N   UNL     1       0.586   3.443   0.015  0.00  0.00    -0.122 NA
ATOM     24  N   UNL     1      -0.699   3.403   0.025  0.00  0.00    -0.130 NA
ATOM     25  C   UNL     1      -1.108   2.166   0.012  0.00  0.00    +0.172 A 
ATOM     26  N   UNL     1       0.004   1.370  -0.001  0.00  0.00    -0.306 N 
ATOM     27  C   UNL     1       0.043  -0.095  -0.016  0.00  0.00    +0.153 C 
BRANCH  25  28
ATOM     28  C   UNL     1      -2.541   1.699   0.013  0.00  0.00    +0.305 C 
BRANCH  28  29
ATOM     29  O   UNL     1      -2.989   1.537   1.360  0.00  0.00    -0.483 OA
BRANCH  29  30
ATOM     30  C   UNL     1      -4.269   1.118   1.538  0.00  0.00    +0.139 A 
ATOM     31  C   UNL     1      -5.079   0.873   0.440  0.00  0.00    +0.047 A 
ATOM     32  C   UNL     1      -6.379   0.441   0.624  0.00  0.00    +0.004 A 
ATOM     33  C   UNL     1      -6.876   0.264   1.902  0.00  0.00    +0.002 A 
ATOM     34  C   UNL     1      -6.073   0.513   2.999  0.00  0.00    +0.023 A 
ATOM     35  C   UNL     1      -4.770   0.940   2.821  0.00  0.00    +0.083 A 
ATOM     36 CL   UNL     1      -3.762   1.253   4.199  0.00  0.00    -0.080 Cl
ENDBRANCH  29  30
ENDBRANCH  28  29
ENDBRANCH  25  28
ENDBRANCH  21  22
ENDBRANCH  20  21
ENDBRANCH   4  20
TORSDOF 8
