REMARK  Name = ZINC27794281
REMARK  9 active torsions:
REMARK  status: ('A' for Active; 'I' for Inactive)
REMARK    1  A    between atoms: C_1  and  C_2
REMARK    2  A    between atoms: C_6  and  C_35
REMARK    3  A    between atoms: C_7  and  C_11
REMARK    4  A    between atoms: N_13  and  C_14
REMARK    5  A    between atoms: C_14  and  C_15
REMARK    6  A    between atoms: C_15  and  C_17
REMARK    7  A    between atoms: C_15  and  C_25
REMARK    8  A    between atoms: C_20  and  O_23
REMARK    9  A    between atoms: O_23  and  C_24
REMARK                            x       y       z     vdW  Elec       q    Type
REMARK                         _______ _______ _______ _____ _____    ______ ____
ROOT
ATOM      1  C   UNL     1      -7.314  -0.425   0.065  0.00  0.00    +0.068 C 
ENDROOT
BRANCH   1   2
ATOM      2  C   UNL     1      -6.867  -1.082   1.346  0.00  0.00    -0.013 A 
ATOM      3  C   UNL     1      -7.218  -0.725   2.591  0.00  0.00    +0.088 A 
ATOM      4  N   UNL     1      -6.619  -1.555   3.500  0.00  0.00    -0.360 N 
ATOM      5  H   UNL     1      -6.801  -1.414   4.576  0.00  0.00    +0.165 HD
ATOM      6  C   UNL     1      -5.841  -2.483   2.846  0.00  0.00    +0.047 A 
ATOM      7  C   UNL     1      -5.962  -2.228   1.467  0.00  0.00    +0.003 A 
ATOM      8  C   UNL     1      -5.273  -3.022   0.549  0.00  0.00    +0.010 A 
ATOM      9  C   UNL     1      -4.485  -4.045   0.994  0.00  0.00    +0.001 A 
ATOM     10  C   UNL     1      -4.362  -4.301   2.353  0.00  0.00    +0.002 A 
ATOM     11  C   UNL     1      -5.032  -3.529   3.277  0.00  0.00    +0.026 A 
ENDBRANCH   1   2
BRANCH   1  12
ATOM     12  C   UNL     1      -8.814  -0.510  -0.046  0.00  0.00    -0.038 A 
ATOM     13  C   UNL     1      -9.612   0.065   0.927  0.00  0.00    +0.008 A 
ATOM     14  C   UNL     1     -10.988  -0.007   0.824  0.00  0.00    +0.046 A 
ATOM     15  C   UNL     1     -11.569  -0.666  -0.249  0.00  0.00    +0.120 A 
ATOM     16  C   UNL     1     -10.766  -1.246  -1.221  0.00  0.00    +0.046 A 
ATOM     17  C   UNL     1      -9.391  -1.166  -1.117  0.00  0.00    +0.008 A 
BRANCH  15  18
ATOM     18  O   UNL     1     -12.922  -0.743  -0.349  0.00  0.00    -0.495 OA
ATOM     19  C   UNL     1     -13.685  -0.123   0.688  0.00  0.00    +0.277 C 
ENDBRANCH  15  18
ENDBRANCH   1  12
BRANCH   1  20
ATOM     20  C   UNL     1      -6.885   1.044   0.070  0.00  0.00    +0.117 C 
BRANCH  20  23
ATOM     21  C   UNL     1      -4.814   2.329   0.058  0.00  0.00    +0.280 C 
ATOM     22  O   UNL     1      -5.480   3.346   0.070  0.00  0.00    -0.267 OA
ATOM     23  N   UNL     1      -5.422   1.126   0.057  0.00  0.00    -0.308 N 
ATOM     24  H   UNL     1      -4.820   0.205   0.047  0.00  0.00    +0.149 HD
BRANCH  21  31
ATOM     25  C   UNL     1       2.482   1.040  -0.015  0.00  0.00    +0.044 C 
ATOM     26  C   UNL     1       1.170   1.782   0.001  0.00  0.00    -0.047 A 
ATOM     27  C   UNL     1       1.168   3.171   0.008  0.00  0.00    +0.004 A 
ATOM     28  C   UNL     1      -0.011   3.861   0.023  0.00  0.00    +0.012 A 
ATOM     29  C   UNL     1      -1.222   3.163   0.030  0.00  0.00    +0.024 A 
ATOM     30  C   UNL     1      -2.628   3.563   0.046  0.00  0.00    +0.008 A 
ATOM     31  C   UNL     1      -3.347   2.410   0.046  0.00  0.00    +0.193 A 
ATOM     32  O   UNL     1      -2.510   1.352   0.032  0.00  0.00    -0.450 OA
ATOM     33  C   UNL     1      -1.225   1.756   0.017  0.00  0.00    +0.136 A 
ATOM     34  C   UNL     1      -0.013   1.076   0.008  0.00  0.00    +0.050 A 
ATOM     35  C   UNL     1      -3.171   4.969   0.059  0.00  0.00    +0.048 C 
ENDBRANCH  21  31
ENDBRANCH  20  23
ENDBRANCH   1  20
TORSDOF 6
