REMARK  Name = ZINC39595620
REMARK  9 active torsions:
REMARK  status: ('A' for Active; 'I' for Inactive)
REMARK    1  A    between atoms: C_1  and  C_2
REMARK    2  A    between atoms: C_2  and  C_4
REMARK    3  A    between atoms: C_2  and  O_29
REMARK    4  A    between atoms: C_4  and  N_5
REMARK    5  A    between atoms: C_6  and  C_8
REMARK    6  A    between atoms: C_19  and  C_21
REMARK    7  A    between atoms: C_26  and  O_27
REMARK    8  A    between atoms: O_27  and  C_28
REMARK    9  A    between atoms: O_29  and  C_30
REMARK                            x       y       z     vdW  Elec       q    Type
REMARK                         _______ _______ _______ _____ _____    ______ ____
ROOT
ATOM      1  C   UNL     1       1.524  -4.578  -1.881  0.00  0.00    +0.100 C 
ATOM      2  C   UNL     1       2.443  -4.862  -0.672  0.00  0.00    +0.121 C 
ATOM      3  N   UNL     1       3.299  -5.990  -1.110  0.00  0.00    -0.296 N 
ATOM      4  C   UNL     1       3.607  -5.690  -2.529  0.00  0.00    +0.115 C 
ATOM      5  C   UNL     1       2.291  -5.122  -3.098  0.00  0.00    -0.004 C 
ATOM      6  C   UNL     1       2.587  -3.995  -4.083  0.00  0.00    -0.010 C 
ATOM      7  C   UNL     1       3.299  -4.570  -5.311  0.00  0.00    -0.082 C 
ATOM      8  N   UNL     1       2.448  -5.587  -5.941  0.00  0.00    +0.379 N 
ATOM      9  C   UNL     1       2.245  -6.711  -5.018  0.00  0.00    -0.082 C 
ATOM     10  C   UNL     1       1.489  -6.227  -3.778  0.00  0.00    -0.010 C 
ATOM     11  C   UNL     1       3.706  -7.050  -0.383  0.00  0.00    +0.250 C 
ATOM     12  O   UNL     1       3.295  -7.202   0.751  0.00  0.00    -0.270 OA
ATOM     13  H   UNL     1       1.554  -5.180  -6.173  0.00  0.00    -0.086 HD
ATOM     14  H   UNL     1       2.892  -5.921  -6.783  0.00  0.00    -0.086 HD
ENDROOT
BRANCH  11  15
ATOM     15  C   UNL     1       4.648  -8.025  -0.964  0.00  0.00    +0.078 A 
ATOM     16  C   UNL     1       5.647  -7.599  -1.843  0.00  0.00    +0.017 A 
ATOM     17  C   UNL     1       6.525  -8.515  -2.381  0.00  0.00    +0.001 A 
ATOM     18  C   UNL     1       6.421  -9.857  -2.054  0.00  0.00    +0.004 A 
ATOM     19  C   UNL     1       5.439 -10.292  -1.187  0.00  0.00    +0.046 A 
ATOM     20  C   UNL     1       4.551  -9.383  -0.632  0.00  0.00    +0.132 A 
BRANCH  20  21
ATOM     21  O   UNL     1       3.588  -9.807   0.225  0.00  0.00    -0.494 OA
ATOM     22  C   UNL     1       3.550 -11.206   0.516  0.00  0.00    +0.277 C 
ENDBRANCH  20  21
ENDBRANCH  11  15
BRANCH   1  24
ATOM     23  N   UNL     1       0.145  -2.644  -2.572  0.00  0.00    -0.312 N 
ATOM     24  C   UNL     1       1.292  -3.096  -2.027  0.00  0.00    +0.218 C 
ATOM     25  O   UNL     1       2.137  -2.310  -1.653  0.00  0.00    -0.275 OA
ATOM     26  H   UNL     1      -0.530  -3.272  -2.871  0.00  0.00    +0.149 HD
BRANCH  23  27
ATOM     27  C   UNL     1      -0.080  -1.203  -2.713  0.00  0.00    +0.148 C 
BRANCH  27  29
ATOM     28  C   UNL     1      -1.683   0.543  -3.504  0.00  0.00    +0.053 C 
ATOM     29  C   UNL     1      -1.447  -0.962  -3.356  0.00  0.00    +0.187 C 
BRANCH  29  30
ATOM     30  O   UNL     1      -1.484  -1.578  -4.645  0.00  0.00    -0.488 OA
BRANCH  30  31
ATOM     31  C   UNL     1      -2.706  -1.922  -5.130  0.00  0.00    +0.121 A 
ATOM     32  C   UNL     1      -2.807  -2.632  -6.318  0.00  0.00    +0.048 A 
ATOM     33  C   UNL     1      -4.049  -2.981  -6.810  0.00  0.00    +0.042 A 
ATOM     34  C   UNL     1      -5.194  -2.622  -6.119  0.00  0.00    +0.124 A 
ATOM     35  C   UNL     1      -5.095  -1.912  -4.934  0.00  0.00    +0.042 A 
ATOM     36  C   UNL     1      -3.853  -1.568  -4.436  0.00  0.00    +0.048 A 
ATOM     37  F   UNL     1      -6.409  -2.963  -6.602  0.00  0.00    -0.205 F 
ENDBRANCH  30  31
ENDBRANCH  29  30
ENDBRANCH  27  29
ENDBRANCH  23  27
ENDBRANCH   1  24
TORSDOF 7
