REMARK  Name = ZINC08602821
REMARK  6 active torsions:
REMARK  status: ('A' for Active; 'I' for Inactive)
REMARK    1  A    between atoms: C_1  and  C_2
REMARK    2  A    between atoms: C_2  and  C_4
REMARK    3  A    between atoms: C_2  and  N_10
REMARK    4  A    between atoms: C_11  and  C_13
REMARK    5  A    between atoms: C_19  and  C_21
REMARK    6  A    between atoms: C_24  and  N_26
REMARK                            x       y       z     vdW  Elec       q    Type
REMARK                         _______ _______ _______ _____ _____    ______ ____
ROOT
ATOM      1  C   UNL     1      -1.196  -2.032   3.666  0.00  0.00    +0.078 C 
ATOM      2  C   UNL     1      -0.585  -3.409   3.400  0.00  0.00    +0.032 C 
ATOM      3  C   UNL     1       0.776  -3.503   4.098  0.00  0.00    +0.109 C 
ATOM      4  N   UNL     1       0.600  -3.185   5.521  0.00  0.00    -0.297 N 
ATOM      5  C   UNL     1      -0.060  -1.924   5.888  0.00  0.00    +0.109 C 
ATOM      6  C   UNL     1      -1.411  -1.848   5.170  0.00  0.00    +0.032 C 
ATOM      7  C   UNL     1       1.036  -4.034   6.473  0.00  0.00    +0.253 C 
ATOM      8  O   UNL     1       0.942  -3.730   7.649  0.00  0.00    -0.269 OA
ENDROOT
BRANCH   7   9
ATOM      9  C   UNL     1       1.621  -5.318   6.094  0.00  0.00    +0.076 A 
ATOM     10  C   UNL     1       1.460  -6.561   6.692  0.00  0.00    +0.023 A 
ATOM     11  C   UNL     1       2.139  -7.599   6.110  0.00  0.00    +0.035 A 
ATOM     12  C   UNL     1       2.914  -7.342   5.003  0.00  0.00    +0.085 A 
ATOM     13  S   UNL     1       2.719  -5.694   4.742  0.00  0.00    -0.066 S 
BRANCH  12  14
ATOM     14  N   UNL     1       3.679  -8.241   4.266  0.00  0.00    -0.310 N 
ATOM     15  C   UNL     1       4.577  -9.131   4.796  0.00  0.00    +0.093 A 
ATOM     16  C   UNL     1       5.142  -9.849   3.813  0.00  0.00    +0.028 A 
ATOM     17  C   UNL     1       4.562  -9.383   2.551  0.00  0.00    +0.000 A 
ATOM     18  C   UNL     1       3.643  -8.374   2.894  0.00  0.00    +0.054 A 
ATOM     19  C   UNL     1       2.923  -7.738   1.889  0.00  0.00    +0.027 A 
ATOM     20  C   UNL     1       3.115  -8.103   0.574  0.00  0.00    +0.002 A 
ATOM     21  C   UNL     1       4.019  -9.101   0.241  0.00  0.00    +0.001 A 
ATOM     22  C   UNL     1       4.742  -9.735   1.213  0.00  0.00    +0.010 A 
ENDBRANCH  12  14
ENDBRANCH   7   9
BRANCH   1  24
ATOM     23  N   UNL     1      -2.576  -2.053   1.613  0.00  0.00    -0.309 N 
ATOM     24  C   UNL     1      -2.520  -1.924   2.953  0.00  0.00    +0.217 C 
ATOM     25  O   UNL     1      -3.535  -1.720   3.586  0.00  0.00    -0.275 OA
ATOM     26  H   UNL     1      -1.764  -2.216   1.107  0.00  0.00    +0.149 HD
BRANCH  23  28
ATOM     27  C   UNL     1      -4.175  -0.476   0.644  0.00  0.00    +0.033 C 
ATOM     28  C   UNL     1      -3.862  -1.948   0.920  0.00  0.00    +0.100 C 
BRANCH  28  29
ATOM     29  C   UNL     1      -3.793  -2.700  -0.384  0.00  0.00    -0.027 A 
ATOM     30  C   UNL     1      -2.647  -2.643  -1.155  0.00  0.00    +0.005 A 
ATOM     31  C   UNL     1      -2.584  -3.333  -2.352  0.00  0.00    +0.000 A 
ATOM     32  C   UNL     1      -3.667  -4.080  -2.777  0.00  0.00    +0.000 A 
ATOM     33  C   UNL     1      -4.812  -4.138  -2.005  0.00  0.00    +0.000 A 
ATOM     34  C   UNL     1      -4.874  -3.451  -0.807  0.00  0.00    +0.005 A 
ENDBRANCH  28  29
ENDBRANCH  23  28
ENDBRANCH   1  24
TORSDOF 5
