REMARK  Name = ZINC39601086
REMARK  7 active torsions:
REMARK  status: ('A' for Active; 'I' for Inactive)
REMARK    1  A    between atoms: C_1  and  C_2
REMARK    2  A    between atoms: C_2  and  C_3
REMARK    3  A    between atoms: C_2  and  C_4
REMARK    4  A    between atoms: C_4  and  C_5
REMARK    5  A    between atoms: C_5  and  N_6
REMARK    6  A    between atoms: C_7  and  C_9
REMARK    7  A    between atoms: C_20  and  C_22
REMARK                            x       y       z     vdW  Elec       q    Type
REMARK                         _______ _______ _______ _____ _____    ______ ____
ROOT
ATOM      1  C   UNL     1      -6.292  -1.266  -2.081  0.00  0.00    +0.100 C 
ATOM      2  C   UNL     1      -6.796  -0.470  -0.857  0.00  0.00    +0.121 C 
ATOM      3  N   UNL     1      -7.441   0.734  -1.432  0.00  0.00    -0.296 N 
ATOM      4  C   UNL     1      -8.146   0.234  -2.637  0.00  0.00    +0.115 C 
ATOM      5  C   UNL     1      -7.183  -0.804  -3.247  0.00  0.00    -0.004 C 
ATOM      6  C   UNL     1      -7.967  -1.984  -3.812  0.00  0.00    -0.010 C 
ATOM      7  C   UNL     1      -8.801  -1.511  -5.007  0.00  0.00    -0.082 C 
ATOM      8  N   UNL     1      -7.915  -0.950  -6.033  0.00  0.00    +0.379 N 
ATOM      9  C   UNL     1      -7.234   0.241  -5.510  0.00  0.00    -0.082 C 
ATOM     10  C   UNL     1      -6.334  -0.158  -4.337  0.00  0.00    -0.010 C 
ATOM     11  C   UNL     1      -7.397   1.998  -0.966  0.00  0.00    +0.247 C 
ATOM     12  O   UNL     1      -6.671   2.276  -0.032  0.00  0.00    -0.270 OA
ATOM     13  H   UNL     1      -7.227  -1.640  -6.296  0.00  0.00    -0.086 HD
ATOM     14  H   UNL     1      -8.459  -0.696  -6.844  0.00  0.00    -0.086 HD
ENDROOT
BRANCH  11  15
ATOM     15  C   UNL     1      -8.232   3.046  -1.590  0.00  0.00    +0.042 A 
ATOM     16  C   UNL     1      -9.357   2.693  -2.337  0.00  0.00    +0.051 A 
ATOM     17  C   UNL     1     -10.134   3.676  -2.919  0.00  0.00    +0.127 A 
ATOM     18  C   UNL     1      -9.798   5.011  -2.761  0.00  0.00    +0.076 A 
ATOM     19  C   UNL     1      -8.683   5.368  -2.021  0.00  0.00    +0.127 A 
ATOM     20  C   UNL     1      -7.902   4.392  -1.430  0.00  0.00    +0.051 A 
ATOM     21  F   UNL     1      -8.362   6.671  -1.871  0.00  0.00    -0.205 F 
ATOM     22  F   UNL     1     -11.222   3.336  -3.643  0.00  0.00    -0.205 F 
ENDBRANCH  11  15
BRANCH   1  24
ATOM     23  N   UNL     1      -4.077  -1.814  -3.036  0.00  0.00    -0.315 N 
ATOM     24  C   UNL     1      -4.849  -0.938  -2.362  0.00  0.00    +0.218 C 
ATOM     25  O   UNL     1      -4.381   0.115  -1.982  0.00  0.00    -0.275 OA
ATOM     26  H   UNL     1      -4.451  -2.656  -3.340  0.00  0.00    +0.149 HD
BRANCH  23  27
ATOM     27  C   UNL     1      -2.674  -1.495  -3.309  0.00  0.00    +0.104 C 
BRANCH  27  28
ATOM     28  C   UNL     1      -2.030  -2.648  -4.081  0.00  0.00    +0.022 C 
BRANCH  28  30
ATOM     29  C   UNL     1       0.206  -2.231  -3.047  0.00  0.00    +0.007 C 
ATOM     30  C   UNL     1      -0.564  -2.315  -4.367  0.00  0.00    -0.016 C 
ATOM     31  C   UNL     1       0.046  -3.409  -5.245  0.00  0.00    +0.007 C 
ENDBRANCH  28  30
ENDBRANCH  27  28
ENDBRANCH  23  27
ENDBRANCH   1  24
TORSDOF 5
