REMARK  Name = ZINC39133679
REMARK  2 active torsions:
REMARK  status: ('A' for Active; 'I' for Inactive)
REMARK    1  A    between atoms: C_4  and  C_7
REMARK    2  A    between atoms: C_7  and  O_22
REMARK                            x       y       z     vdW  Elec       q    Type
REMARK                         _______ _______ _______ _____ _____    ______ ____
ROOT
ATOM      1  C   UNL     1       3.711  -0.707  -0.038  0.00  0.00    +0.158 C 
ATOM      2  C   UNL     1       3.547  -2.044  -0.718  0.00  0.00    +0.003 A 
ATOM      3  C   UNL     1       3.160  -2.367  -2.002  0.00  0.00    +0.008 A 
ATOM      4  C   UNL     1       3.086  -3.693  -2.396  0.00  0.00    +0.000 A 
ATOM      5  C   UNL     1       3.399  -4.705  -1.502  0.00  0.00    +0.001 A 
ATOM      6  C   UNL     1       3.787  -4.399  -0.217  0.00  0.00    +0.010 A 
ATOM      7  C   UNL     1       3.866  -3.057   0.191  0.00  0.00    +0.006 A 
ATOM      8  C   UNL     1       4.248  -2.469   1.488  0.00  0.00    +0.087 C 
ATOM      9  N   UNL     1       4.622  -3.026   2.624  0.00  0.00    -0.170 NA
ATOM     10  C   UNL     1       4.924  -2.255   3.683  0.00  0.00    +0.325 C 
ATOM     11  O   UNL     1       5.269  -2.761   4.732  0.00  0.00    -0.263 OA
ATOM     12  C   UNL     1       4.832  -0.768   3.557  0.00  0.00    +0.324 C 
ATOM     13  O   UNL     1       5.100  -0.054   4.501  0.00  0.00    -0.263 OA
ATOM     14  N   UNL     1       4.446  -0.228   2.381  0.00  0.00    -0.172 NA
ATOM     15  C   UNL     1       4.160  -0.998   1.374  0.00  0.00    +0.099 C 
ENDROOT
BRANCH   1  19
ATOM     16  C   UNL     1      -0.017   1.378   0.010  0.00  0.00    +0.000 A 
ATOM     17  C   UNL     1       1.171   2.086   0.002  0.00  0.00    +0.000 A 
ATOM     18  C   UNL     1       2.377   1.411  -0.013  0.00  0.00    +0.007 A 
ATOM     19  C   UNL     1       2.396   0.029  -0.020  0.00  0.00    -0.006 A 
ATOM     20  C   UNL     1       1.208  -0.679  -0.012  0.00  0.00    +0.007 A 
ATOM     21  C   UNL     1       0.002  -0.004   0.002  0.00  0.00    +0.000 A 
ENDBRANCH   1  19
BRANCH   1  22
ATOM     22  O   UNL     1       4.699   0.072  -0.716  0.00  0.00    -0.374 OA
ATOM     23  H   UNL     1       4.858   0.938  -0.317  0.00  0.00    +0.212 HD
ENDBRANCH   1  22
TORSDOF 2
