REMARK  Name = ZINC28565744
REMARK  7 active torsions:
REMARK  status: ('A' for Active; 'I' for Inactive)
REMARK    1  A    between atoms: C_1  and  C_2
REMARK    2  A    between atoms: C_8  and  N_10
REMARK    3  A    between atoms: N_10  and  C_11
REMARK    4  A    between atoms: C_12  and  C_30
REMARK    5  A    between atoms: C_13  and  C_26
REMARK    6  A    between atoms: C_19  and  S_22
REMARK    7  A    between atoms: S_22  and  C_25
REMARK                            x       y       z     vdW  Elec       q    Type
REMARK                         _______ _______ _______ _____ _____    ______ ____
ROOT
ATOM      1  C   UNL     1      -0.213  -0.279   2.669  0.00  0.00    +0.142 A 
ATOM      2  C   UNL     1       0.225  -0.996   3.779  0.00  0.00    +0.123 A 
ATOM      3  C   UNL     1      -0.513  -2.202   3.811  0.00  0.00    +0.185 A 
ATOM      4  N   UNL     1      -1.327  -2.213   2.792  0.00  0.00    -0.158 NA
ATOM      5  N   UNL     1      -1.166  -1.031   2.061  0.00  0.00    -0.199 N 
ATOM      6  C   UNL     1      -1.867  -0.685   0.903  0.00  0.00    +0.156 A 
ATOM      7  C   UNL     1      -2.344  -1.683   0.062  0.00  0.00    +0.050 A 
ATOM      8  C   UNL     1      -3.037  -1.326  -1.082  0.00  0.00    +0.032 A 
ATOM      9  C   UNL     1      -3.229   0.024  -1.345  0.00  0.00    +0.106 A 
ATOM     10  C   UNL     1      -2.726   0.962  -0.466  0.00  0.00    +0.140 A 
ATOM     11  N   UNL     1      -2.074   0.591   0.620  0.00  0.00    -0.234 NA
ENDROOT
BRANCH   9  12
ATOM     12  S   UNL     1      -4.104   0.533  -2.787  0.00  0.00    -0.004 S 
ATOM     13  O   UNL     1      -3.605   1.833  -3.073  0.00  0.00    -0.170 OA
ATOM     14  O   UNL     1      -3.929  -0.530  -3.713  0.00  0.00    -0.170 OA
ATOM     15  C   UNL     1      -5.840   0.630  -2.268  0.00  0.00    +0.200 C 
ENDBRANCH   9  12
BRANCH   3  16
ATOM     16  C   UNL     1      -0.378  -3.292   4.843  0.00  0.00    +0.437 C 
ATOM     17  F   UNL     1      -1.181  -4.379   4.481  0.00  0.00    -0.164 F 
ATOM     18  F   UNL     1       0.958  -3.703   4.915  0.00  0.00    -0.164 F 
ATOM     19  F   UNL     1      -0.785  -2.806   6.090  0.00  0.00    -0.164 F 
ENDBRANCH   3  16
BRANCH   1  20
ATOM     20  N   UNL     1       0.240   0.961   2.261  0.00  0.00    -0.325 N 
ATOM     21  H   UNL     1       0.282   1.382   1.246  0.00  0.00    +0.148 HD
BRANCH  20  28
ATOM     22  C   UNL     1      -0.015   3.848   2.253  0.00  0.00    +0.009 C 
ATOM     23  C   UNL     1       1.161   3.132   2.920  0.00  0.00    +0.006 C 
ATOM     24  C   UNL     1       1.651   3.957   4.112  0.00  0.00    +0.005 C 
ATOM     25  C   UNL     1       0.513   4.119   5.122  0.00  0.00    +0.000 C 
ATOM     26  C   UNL     1       0.062   2.739   5.607  0.00  0.00    +0.002 C 
ATOM     27  C   UNL     1      -0.428   1.914   4.415  0.00  0.00    +0.022 C 
ATOM     28  C   UNL     1       0.710   1.753   3.405  0.00  0.00    +0.075 C 
ENDBRANCH  20  28
ENDBRANCH   1  20
BRANCH   2  29
ATOM     29  C   UNL     1       1.230  -0.588   4.714  0.00  0.00    +0.105 C 
ATOM     30  N   UNL     1       2.027  -0.265   5.455  0.00  0.00    -0.191 NA
ENDBRANCH   2  29
TORSDOF 5
