REMARK  Name = ZINC43585144
REMARK  7 active torsions:
REMARK  status: ('A' for Active; 'I' for Inactive)
REMARK    1  A    between atoms: C_1  and  C_2
REMARK    2  A    between atoms: C_6  and  N_9
REMARK    3  A    between atoms: C_7  and  C_8
REMARK    4  A    between atoms: C_10  and  C_12
REMARK    5  A    between atoms: C_12  and  N_13
REMARK    6  A    between atoms: C_17  and  C_25
REMARK    7  A    between atoms: C_22  and  C_24
REMARK                            x       y       z     vdW  Elec       q    Type
REMARK                         _______ _______ _______ _____ _____    ______ ____
ROOT
ATOM      1  N   UNL     1      -0.207  -6.335   3.410  0.00  0.00    -0.215 N 
ATOM      2  C   UNL     1      -1.361  -7.008   3.220  0.00  0.00    +0.247 C 
ATOM      3  O   UNL     1      -2.486  -6.558   3.243  0.00  0.00    -0.273 OA
ATOM      4  C   UNL     1      -0.955  -8.443   2.971  0.00  0.00    +0.118 C 
ATOM      5  C   UNL     1      -1.402  -8.890   1.584  0.00  0.00    +0.019 C 
ATOM      6  C   UNL     1      -0.955 -10.333   1.341  0.00  0.00    +0.006 C 
ATOM      7  C   UNL     1      -1.566 -11.242   2.409  0.00  0.00    +0.001 C 
ATOM      8  C   UNL     1      -1.089 -10.796   3.793  0.00  0.00    +0.006 C 
ATOM      9  C   UNL     1      -1.537  -9.354   4.046  0.00  0.00    +0.019 C 
ATOM     10  C   UNL     1      -3.065  -9.280   4.003  0.00  0.00    +0.010 C 
ATOM     11  C   UNL     1      -0.774  -7.978   0.528  0.00  0.00    +0.010 C 
ATOM     12  N   UNL     1       0.511  -8.418   3.057  0.00  0.00    -0.284 N 
ATOM     13  C   UNL     1       0.856  -7.142   3.311  0.00  0.00    +0.310 C 
ATOM     14  O   UNL     1       2.005  -6.765   3.440  0.00  0.00    -0.252 OA
ATOM     15  H   UNL     1       1.112  -9.172   2.947  0.00  0.00    +0.151 HD
ENDROOT
BRANCH   1  16
ATOM     16  C   UNL     1      -0.129  -4.898   3.686  0.00  0.00    +0.214 C 
BRANCH  16  18
ATOM     17  N   UNL     1       0.052  -2.797   2.393  0.00  0.00    -0.284 N 
ATOM     18  C   UNL     1      -0.031  -4.143   2.385  0.00  0.00    +0.235 C 
ATOM     19  O   UNL     1      -0.028  -4.745   1.333  0.00  0.00    -0.274 OA
ATOM     20  H   UNL     1       0.130  -2.321   3.234  0.00  0.00    +0.155 HD
BRANCH  17  26
ATOM     21  C   UNL     1       1.206   1.236  -0.172  0.00  0.00    +0.044 C 
ATOM     22  C   UNL     1       0.577  -0.131  -0.084  0.00  0.00    -0.046 A 
ATOM     23  C   UNL     1      -0.027  -0.686  -1.198  0.00  0.00    +0.004 A 
ATOM     24  C   UNL     1      -0.605  -1.940  -1.122  0.00  0.00    +0.002 A 
ATOM     25  C   UNL     1      -0.580  -2.642   0.067  0.00  0.00    +0.023 A 
ATOM     26  C   UNL     1       0.026  -2.088   1.187  0.00  0.00    +0.037 A 
ATOM     27  C   UNL     1       0.610  -0.831   1.106  0.00  0.00    -0.026 A 
ATOM     28  C   UNL     1       1.274  -0.228   2.317  0.00  0.00    +0.046 C 
ENDBRANCH  17  26
ENDBRANCH  16  18
ENDBRANCH   1  16
TORSDOF 3
