REMARK  Name = ZINC16010421
REMARK  4 active torsions:
REMARK  status: ('A' for Active; 'I' for Inactive)
REMARK    1  A    between atoms: C_1  and  C_2
REMARK    2  A    between atoms: C_2  and  C_3
REMARK    3  A    between atoms: C_2  and  C_4
REMARK    4  A    between atoms: N_12  and  C_15
REMARK                            x       y       z     vdW  Elec       q    Type
REMARK                         _______ _______ _______ _____ _____    ______ ____
ROOT
ATOM      1  C   UNL     1       0.734  -0.536   1.236  0.00  0.00    +0.070 C 
ATOM      2  C   UNL     1       0.895  -2.068   1.145  0.00  0.00    +0.107 C 
ATOM      3  C   UNL     1       2.302  -2.358   1.738  0.00  0.00    +0.123 C 
ATOM      4  C   UNL     1       3.073  -2.901   0.556  0.00  0.00    +0.233 C 
ATOM      5  O   UNL     1       4.230  -3.264   0.581  0.00  0.00    -0.274 OA
ATOM      6  N   UNL     1       2.281  -2.919  -0.522  0.00  0.00    -0.208 N 
ATOM      7  C   UNL     1       1.022  -2.472  -0.306  0.00  0.00    +0.232 C 
ATOM      8  O   UNL     1       0.138  -2.402  -1.133  0.00  0.00    -0.274 OA
ATOM      9  C   UNL     1       2.844  -0.979   2.135  0.00  0.00    +0.136 C 
ATOM     10  N   UNL     1       2.123  -0.005   1.282  0.00  0.00    -0.295 NA
ATOM     11  C   UNL     1       2.646  -0.711   3.600  0.00  0.00    +0.003 A 
ATOM     12  C   UNL     1       1.535  -0.650   4.411  0.00  0.00    +0.008 A 
ATOM     13  C   UNL     1       1.677  -0.376   5.760  0.00  0.00    +0.000 A 
ATOM     14  C   UNL     1       2.936  -0.162   6.290  0.00  0.00    +0.002 A 
ATOM     15  C   UNL     1       4.052  -0.222   5.481  0.00  0.00    +0.023 A 
ATOM     16  C   UNL     1       3.918  -0.497   4.122  0.00  0.00    +0.039 A 
ATOM     17  N   UNL     1       4.879  -0.607   3.115  0.00  0.00    -0.283 N 
ATOM     18  C   UNL     1       4.330  -0.888   1.917  0.00  0.00    +0.243 C 
ATOM     19  O   UNL     1       4.918  -1.038   0.868  0.00  0.00    -0.273 OA
ATOM     20  H   UNL     1       2.522   0.044   0.357  0.00  0.00    +0.124 HD
ATOM     21  H   UNL     1       5.832  -0.494   3.260  0.00  0.00    +0.155 HD
ENDROOT
BRANCH   6  22
ATOM     22  C   UNL     1       2.716  -3.371  -1.776  0.00  0.00    +0.062 A 
ATOM     23  C   UNL     1       2.574  -4.707  -2.122  0.00  0.00    +0.027 A 
ATOM     24  C   UNL     1       3.003  -5.150  -3.358  0.00  0.00    +0.022 A 
ATOM     25  C   UNL     1       3.575  -4.262  -4.252  0.00  0.00    +0.042 A 
ATOM     26  C   UNL     1       3.719  -2.929  -3.911  0.00  0.00    +0.042 A 
ATOM     27  C   UNL     1       3.286  -2.480  -2.677  0.00  0.00    +0.064 A 
ATOM     28 CL   UNL     1       3.460  -0.806  -2.252  0.00  0.00    -0.082 Cl
ATOM     29 CL   UNL     1       4.114  -4.822  -5.804  0.00  0.00    -0.083 Cl
ENDBRANCH   6  22
BRANCH   1  31
ATOM     30  C   UNL     1      -1.459  -0.457   0.041  0.00  0.00    +0.009 C 
ATOM     31  C   UNL     1       0.002  -0.004   0.002  0.00  0.00    +0.001 C 
ATOM     32  C   UNL     1       0.062   1.525  -0.006  0.00  0.00    +0.009 C 
ENDBRANCH   1  31
TORSDOF 2
