REMARK  Name = ZINC19568200
REMARK  7 active torsions:
REMARK  status: ('A' for Active; 'I' for Inactive)
REMARK    1  A    between atoms: C_1  and  C_2
REMARK    2  A    between atoms: C_4  and  C_39
REMARK    3  A    between atoms: C_9  and  C_14
REMARK    4  A    between atoms: C_14  and  C_16
REMARK    5  A    between atoms: C_14  and  N_29
REMARK    6  A    between atoms: N_20  and  C_21
REMARK    7  A    between atoms: C_21  and  C_22
REMARK                            x       y       z     vdW  Elec       q    Type
REMARK                         _______ _______ _______ _____ _____    ______ ____
ROOT
ATOM      1  C   UNL     1       1.034   3.610  -0.021  0.00  0.00    +0.163 C 
ENDROOT
BRANCH   1  10
ATOM      2  C   UNL     1       7.312  -0.408   0.215  0.00  0.00    +0.044 C 
ATOM      3  C   UNL     1       5.837  -0.290  -0.070  0.00  0.00    -0.050 A 
ATOM      4  C   UNL     1       5.135  -1.396  -0.530  0.00  0.00    +0.008 A 
ATOM      5  C   UNL     1       3.786  -1.311  -0.799  0.00  0.00    -0.026 A 
ATOM      6  C   UNL     1       3.119  -0.106  -0.607  0.00  0.00    +0.052 A 
ATOM      7  C   UNL     1       3.834   1.013  -0.141  0.00  0.00    -0.001 A 
ATOM      8  C   UNL     1       5.203   0.904   0.125  0.00  0.00    +0.013 A 
ATOM      9  C   UNL     1       3.123   2.277   0.059  0.00  0.00    +0.021 A 
ATOM     10  C   UNL     1       1.796   2.324  -0.215  0.00  0.00    +0.042 A 
ATOM     11  C   UNL     1       1.125   1.173  -0.681  0.00  0.00    +0.254 A 
ATOM     12  O   UNL     1      -0.067   1.238  -0.925  0.00  0.00    -0.268 OA
ATOM     13  N   UNL     1       1.770   0.007  -0.866  0.00  0.00    -0.322 N 
ATOM     14  H   UNL     1       1.205  -0.863  -1.231  0.00  0.00    +0.169 HD
ATOM     15  C   UNL     1       3.037  -2.520  -1.298  0.00  0.00    +0.046 C 
ENDBRANCH   1  10
BRANCH   1  16
ATOM     16  N   UNL     1      -0.118   3.369   0.859  0.00  0.00    -0.284 NA
ATOM     17  C   UNL     1      -0.818   4.626   1.167  0.00  0.00    +0.090 C 
ATOM     18  C   UNL     1      -2.185   4.287   1.761  0.00  0.00    +0.051 C 
ATOM     19  C   UNL     1      -2.027   3.288   2.879  0.00  0.00    -0.042 A 
ATOM     20  C   UNL     1      -3.078   3.119   3.768  0.00  0.00    +0.004 A 
ATOM     21  C   UNL     1      -2.976   2.212   4.803  0.00  0.00    +0.000 A 
ATOM     22  C   UNL     1      -1.820   1.469   4.956  0.00  0.00    +0.000 A 
ATOM     23  C   UNL     1      -0.773   1.639   4.073  0.00  0.00    +0.005 A 
ATOM     24  C   UNL     1      -0.873   2.550   3.032  0.00  0.00    -0.030 A 
ATOM     25  C   UNL     1       0.298   2.703   2.098  0.00  0.00    +0.120 C 
ENDBRANCH   1  16
BRANCH   1  26
ATOM     26  C   UNL     1       0.549   4.112  -1.357  0.00  0.00    +0.173 A 
ATOM     27  N   UNL     1      -0.340   3.541  -2.132  0.00  0.00    -0.111 NA
ATOM     28  N   UNL     1      -0.485   4.275  -3.180  0.00  0.00    -0.023 NA
ATOM     29  N   UNL     1       0.295   5.296  -3.098  0.00  0.00    -0.044 NA
ATOM     30  N   UNL     1       0.949   5.232  -1.987  0.00  0.00    -0.223 N 
BRANCH  30  31
ATOM     31  C   UNL     1       1.941   6.196  -1.504  0.00  0.00    +0.182 C 
BRANCH  31  32
ATOM     32  C   UNL     1       3.283   5.883  -2.113  0.00  0.00    -0.026 A 
ATOM     33  C   UNL     1       4.203   5.130  -1.408  0.00  0.00    +0.008 A 
ATOM     34  C   UNL     1       5.433   4.839  -1.967  0.00  0.00    +0.038 A 
ATOM     35  C   UNL     1       5.747   5.310  -3.231  0.00  0.00    +0.123 A 
ATOM     36  C   UNL     1       4.827   6.068  -3.934  0.00  0.00    +0.038 A 
ATOM     37  C   UNL     1       3.596   6.354  -3.375  0.00  0.00    +0.008 A 
ATOM     38  F   UNL     1       6.951   5.029  -3.776  0.00  0.00    -0.205 F 
ENDBRANCH  31  32
ENDBRANCH  30  31
ENDBRANCH   1  26
TORSDOF 5
