REMARK  Name = ZINC38889450
REMARK  8 active torsions:
REMARK  status: ('A' for Active; 'I' for Inactive)
REMARK    1  A    between atoms: C_1  and  N_2
REMARK    2  A    between atoms: C_4  and  C_12
REMARK    3  A    between atoms: C_13  and  C_14
REMARK    4  A    between atoms: C_13  and  N_28
REMARK    5  A    between atoms: N_16  and  C_17
REMARK    6  A    between atoms: C_17  and  C_18
REMARK    7  A    between atoms: C_18  and  C_19
REMARK    8  A    between atoms: C_29  and  C_31
REMARK                            x       y       z     vdW  Elec       q    Type
REMARK                         _______ _______ _______ _____ _____    ______ ____
ROOT
ATOM      1  C   UNL     1      -1.071  -2.981   1.143  0.00  0.00    +0.011 C 
ATOM      2  C   UNL     1      -1.887  -4.037   1.088  0.00  0.00    +0.093 C 
ENDROOT
BRANCH   1   6
ATOM      3  C   UNL     1      -0.067   1.484  -0.249  0.00  0.00    +0.129 C 
ATOM      4  N   UNL     1      -0.032   0.020  -0.209  0.00  0.00    -0.332 N 
ATOM      5  C   UNL     1      -1.213  -0.846  -0.150  0.00  0.00    +0.117 C 
ATOM      6  C   UNL     1      -0.659  -2.280  -0.126  0.00  0.00    +0.063 C 
ATOM      7  C   UNL     1       0.842  -2.109  -0.174  0.00  0.00    -0.018 A 
ATOM      8  C   UNL     1       1.129  -0.753  -0.227  0.00  0.00    +0.033 A 
ATOM      9  C   UNL     1       2.463  -0.345  -0.284  0.00  0.00    +0.023 A 
ATOM     10  C   UNL     1       3.477  -1.280  -0.292  0.00  0.00    +0.002 A 
ATOM     11  C   UNL     1       3.179  -2.630  -0.244  0.00  0.00    +0.000 A 
ATOM     12  C   UNL     1       1.861  -3.041  -0.178  0.00  0.00    +0.006 A 
ENDBRANCH   1   6
BRANCH   2  13
ATOM     13  C   UNL     1      -2.297  -4.585  -0.219  0.00  0.00    +0.258 C 
ATOM     14  O   UNL     1      -1.684  -5.515  -0.707  0.00  0.00    -0.269 OA
ATOM     15  N   UNL     1      -3.351  -4.056  -0.871  0.00  0.00    -0.310 N 
ATOM     16  H   UNL     1      -3.795  -3.270  -0.517  0.00  0.00    +0.149 HD
BRANCH  15  17
ATOM     17  C   UNL     1      -3.826  -4.669  -2.114  0.00  0.00    +0.109 C 
BRANCH  17  18
ATOM     18  C   UNL     1      -5.024  -3.880  -2.646  0.00  0.00    +0.056 C 
BRANCH  18  19
ATOM     19  C   UNL     1      -5.513  -4.511  -3.924  0.00  0.00    -0.021 A 
ATOM     20  C   UNL     1      -6.448  -5.633  -4.040  0.00  0.00    +0.003 A 
ATOM     21  C   UNL     1      -7.136  -6.422  -3.117  0.00  0.00    +0.010 A 
ATOM     22  C   UNL     1      -7.958  -7.420  -3.558  0.00  0.00    +0.001 A 
ATOM     23  C   UNL     1      -8.115  -7.657  -4.917  0.00  0.00    +0.002 A 
ATOM     24  C   UNL     1      -7.445  -6.890  -5.845  0.00  0.00    +0.026 A 
ATOM     25  C   UNL     1      -6.604  -5.868  -5.419  0.00  0.00    +0.047 A 
ATOM     26  N   UNL     1      -5.817  -4.950  -6.078  0.00  0.00    -0.360 N 
ATOM     27  C   UNL     1      -5.180  -4.147  -5.172  0.00  0.00    +0.087 A 
ATOM     28  H   UNL     1      -5.730  -4.881  -7.042  0.00  0.00    +0.165 HD
ENDBRANCH  18  19
ENDBRANCH  17  18
ENDBRANCH  15  17
ENDBRANCH   2  13
BRANCH   2  29
ATOM     29  N   UNL     1      -2.353  -4.623   2.271  0.00  0.00    -0.278 N 
ATOM     30  C   UNL     1      -3.260  -5.618   2.218  0.00  0.00    +0.248 C 
ATOM     31  O   UNL     1      -3.603  -6.071   1.143  0.00  0.00    -0.270 OA
ATOM     32  H   UNL     1      -2.023  -4.313   3.129  0.00  0.00    +0.155 HD
BRANCH  30  33
ATOM     33  C   UNL     1      -3.839  -6.159   3.466  0.00  0.00    +0.037 A 
ATOM     34  C   UNL     1      -3.451  -5.637   4.702  0.00  0.00    +0.013 A 
ATOM     35  C   UNL     1      -3.995  -6.146   5.863  0.00  0.00    +0.001 A 
ATOM     36  C   UNL     1      -4.921  -7.172   5.805  0.00  0.00    +0.000 A 
ATOM     37  C   UNL     1      -5.310  -7.694   4.584  0.00  0.00    +0.001 A 
ATOM     38  C   UNL     1      -4.779  -7.189   3.415  0.00  0.00    +0.013 A 
ENDBRANCH  30  33
ENDBRANCH   2  29
TORSDOF 7
