REMARK  Name = ZINC14034351
REMARK  11 active torsions:
REMARK  status: ('A' for Active; 'I' for Inactive)
REMARK    1  A    between atoms: C_1  and  C_2
REMARK    2  A    between atoms: C_2  and  C_3
REMARK    3  A    between atoms: C_2  and  C_4
REMARK    4  A    between atoms: C_4  and  C_5
REMARK    5  A    between atoms: C_5  and  O_6
REMARK    6  A    between atoms: O_6  and  C_7
REMARK    7  A    between atoms: C_12  and  C_13
REMARK    8  A    between atoms: N_15  and  C_16
REMARK    9  A    between atoms: C_16  and  N_18
REMARK   10  A    between atoms: N_18  and  N_19
REMARK   11  A    between atoms: C_20  and  C_22
REMARK                            x       y       z     vdW  Elec       q    Type
REMARK                         _______ _______ _______ _____ _____    ______ ____
ROOT
ATOM      1  C   UNL     1       3.563  -0.981  -0.037  0.00  0.00    +0.253 C 
ATOM      2  O   UNL     1       4.607  -0.359  -0.044  0.00  0.00    -0.270 OA
ATOM      3  N   UNL     1       2.387  -0.323  -0.022  0.00  0.00    -0.263 N 
ATOM      4  H   UNL     1       1.554  -0.819  -0.017  0.00  0.00    +0.157 HD
ENDROOT
BRANCH   1  10
ATOM      5  C   UNL     1       4.804  -3.143  -0.061  0.00  0.00    +0.133 A 
ATOM      6  C   UNL     1       4.811  -4.530  -0.068  0.00  0.00    +0.046 A 
ATOM      7  C   UNL     1       3.620  -5.229  -0.061  0.00  0.00    +0.004 A 
ATOM      8  C   UNL     1       2.411  -4.552  -0.045  0.00  0.00    +0.001 A 
ATOM      9  C   UNL     1       2.385  -3.174  -0.032  0.00  0.00    +0.017 A 
ATOM     10  C   UNL     1       3.583  -2.455  -0.045  0.00  0.00    +0.079 A 
BRANCH   5  11
ATOM     11  O   UNL     1       5.974  -2.457  -0.068  0.00  0.00    -0.491 OA
BRANCH  11  12
ATOM     12  C   UNL     1       7.178  -3.226  -0.083  0.00  0.00    +0.229 C 
BRANCH  12  13
ATOM     13  C   UNL     1       8.384  -2.285  -0.089  0.00  0.00    +0.044 C 
BRANCH  13  15
ATOM     14  C   UNL     1       9.763  -3.889  -1.419  0.00  0.00    +0.007 C 
ATOM     15  C   UNL     1       9.674  -3.108  -0.106  0.00  0.00    -0.014 C 
ATOM     16  C   UNL     1      10.878  -2.172   0.014  0.00  0.00    +0.007 C 
ENDBRANCH  13  15
ENDBRANCH  12  13
ENDBRANCH  11  12
ENDBRANCH   5  11
ENDBRANCH   1  10
BRANCH   3  17
ATOM     17  C   UNL     1       2.369   1.025  -0.015  0.00  0.00    +0.153 C 
ATOM     18  S   UNL     1       3.840   1.901  -0.024  0.00  0.00    -0.017 S 
BRANCH  17  19
ATOM     19  N   UNL     1       1.193   1.683  -0.000  0.00  0.00    -0.245 N 
ATOM     20  H   UNL     1       1.179   2.653   0.005  0.00  0.00    +0.172 HD
BRANCH  19  21
ATOM     21  N   UNL     1      -0.011   0.966   0.007  0.00  0.00    -0.231 N 
ATOM     22  C   UNL     1      -1.187   1.624   0.017  0.00  0.00    +0.261 C 
ATOM     23  O   UNL     1      -1.204   2.839   0.023  0.00  0.00    -0.269 OA
ATOM     24  H   UNL     1       0.002  -0.004   0.002  0.00  0.00    +0.173 HD
BRANCH  22  25
ATOM     25  C   UNL     1      -2.457   0.867   0.018  0.00  0.00    +0.051 A 
ATOM     26  C   UNL     1      -2.442  -0.528   0.005  0.00  0.00    +0.014 A 
ATOM     27  C   UNL     1      -3.630  -1.228   0.012  0.00  0.00    +0.001 A 
ATOM     28  C   UNL     1      -4.837  -0.550   0.022  0.00  0.00    +0.001 A 
ATOM     29  C   UNL     1      -4.860   0.833   0.030  0.00  0.00    +0.015 A 
ATOM     30  C   UNL     1      -3.678   1.546   0.028  0.00  0.00    +0.026 A 
ATOM     31  I   UNL     1      -3.715   3.640   0.039  0.00  0.00    -0.043 I 
ENDBRANCH  22  25
ENDBRANCH  19  21
ENDBRANCH  17  19
ENDBRANCH   3  17
TORSDOF 9
