REMARK  Name = ZINC00531967
REMARK  7 active torsions:
REMARK  status: ('A' for Active; 'I' for Inactive)
REMARK    1  A    between atoms: C_1  and  C_2
REMARK    2  A    between atoms: C_6  and  C_8
REMARK    3  A    between atoms: C_11  and  S_14
REMARK    4  A    between atoms: N_12  and  N_13
REMARK    5  A    between atoms: S_14  and  C_15
REMARK    6  A    between atoms: C_15  and  C_16
REMARK    7  A    between atoms: C_19  and  C_22
REMARK                            x       y       z     vdW  Elec       q    Type
REMARK                         _______ _______ _______ _____ _____    ______ ____
ROOT
ATOM      1  C   UNL     1      -0.672   3.840   0.038  0.00  0.00    +0.182 A 
ATOM      2  N   UNL     1       0.634   3.781   0.152  0.00  0.00    -0.127 NA
ATOM      3  N   UNL     1       1.026   2.558   0.086  0.00  0.00    -0.121 NA
ATOM      4  C   UNL     1      -0.007   1.762  -0.074  0.00  0.00    +0.209 A 
ATOM      5  N   UNL     1      -1.123   2.549  -0.116  0.00  0.00    -0.224 N 
ENDROOT
BRANCH   1  11
ATOM      6  C   UNL     1      -1.061   8.801  -0.324  0.00  0.00    +0.044 C 
ATOM      7  C   UNL     1      -1.694   7.450  -0.110  0.00  0.00    -0.050 A 
ATOM      8  C   UNL     1      -3.057   7.354   0.112  0.00  0.00    +0.003 A 
ATOM      9  C   UNL     1      -3.646   6.118   0.310  0.00  0.00    +0.001 A 
ATOM     10  C   UNL     1      -2.877   4.972   0.287  0.00  0.00    +0.011 A 
ATOM     11  C   UNL     1      -1.502   5.063   0.064  0.00  0.00    +0.021 A 
ATOM     12  C   UNL     1      -0.913   6.314  -0.130  0.00  0.00    +0.015 A 
ENDBRANCH   1  11
BRANCH   5  13
ATOM     13  N   UNL     1      -2.416   2.139  -0.276  0.00  0.00    -0.295 N 
ATOM     14  H   UNL     1      -2.877   2.042   0.616  0.00  0.00    +0.163 HD
ATOM     15  H   UNL     1      -2.923   2.771  -0.878  0.00  0.00    +0.163 HD
ENDBRANCH   5  13
BRANCH   4  16
ATOM     16  S   UNL     1       0.039   0.006  -0.216  0.00  0.00    -0.080 S 
BRANCH  16  17
ATOM     17  C   UNL     1       1.821  -0.274  -0.076  0.00  0.00    +0.112 C 
BRANCH  17  18
ATOM     18  C   UNL     1       2.107  -1.750  -0.173  0.00  0.00    -0.037 A 
ATOM     19  C   UNL     1       2.135  -2.523   0.975  0.00  0.00    +0.006 A 
ATOM     20  C   UNL     1       2.391  -3.876   0.893  0.00  0.00    +0.019 A 
ATOM     21  C   UNL     1       2.633  -4.463  -0.350  0.00  0.00    +0.052 A 
ATOM     22  C   UNL     1       2.610  -3.677  -1.503  0.00  0.00    +0.019 A 
ATOM     23  C   UNL     1       2.347  -2.326  -1.408  0.00  0.00    +0.006 A 
BRANCH  21  24
ATOM     24  C   UNL     1       2.905  -5.867  -0.442  0.00  0.00    +0.099 C 
ATOM     25  N   UNL     1       3.120  -6.979  -0.515  0.00  0.00    -0.191 NA
ENDBRANCH  21  24
ENDBRANCH  17  18
ENDBRANCH  16  17
ENDBRANCH   4  16
TORSDOF 6
