REMARK  Name = ZINC12852749
REMARK  8 active torsions:
REMARK  status: ('A' for Active; 'I' for Inactive)
REMARK    1  A    between atoms: C_1  and  C_2
REMARK    2  A    between atoms: C_7  and  C_9
REMARK    3  A    between atoms: C_7  and  C_10
REMARK    4  A    between atoms: N_13  and  C_17
REMARK    5  A    between atoms: C_17  and  C_18
REMARK    6  A    between atoms: N_20  and  C_21
REMARK    7  A    between atoms: N_20  and  C_28
REMARK    8  A    between atoms: C_21  and  C_22
REMARK                            x       y       z     vdW  Elec       q    Type
REMARK                         _______ _______ _______ _____ _____    ______ ____
ROOT
ATOM      1  C   UNL     1      -1.535  -4.018  -3.180  0.00  0.00    +0.214 C 
ENDROOT
BRANCH   1  13
ATOM      2  C   UNL     1       2.287   1.253  -1.435  0.00  0.00    +0.007 C 
ATOM      3  C   UNL     1       1.975  -0.232  -1.226  0.00  0.00    -0.011 C 
ATOM      4  C   UNL     1       0.500  -0.390  -0.847  0.00  0.00    +0.038 C 
ATOM      5  C   UNL     1       0.167  -1.867  -0.685  0.00  0.00    +0.113 C 
ATOM      6  C   UNL     1       1.088  -2.575   0.289  0.00  0.00    +0.041 C 
ATOM      7  C   UNL     1       2.566  -2.258   0.142  0.00  0.00    -0.032 C 
ATOM      8  C   UNL     1       2.830  -0.774  -0.083  0.00  0.00    +0.009 C 
ATOM      9  C   UNL     1       3.275  -2.669   1.451  0.00  0.00    +0.011 C 
ATOM     10  C   UNL     1       3.187  -3.079  -0.992  0.00  0.00    +0.011 C 
ATOM     11  C   UNL     1       0.116  -2.557  -2.026  0.00  0.00    +0.247 C 
ATOM     12  O   UNL     1       0.967  -2.584  -2.889  0.00  0.00    -0.273 OA
ATOM     13  N   UNL     1      -1.104  -3.134  -2.095  0.00  0.00    -0.215 N 
ATOM     14  C   UNL     1      -1.866  -2.795  -1.049  0.00  0.00    +0.310 C 
ATOM     15  O   UNL     1      -3.010  -3.176  -0.894  0.00  0.00    -0.252 OA
ATOM     16  N   UNL     1      -1.222  -1.987  -0.189  0.00  0.00    -0.285 N 
ATOM     17  H   UNL     1      -1.583  -1.561   0.602  0.00  0.00    +0.151 HD
ENDBRANCH   1  13
BRANCH   1  18
ATOM     18  C   UNL     1      -1.193  -5.444  -2.832  0.00  0.00    +0.238 C 
ATOM     19  O   UNL     1      -0.730  -5.707  -1.742  0.00  0.00    -0.273 OA
ATOM     20  N   UNL     1      -1.403  -6.426  -3.731  0.00  0.00    -0.266 N 
BRANCH  20  21
ATOM     21  C   UNL     1      -1.834  -6.110  -5.024  0.00  0.00    +0.037 A 
ATOM     22  C   UNL     1      -0.996  -6.329  -6.109  0.00  0.00    +0.023 A 
ATOM     23  C   UNL     1      -1.425  -6.016  -7.385  0.00  0.00    +0.002 A 
ATOM     24  C   UNL     1      -2.687  -5.486  -7.581  0.00  0.00    +0.000 A 
ATOM     25  C   UNL     1      -3.523  -5.267  -6.502  0.00  0.00    +0.002 A 
ATOM     26  C   UNL     1      -3.103  -5.583  -5.225  0.00  0.00    +0.023 A 
ENDBRANCH  20  21
BRANCH  20  27
ATOM     27  C   UNL     1      -1.179  -7.824  -3.354  0.00  0.00    +0.148 C 
BRANCH  27  28
ATOM     28  C   UNL     1      -2.454  -8.404  -2.799  0.00  0.00    -0.030 A 
ATOM     29  C   UNL     1      -2.721  -8.318  -1.445  0.00  0.00    +0.005 A 
ATOM     30  C   UNL     1      -3.891  -8.851  -0.936  0.00  0.00    +0.000 A 
ATOM     31  C   UNL     1      -4.794  -9.469  -1.780  0.00  0.00    +0.000 A 
ATOM     32  C   UNL     1      -4.527  -9.555  -3.134  0.00  0.00    +0.000 A 
ATOM     33  C   UNL     1      -3.360  -9.018  -3.644  0.00  0.00    +0.005 A 
ENDBRANCH  27  28
ENDBRANCH  20  27
ENDBRANCH   1  18
TORSDOF 5
