REMARK  Name = ZINC13976276
REMARK  10 active torsions:
REMARK  status: ('A' for Active; 'I' for Inactive)
REMARK    1  A    between atoms: C_1  and  C_2
REMARK    2  A    between atoms: C_7  and  O_8
REMARK    3  A    between atoms: O_8  and  C_9
REMARK    4  A    between atoms: C_9  and  C_10
REMARK    5  A    between atoms: N_12  and  C_13
REMARK    6  A    between atoms: C_13  and  N_15
REMARK    7  A    between atoms: N_15  and  N_16
REMARK    8  A    between atoms: C_17  and  C_19
REMARK    9  A    between atoms: C_19  and  O_20
REMARK   10  A    between atoms: O_20  and  C_21
REMARK                            x       y       z     vdW  Elec       q    Type
REMARK                         _______ _______ _______ _____ _____    ______ ____
ROOT
ATOM      1  C   UNL     1       4.126   8.655   0.008  0.00  0.00    +0.153 C 
ATOM      2  S   UNL     1       3.881  10.350   0.018  0.00  0.00    -0.017 S 
ENDROOT
BRANCH   1   5
ATOM      3  C   UNL     1       6.437   8.989  -0.012  0.00  0.00    +0.256 C 
ATOM      4  O   UNL     1       6.263  10.189  -0.005  0.00  0.00    -0.272 OA
ATOM      5  N   UNL     1       5.378   8.155  -0.007  0.00  0.00    -0.264 N 
ATOM      6  H   UNL     1       5.516   7.195  -0.013  0.00  0.00    +0.157 HD
BRANCH   3   7
ATOM      7  C   UNL     1       7.836   8.430  -0.028  0.00  0.00    +0.325 C 
BRANCH   7   8
ATOM      8  O   UNL     1       8.778   9.505  -0.032  0.00  0.00    -0.482 OA
BRANCH   8  15
ATOM      9  C   UNL     1      10.657  11.614  -0.051  0.00  0.00    +0.047 C 
ATOM     10  C   UNL     1      11.064  10.163  -0.056  0.00  0.00    -0.008 A 
ATOM     11  C   UNL     1      12.403   9.821  -0.064  0.00  0.00    +0.022 A 
ATOM     12  C   UNL     1      12.777   8.489  -0.075  0.00  0.00    +0.018 A 
ATOM     13  C   UNL     1      11.812   7.497  -0.070  0.00  0.00    +0.019 A 
ATOM     14  C   UNL     1      10.473   7.835  -0.056  0.00  0.00    +0.047 A 
ATOM     15  C   UNL     1      10.095   9.170  -0.046  0.00  0.00    +0.124 A 
ATOM     16 BR   UNL     1      14.610   8.024  -0.094  0.00  0.00    -0.050 Br
ENDBRANCH   8  15
ENDBRANCH   7   8
ENDBRANCH   3   7
ENDBRANCH   1   5
BRANCH   1  17
ATOM     17  N   UNL     1       3.067   7.821   0.013  0.00  0.00    -0.245 N 
ATOM     18  H   UNL     1       2.167   8.181   0.024  0.00  0.00    +0.172 HD
BRANCH  17  19
ATOM     19  N   UNL     1       3.268   6.435   0.004  0.00  0.00    -0.232 N 
ATOM     20  C   UNL     1       2.209   5.601   0.010  0.00  0.00    +0.267 C 
ATOM     21  O   UNL     1       1.083   6.051   0.023  0.00  0.00    -0.271 OA
ATOM     22  H   UNL     1       4.169   6.075  -0.006  0.00  0.00    +0.173 HD
BRANCH  20  23
ATOM     23  C   UNL     1       2.425   4.109   0.001  0.00  0.00    +0.326 C 
BRANCH  23  24
ATOM     24  O   UNL     1       1.159   3.445   0.009  0.00  0.00    -0.483 OA
BRANCH  24  25
ATOM     25  C   UNL     1       1.176   2.086   0.002  0.00  0.00    +0.121 A 
ATOM     26  C   UNL     1      -0.017   1.377   0.010  0.00  0.00    +0.047 A 
ATOM     27  C   UNL     1       0.002  -0.004   0.002  0.00  0.00    +0.023 A 
ATOM     28  C   UNL     1       1.209  -0.680  -0.013  0.00  0.00    +0.041 A 
ATOM     29  C   UNL     1       2.399   0.025  -0.020  0.00  0.00    +0.023 A 
ATOM     30  C   UNL     1       2.385   1.406  -0.012  0.00  0.00    +0.047 A 
ATOM     31 CL   UNL     1       1.230  -2.416  -0.023  0.00  0.00    -0.084 Cl
ENDBRANCH  24  25
ENDBRANCH  23  24
ENDBRANCH  20  23
ENDBRANCH  17  19
ENDBRANCH   1  17
TORSDOF 9
