REMARK  Name = ZINC33766987
REMARK  10 active torsions:
REMARK  status: ('A' for Active; 'I' for Inactive)
REMARK    1  A    between atoms: C_1  and  C_2
REMARK    2  A    between atoms: C_5  and  C_22
REMARK    3  A    between atoms: C_6  and  C_7
REMARK    4  A    between atoms: C_6  and  C_8
REMARK    5  A    between atoms: C_15  and  N_19
REMARK    6  A    between atoms: N_24  and  C_25
REMARK    7  A    between atoms: C_27  and  C_33
REMARK    8  A    between atoms: C_27  and  C_34
REMARK    9  A    between atoms: C_29  and  C_31
REMARK   10  A    between atoms: C_29  and  C_32
REMARK                            x       y       z     vdW  Elec       q    Type
REMARK                         _______ _______ _______ _____ _____    ______ ____
ROOT
ATOM      1  C   UNL     1       0.325   1.595  -0.031  0.00  0.00    +0.018 C 
ATOM      2  C   UNL     1       0.325   0.066  -0.009  0.00  0.00    +0.018 C 
ATOM      3  C   UNL     1      -1.068  -0.621   0.157  0.00  0.00    +0.015 C 
ATOM      4  C   UNL     1      -0.727  -2.062   0.606  0.00  0.00    +0.024 C 
ATOM      5  C   UNL     1       0.834  -2.083   0.661  0.00  0.00    +0.096 C 
ATOM      6  C   UNL     1       1.119  -0.621   1.163  0.00  0.00    -0.005 C 
ATOM      7  C   UNL     1       2.606  -0.260   1.146  0.00  0.00    +0.013 C 
ATOM      8  C   UNL     1       0.481  -0.359   2.529  0.00  0.00    +0.013 C 
ATOM      9  C   UNL     1       1.265  -1.952  -0.802  0.00  0.00    +0.079 A 
ATOM     10  C   UNL     1       0.970  -0.629  -1.211  0.00  0.00    +0.071 A 
ATOM     11  N   UNL     1       1.232  -0.216  -2.423  0.00  0.00    -0.248 NA
ATOM     12  C   UNL     1       1.816  -1.050  -3.292  0.00  0.00    +0.090 A 
ATOM     13  C   UNL     1       2.113  -0.639  -4.603  0.00  0.00    +0.032 A 
ATOM     14  C   UNL     1       2.709  -1.508  -5.464  0.00  0.00    +0.035 A 
ATOM     15  C   UNL     1       3.031  -2.805  -5.066  0.00  0.00    +0.128 A 
ATOM     16  C   UNL     1       2.757  -3.239  -3.805  0.00  0.00    +0.062 A 
ATOM     17  C   UNL     1       2.142  -2.370  -2.888  0.00  0.00    +0.092 A 
ATOM     18  N   UNL     1       1.820  -2.797  -1.630  0.00  0.00    -0.247 NA
ENDROOT
BRANCH   5  19
ATOM     19  C   UNL     1       1.456  -3.202   1.456  0.00  0.00    +0.226 C 
ATOM     20  O   UNL     1       2.150  -2.949   2.418  0.00  0.00    -0.275 OA
ATOM     21  N   UNL     1       1.240  -4.483   1.099  0.00  0.00    -0.312 N 
ATOM     22  H   UNL     1       0.685  -4.686   0.330  0.00  0.00    +0.149 HD
BRANCH  21  23
ATOM     23  C   UNL     1       1.847  -5.573   1.875  0.00  0.00    +0.070 C 
ATOM     24  C   UNL     1       3.252  -5.850   1.338  0.00  0.00    +0.009 C 
ATOM     25  C   UNL     1       3.893  -6.991   2.127  0.00  0.00    -0.072 C 
ATOM     26  N   UNL     1       3.058  -8.183   2.143  0.00  0.00    +0.386 N 
ATOM     27  C   UNL     1       1.645  -8.013   2.442  0.00  0.00    -0.072 C 
ATOM     28  C   UNL     1       1.010  -6.840   1.702  0.00  0.00    +0.009 C 
ATOM     29  C   UNL     1       1.396  -7.877   3.947  0.00  0.00    -0.010 C 
ATOM     30  C   UNL     1       0.915  -9.296   1.979  0.00  0.00    -0.010 C 
ATOM     31  C   UNL     1       4.254  -6.522   3.536  0.00  0.00    -0.010 C 
ATOM     32  C   UNL     1       5.215  -7.357   1.413  0.00  0.00    -0.010 C 
ATOM     33  H   UNL     1       3.141  -8.645   1.235  0.00  0.00    -0.084 HD
ATOM     34  H   UNL     1       3.453  -8.843   2.818  0.00  0.00    -0.084 HD
ENDBRANCH  21  23
ENDBRANCH   5  19
BRANCH  15  35
ATOM     35  N   UNL     1       3.679  -3.724  -6.028  0.00  0.00    +0.056 N 
ATOM     36  O   UNL     1       3.926  -3.348  -7.151  0.00  0.00    -0.126 OA
ATOM     37  O   UNL     1       3.961  -4.850  -5.693  0.00  0.00    -0.126 OA
ENDBRANCH  15  35
TORSDOF 3
