REMARK  Name = ZINC03360714
REMARK  2 active torsions:
REMARK  status: ('A' for Active; 'I' for Inactive)
REMARK    1  A    between atoms: C_8  and  C_19
REMARK    2  A    between atoms: C_12  and  C_14
REMARK                            x       y       z     vdW  Elec       q    Type
REMARK                         _______ _______ _______ _____ _____    ______ ____
ROOT
ATOM      1  C   UNL     1       0.207  -5.607  -2.966  0.00  0.00    +0.000 A 
ATOM      2  C   UNL     1      -0.872  -6.388  -2.595  0.00  0.00    +0.000 A 
ATOM      3  C   UNL     1      -1.796  -5.896  -1.696  0.00  0.00    +0.005 A 
ATOM      4  C   UNL     1      -1.650  -4.623  -1.162  0.00  0.00    -0.027 A 
ATOM      5  C   UNL     1      -0.581  -3.840  -1.537  0.00  0.00    -0.040 A 
ATOM      6  C   UNL     1       0.350  -4.340  -2.439  0.00  0.00    +0.004 A 
ATOM      7  C   UNL     1      -0.367  -2.445  -1.013  0.00  0.00    +0.067 C 
ATOM      8  C   UNL     1      -1.140  -2.227   0.286  0.00  0.00    +0.167 C 
ATOM      9  N   UNL     1      -2.513  -2.721   0.086  0.00  0.00    -0.279 N 
ATOM     10  C   UNL     1      -2.681  -4.157  -0.165  0.00  0.00    +0.144 C 
ATOM     11  C   UNL     1      -3.571  -1.889   0.131  0.00  0.00    +0.283 C 
ATOM     12  O   UNL     1      -3.410  -0.691  -0.015  0.00  0.00    -0.267 OA
ENDROOT
BRANCH   8  13
ATOM     13  C   UNL     1      -1.172  -0.757   0.620  0.00  0.00    +0.240 C 
ATOM     14  O   UNL     1      -0.901  -0.384   1.742  0.00  0.00    -0.273 OA
ATOM     15  N   UNL     1      -1.501   0.142  -0.328  0.00  0.00    -0.263 N 
ATOM     16  C   UNL     1      -1.530   1.493  -0.021  0.00  0.00    +0.165 A 
ATOM     17  N   UNL     1      -1.823   2.508  -0.800  0.00  0.00    -0.225 NA
ATOM     18  C   UNL     1      -1.812   3.786  -0.363  0.00  0.00    +0.080 A 
ATOM     19  C   UNL     1      -2.106   4.961  -1.092  0.00  0.00    +0.029 A 
ATOM     20  C   UNL     1      -2.047   6.191  -0.491  0.00  0.00    +0.002 A 
ATOM     21  C   UNL     1      -1.699   6.330   0.845  0.00  0.00    +0.001 A 
ATOM     22  C   UNL     1      -1.405   5.201   1.589  0.00  0.00    +0.017 A 
ATOM     23  C   UNL     1      -1.462   3.965   0.995  0.00  0.00    +0.041 A 
ATOM     24  S   UNL     1      -1.185   2.296   1.538  0.00  0.00    -0.052 S 
ATOM     25  H   UNL     1      -1.718  -0.156  -1.225  0.00  0.00    +0.157 HD
ENDBRANCH   8  13
BRANCH  11  26
ATOM     26  C   UNL     1      -4.918  -2.425   0.354  0.00  0.00    +0.189 A 
ATOM     27  C   UNL     1      -6.083  -1.716   0.306  0.00  0.00    +0.054 A 
ATOM     28  C   UNL     1      -7.119  -2.622   0.578  0.00  0.00    +0.042 A 
ATOM     29  C   UNL     1      -6.548  -3.829   0.786  0.00  0.00    +0.196 A 
ATOM     30  O   UNL     1      -5.221  -3.706   0.650  0.00  0.00    -0.458 OA
ENDBRANCH  11  26
TORSDOF 2
