REMARK  Name = ZINC08241263
REMARK  8 active torsions:
REMARK  status: ('A' for Active; 'I' for Inactive)
REMARK    1  A    between atoms: C_1  and  S_2
REMARK    2  A    between atoms: S_2  and  C_3
REMARK    3  A    between atoms: C_3  and  C_4
REMARK    4  A    between atoms: C_4  and  C_5
REMARK    5  A    between atoms: C_5  and  C_7
REMARK    6  A    between atoms: C_5  and  N_25
REMARK    7  A    between atoms: N_12  and  S_15
REMARK    8  A    between atoms: S_15  and  C_18
REMARK                            x       y       z     vdW  Elec       q    Type
REMARK                         _______ _______ _______ _____ _____    ______ ____
ROOT
ATOM      1  C   UNL     1      -0.074   0.981   2.485  0.00  0.00    +0.236 C 
ATOM      2  O   UNL     1       0.716   1.635   3.132  0.00  0.00    -0.274 OA
ATOM      3  N   UNL     1      -0.365  -0.282   2.855  0.00  0.00    -0.297 N 
ATOM      4  C   UNL     1      -1.325  -1.085   2.083  0.00  0.00    +0.125 C 
ATOM      5  C   UNL     1      -0.636  -2.395   1.664  0.00  0.00    +0.128 C 
ATOM      6  N   UNL     1      -0.005  -2.992   2.850  0.00  0.00    -0.174 NA
ATOM      7  C   UNL     1       0.951  -2.187   3.624  0.00  0.00    +0.128 C 
ATOM      8  C   UNL     1       0.266  -0.879   4.040  0.00  0.00    +0.125 C 
ENDROOT
BRANCH   6   9
ATOM      9  S   UNL     1      -0.364  -4.543   3.305  0.00  0.00    +0.061 S 
ATOM     10  O   UNL     1      -0.820  -5.213   2.138  0.00  0.00    -0.153 OA
ATOM     11  O   UNL     1       0.741  -5.008   4.068  0.00  0.00    -0.153 OA
BRANCH   9  12
ATOM     12  C   UNL     1      -1.736  -4.458   4.407  0.00  0.00    +0.108 A 
ATOM     13  C   UNL     1      -1.524  -4.332   5.767  0.00  0.00    +0.029 A 
ATOM     14  C   UNL     1      -2.600  -4.261   6.632  0.00  0.00    +0.005 A 
ATOM     15  C   UNL     1      -3.889  -4.326   6.138  0.00  0.00    +0.038 A 
ATOM     16  C   UNL     1      -4.103  -4.457   4.777  0.00  0.00    +0.125 A 
ATOM     17  C   UNL     1      -3.025  -4.523   3.911  0.00  0.00    +0.066 A 
ATOM     18  F   UNL     1      -5.363  -4.521   4.294  0.00  0.00    -0.205 F 
ENDBRANCH   9  12
ENDBRANCH   6   9
BRANCH   1  19
ATOM     19  C   UNL     1      -0.729   1.579   1.267  0.00  0.00    +0.161 C 
BRANCH  19  20
ATOM     20  N   UNL     1      -0.645   3.040   1.336  0.00  0.00    -0.288 N 
ATOM     21  C   UNL     1       0.559   3.644   1.388  0.00  0.00    +0.298 C 
ATOM     22  O   UNL     1       1.575   2.977   1.378  0.00  0.00    -0.253 OA
ATOM     23  N   UNL     1       0.636   4.988   1.451  0.00  0.00    -0.313 N 
ATOM     24  H   UNL     1      -1.455   3.573   1.343  0.00  0.00    +0.151 HD
ATOM     25  H   UNL     1      -0.174   5.521   1.459  0.00  0.00    +0.146 HD
ATOM     26  H   UNL     1       1.503   5.423   1.489  0.00  0.00    +0.146 HD
ENDBRANCH  19  20
BRANCH  19  27
ATOM     27  C   UNL     1      -0.013   1.086   0.008  0.00  0.00    +0.042 C 
BRANCH  27  28
ATOM     28  C   UNL     1      -0.753   1.593  -1.232  0.00  0.00    +0.071 C 
BRANCH  28  30
ATOM     29  C   UNL     1      -0.892   1.685  -4.085  0.00  0.00    +0.084 C 
ATOM     30  S   UNL     1       0.096   1.008  -2.724  0.00  0.00    -0.164 S 
ENDBRANCH  28  30
ENDBRANCH  27  28
ENDBRANCH  19  27
ENDBRANCH   1  19
TORSDOF 7
