REMARK  Name = ZINC57343917
REMARK  3 active torsions:
REMARK  status: ('A' for Active; 'I' for Inactive)
REMARK    1  A    between atoms: C_1  and  C_2
REMARK    2  A    between atoms: C_5  and  C_8
REMARK    3  A    between atoms: N_19  and  C_20
REMARK                            x       y       z     vdW  Elec       q    Type
REMARK                         _______ _______ _______ _____ _____    ______ ____
ROOT
ATOM      1  C   UNL     1      -1.722  -4.588  -0.215  0.00  0.00    +0.078 A 
ATOM      2  C   UNL     1      -1.628  -5.223   0.992  0.00  0.00    +0.077 A 
ATOM      3  C   UNL     1      -0.988  -6.486   1.045  0.00  0.00    +0.166 A 
ATOM      4  N   UNL     1      -0.746  -7.324   2.022  0.00  0.00    -0.151 NA
ATOM      5  N   UNL     1      -0.072  -8.430   1.483  0.00  0.00    -0.226 N 
ATOM      6  H   UNL     1       0.234  -9.208   1.974  0.00  0.00    +0.194 HD
ATOM      7  C   UNL     1       0.073  -8.214   0.158  0.00  0.00    +0.351 A 
ATOM      8  O   UNL     1       0.614  -8.965  -0.635  0.00  0.00    -0.245 OA
ATOM      9  N   UNL     1      -0.484  -7.023  -0.131  0.00  0.00    -0.215 N 
ATOM     10  C   UNL     1      -0.619  -6.320  -1.304  0.00  0.00    +0.210 A 
ATOM     11  N   UNL     1      -1.220  -5.156  -1.328  0.00  0.00    -0.215 NA
ATOM     12  N   UNL     1      -0.121  -6.848  -2.469  0.00  0.00    -0.285 N 
ATOM     13  H   UNL     1       0.240  -7.749  -2.479  0.00  0.00    +0.155 HD
ENDROOT
BRANCH   1  18
ATOM     14  C   UNL     1      -4.306   0.547  -0.546  0.00  0.00    +0.044 C 
ATOM     15  C   UNL     1      -3.630  -0.797  -0.460  0.00  0.00    -0.050 A 
ATOM     16  C   UNL     1      -2.990  -1.320  -1.570  0.00  0.00    +0.004 A 
ATOM     17  C   UNL     1      -2.369  -2.550  -1.497  0.00  0.00    +0.010 A 
ATOM     18  C   UNL     1      -2.386  -3.266  -0.300  0.00  0.00    +0.001 A 
ATOM     19  C   UNL     1      -3.032  -2.734   0.816  0.00  0.00    +0.010 A 
ATOM     20  C   UNL     1      -3.646  -1.501   0.732  0.00  0.00    +0.004 A 
ENDBRANCH   1  18
BRANCH  12  21
ATOM     21  C   UNL     1      -0.134  -6.087  -3.644  0.00  0.00    +0.034 A 
ATOM     22  C   UNL     1       0.064  -4.714  -3.584  0.00  0.00    +0.026 A 
ATOM     23  C   UNL     1       0.051  -3.965  -4.745  0.00  0.00    +0.040 A 
ATOM     24  C   UNL     1      -0.158  -4.582  -5.966  0.00  0.00    +0.124 A 
ATOM     25  C   UNL     1      -0.355  -5.951  -6.028  0.00  0.00    +0.040 A 
ATOM     26  C   UNL     1      -0.338  -6.705  -4.871  0.00  0.00    +0.026 A 
ATOM     27  F   UNL     1      -0.170  -3.847  -7.100  0.00  0.00    -0.205 F 
ENDBRANCH  12  21
TORSDOF 2
