REMARK  Name = ZINC39503421
REMARK  4 active torsions:
REMARK  status: ('A' for Active; 'I' for Inactive)
REMARK    1  A    between atoms: C_4  and  O_26
REMARK    2  A    between atoms: C_5  and  C_7
REMARK    3  A    between atoms: N_17  and  C_19
REMARK    4  A    between atoms: C_24  and  O_25
REMARK                            x       y       z     vdW  Elec       q    Type
REMARK                         _______ _______ _______ _____ _____    ______ ____
ROOT
ATOM      1  C   UNL     1       1.227  -2.187  -0.022  0.00  0.00    +0.042 C 
ATOM      2  C   UNL     1       0.454  -2.760   1.198  0.00  0.00    +0.035 C 
ATOM      3  C   UNL     1      -0.015  -4.129   0.685  0.00  0.00    +0.037 C 
ATOM      4  C   UNL     1       0.911  -5.244   1.208  0.00  0.00    +0.027 C 
ATOM      5  C   UNL     1       0.003  -6.500   1.142  0.00  0.00    +0.017 C 
ATOM      6  C   UNL     1      -1.395  -5.981   1.541  0.00  0.00    +0.059 C 
ATOM      7  C   UNL     1      -1.405  -4.470   1.239  0.00  0.00    +0.040 C 
ATOM      8 BR   UNL     1      -2.778  -6.891   0.481  0.00  0.00    -0.088 Br
ATOM      9  N   UNL     1      -0.018  -4.094  -0.775  0.00  0.00    -0.321 N 
ATOM     10  C   UNL     1       0.402  -2.746  -1.209  0.00  0.00    +0.114 C 
ENDROOT
BRANCH   1  15
ATOM     11  C   UNL     1      -0.017   1.378   0.010  0.00  0.00    +0.001 A 
ATOM     12  C   UNL     1       1.170   2.088   0.002  0.00  0.00    +0.004 A 
ATOM     13  C   UNL     1       2.377   1.417  -0.013  0.00  0.00    +0.046 A 
ATOM     14  C   UNL     1       2.399   0.030  -0.021  0.00  0.00    +0.120 A 
ATOM     15  C   UNL     1       1.207  -0.680  -0.013  0.00  0.00    -0.001 A 
ATOM     16  C   UNL     1       0.002  -0.004   0.002  0.00  0.00    +0.007 A 
BRANCH  14  17
ATOM     17  O   UNL     1       3.586  -0.632  -0.037  0.00  0.00    -0.506 OA
ATOM     18  H   UNL     1       3.938  -0.829   0.842  0.00  0.00    +0.292 HD
ENDBRANCH  14  17
ENDBRANCH   1  15
BRANCH   9  19
ATOM     19  C   UNL     1      -0.360  -5.156  -1.620  0.00  0.00    +0.072 A 
ATOM     20  C   UNL     1      -1.674  -5.322  -2.034  0.00  0.00    +0.027 A 
ATOM     21  C   UNL     1      -2.008  -6.372  -2.868  0.00  0.00    +0.002 A 
ATOM     22  C   UNL     1      -1.036  -7.258  -3.293  0.00  0.00    +0.004 A 
ATOM     23  C   UNL     1       0.276  -7.100  -2.885  0.00  0.00    +0.047 A 
ATOM     24  C   UNL     1       0.620  -6.047  -2.053  0.00  0.00    +0.138 A 
BRANCH  24  25
ATOM     25  O   UNL     1       1.911  -5.887  -1.655  0.00  0.00    -0.505 OA
ATOM     26  H   UNL     1       2.131  -6.351  -0.836  0.00  0.00    +0.292 HD
ENDBRANCH  24  25
ENDBRANCH   9  19
TORSDOF 4
