REMARK  Name = ZINC38577516
REMARK  10 active torsions:
REMARK  status: ('A' for Active; 'I' for Inactive)
REMARK    1  A    between atoms: C_1  and  C_2
REMARK    2  A    between atoms: C_2  and  C_3
REMARK    3  A    between atoms: C_3  and  O_4
REMARK    4  A    between atoms: O_4  and  C_5
REMARK    5  A    between atoms: C_8  and  C_13
REMARK    6  A    between atoms: C_10  and  O_11
REMARK    7  A    between atoms: O_11  and  C_12
REMARK    8  A    between atoms: C_15  and  C_26
REMARK    9  A    between atoms: C_16  and  N_25
REMARK   10  A    between atoms: C_21  and  C_24
REMARK                            x       y       z     vdW  Elec       q    Type
REMARK                         _______ _______ _______ _____ _____    ______ ____
ROOT
ATOM      1  C   UNL     1      -6.403  -4.585   0.038  0.00  0.00    +0.098 C 
ATOM      2  C   UNL     1      -7.208  -4.163   1.253  0.00  0.00    +0.097 C 
ATOM      3  C   UNL     1      -8.307  -3.388   1.142  0.00  0.00    +0.195 C 
ATOM      4  O   UNL     1      -8.845  -2.915   0.002  0.00  0.00    -0.448 OA
ATOM      5  C   UNL     1      -7.995  -2.842  -1.145  0.00  0.00    +0.343 C 
ATOM      6  C   UNL     1      -7.218  -4.164  -1.153  0.00  0.00    +0.030 C 
ATOM      7  C   UNL     1      -7.473  -4.704  -2.320  0.00  0.00    +0.066 C 
ATOM      8  N   UNL     1      -8.379  -3.954  -2.998  0.00  0.00    -0.155 NA
ATOM      9  N   UNL     1      -8.741  -2.906  -2.404  0.00  0.00    -0.138 NA
ATOM     10  C   UNL     1      -6.849  -5.976  -2.835  0.00  0.00    +0.067 C 
ENDROOT
BRANCH   1  14
ATOM     11  C   UNL     1      -2.617  -2.596   0.013  0.00  0.00    +0.162 A 
ATOM     12  C   UNL     1      -3.790  -1.859   0.022  0.00  0.00    +0.050 A 
ATOM     13  C   UNL     1      -5.013  -2.505   0.030  0.00  0.00    +0.008 A 
ATOM     14  C   UNL     1      -5.068  -3.886   0.029  0.00  0.00    -0.031 A 
ATOM     15  C   UNL     1      -3.901  -4.628   0.020  0.00  0.00    +0.054 A 
ATOM     16  C   UNL     1      -2.673  -3.987   0.006  0.00  0.00    +0.162 A 
BRANCH  16  17
ATOM     17  O   UNL     1      -1.524  -4.715  -0.009  0.00  0.00    -0.491 OA
ATOM     18  C   UNL     1      -1.658  -6.138  -0.015  0.00  0.00    +0.277 C 
ENDBRANCH  16  17
BRANCH  11  19
ATOM     19  O   UNL     1      -1.414  -1.962   0.005  0.00  0.00    -0.488 OA
BRANCH  19  20
ATOM     20  C   UNL     1      -1.433  -0.534   0.013  0.00  0.00    +0.229 C 
BRANCH  20  22
ATOM     21  C   UNL     1      -0.019   1.526   0.010  0.00  0.00    +0.007 C 
ATOM     22  C   UNL     1       0.002  -0.004   0.002  0.00  0.00    +0.038 C 
ENDBRANCH  20  22
ENDBRANCH  19  20
ENDBRANCH  11  19
ENDBRANCH   1  14
BRANCH   3  23
ATOM     23  N   UNL     1      -8.942  -3.047   2.310  0.00  0.00    -0.329 N 
ATOM     24  H   UNL     1      -8.595  -3.362   3.159  0.00  0.00    +0.145 HD
ATOM     25  H   UNL     1      -9.736  -2.491   2.286  0.00  0.00    +0.145 HD
ENDBRANCH   3  23
BRANCH   2  26
ATOM     26  C   UNL     1      -6.792  -4.600   2.552  0.00  0.00    +0.101 C 
ATOM     27  N   UNL     1      -6.462  -4.946   3.582  0.00  0.00    -0.191 NA
ENDBRANCH   2  26
TORSDOF 7
