REMARK  Name = ZINC55843536
REMARK  8 active torsions:
REMARK  status: ('A' for Active; 'I' for Inactive)
REMARK    1  A    between atoms: C_1  and  C_2
REMARK    2  A    between atoms: C_15  and  C_17
REMARK    3  A    between atoms: C_17  and  N_18
REMARK    4  A    between atoms: N_18  and  C_19
REMARK    5  A    between atoms: C_24  and  O_25
REMARK    6  A    between atoms: O_25  and  C_26
REMARK    7  A    between atoms: C_26  and  C_27
REMARK    8  A    between atoms: C_26  and  C_28
REMARK                            x       y       z     vdW  Elec       q    Type
REMARK                         _______ _______ _______ _____ _____    ______ ____
ROOT
ATOM      1  C   UNL     1      -0.139   2.660   0.909  0.00  0.00    +0.029 C 
ATOM      2  C   UNL     1      -0.065   1.157   0.628  0.00  0.00    +0.087 C 
ATOM      3  C   UNL     1       0.671   0.923  -0.692  0.00  0.00    +0.118 C 
ATOM      4  C   UNL     1       1.102  -0.516  -0.796  0.00  0.00    +0.219 C 
ATOM      5  O   UNL     1       0.498  -1.275  -1.523  0.00  0.00    -0.275 OA
ATOM      6  N   UNL     1       2.159  -0.966  -0.085  0.00  0.00    -0.284 N 
ATOM      7  C   UNL     1       2.807  -0.128   0.830  0.00  0.00    +0.055 A 
ATOM      8  C   UNL     1       4.186   0.001   0.822  0.00  0.00    +0.025 A 
ATOM      9  C   UNL     1       4.806   0.817   1.751  0.00  0.00    +0.002 A 
ATOM     10  C   UNL     1       4.055   1.501   2.689  0.00  0.00    +0.002 A 
ATOM     11  C   UNL     1       2.677   1.384   2.698  0.00  0.00    +0.025 A 
ATOM     12  C   UNL     1       2.047   0.579   1.763  0.00  0.00    +0.058 A 
ATOM     13  N   UNL     1       0.650   0.493   1.720  0.00  0.00    -0.265 N 
ATOM     14  C   UNL     1      -0.023  -0.189   2.667  0.00  0.00    +0.237 C 
ATOM     15  O   UNL     1      -1.233  -0.256   2.621  0.00  0.00    -0.274 OA
ATOM     16  H   UNL     1       2.470  -1.876  -0.209  0.00  0.00    +0.155 HD
ENDROOT
BRANCH  14  17
ATOM     17  C   UNL     1       0.728  -0.867   3.784  0.00  0.00    +0.198 C 
BRANCH  17  18
ATOM     18  N   UNL     1      -0.223  -1.535   4.676  0.00  0.00    -0.333 N 
ATOM     19  H   UNL     1      -1.175  -1.490   4.492  0.00  0.00    +0.147 HD
BRANCH  18  20
ATOM     20  C   UNL     1       0.241  -2.237   5.794  0.00  0.00    +0.070 A 
ATOM     21  C   UNL     1       1.601  -2.298   6.062  0.00  0.00    +0.026 A 
ATOM     22  C   UNL     1       2.057  -2.992   7.167  0.00  0.00    +0.002 A 
ATOM     23  C   UNL     1       1.161  -3.627   8.007  0.00  0.00    +0.004 A 
ATOM     24  C   UNL     1      -0.196  -3.571   7.746  0.00  0.00    +0.047 A 
ATOM     25  C   UNL     1      -0.662  -2.873   6.644  0.00  0.00    +0.142 A 
BRANCH  25  26
ATOM     26  O   UNL     1      -1.996  -2.813   6.389  0.00  0.00    -0.488 OA
BRANCH  26  27
ATOM     27  C   UNL     1      -2.870  -3.389   7.363  0.00  0.00    +0.167 C 
ATOM     28  C   UNL     1      -4.245  -2.725   7.270  0.00  0.00    +0.051 C 
ATOM     29  C   UNL     1      -3.009  -4.889   7.099  0.00  0.00    +0.051 C 
ENDBRANCH  26  27
ENDBRANCH  25  26
ENDBRANCH  18  20
ENDBRANCH  17  18
ENDBRANCH  14  17
TORSDOF 5
