REMARK  Name = ZINC33121166
REMARK  13 active torsions:
REMARK  status: ('A' for Active; 'I' for Inactive)
REMARK    1  A    between atoms: C_1  and  C_2
REMARK    2  A    between atoms: C_2  and  C_3
REMARK    3  A    between atoms: C_3  and  C_5
REMARK    4  A    between atoms: C_3  and  N_6
REMARK    5  A    between atoms: C_7  and  C_9
REMARK    6  A    between atoms: C_11  and  N_21
REMARK    7  A    between atoms: C_14  and  N_15
REMARK    8  A    between atoms: N_21  and  S_22
REMARK    9  A    between atoms: S_22  and  C_25
REMARK   10  A    between atoms: C_28  and  C_31
REMARK   11  A    between atoms: C_31  and  C_32
REMARK   12  A    between atoms: C_32  and  C_33
REMARK   13  A    between atoms: C_32  and  C_34
REMARK                            x       y       z     vdW  Elec       q    Type
REMARK                         _______ _______ _______ _____ _____    ______ ____
ROOT
ATOM      1  C   UNL     1       0.678  -2.486   2.587  0.00  0.00    +0.059 A 
ATOM      2  C   UNL     1       0.070  -1.849   1.502  0.00  0.00    +0.039 A 
ATOM      3  C   UNL     1       0.594  -0.664   1.018  0.00  0.00    +0.049 A 
ATOM      4  C   UNL     1       1.727  -0.108   1.603  0.00  0.00    +0.026 A 
ATOM      5  C   UNL     1       2.331  -0.728   2.678  0.00  0.00    +0.026 A 
ATOM      6  C   UNL     1       1.817  -1.918   3.176  0.00  0.00    +0.042 A 
ENDROOT
BRANCH   6   7
ATOM      7  N   UNL     1       2.430  -2.545   4.257  0.00  0.00    -0.333 N 
ATOM      8  C   UNL     1       3.827  -2.880   3.948  0.00  0.00    +0.086 C 
ATOM      9  C   UNL     1       4.441  -3.636   5.129  0.00  0.00    -0.063 C 
ATOM     10  N   UNL     1       4.356  -2.804   6.337  0.00  0.00    +0.381 N 
ATOM     11  C   UNL     1       2.959  -2.469   6.646  0.00  0.00    -0.063 C 
ATOM     12  C   UNL     1       2.346  -1.713   5.465  0.00  0.00    +0.086 C 
ATOM     13  H   UNL     1       4.785  -3.351   7.190  0.00  0.00    -0.086 HD
ATOM     14  H   UNL     1       4.918  -1.871   6.180  0.00  0.00    -0.086 HD
ENDBRANCH   6   7
BRANCH   1  16
ATOM     15  N   UNL     1      -1.032  -4.234   2.616  0.00  0.00    -0.309 N 
ATOM     16  C   UNL     1       0.125  -3.749   3.109  0.00  0.00    +0.246 C 
ATOM     17  O   UNL     1       0.714  -4.354   3.985  0.00  0.00    -0.270 OA
ATOM     18  H   UNL     1      -1.564  -3.687   1.824  0.00  0.00    +0.149 HD
BRANCH  15  19
ATOM     19  C   UNL     1      -1.581  -5.489   3.135  0.00  0.00    +0.070 C 
ATOM     20  C   UNL     1      -2.406  -5.203   4.392  0.00  0.00    +0.028 C 
BRANCH  19  22
ATOM     21  C   UNL     1      -1.625  -6.531   0.865  0.00  0.00    +0.005 C 
ATOM     22  C   UNL     1      -2.475  -6.132   2.074  0.00  0.00    +0.018 C 
ENDBRANCH  19  22
ENDBRANCH  15  19
ENDBRANCH   1  16
BRANCH   3  23
ATOM     23  N   UNL     1      -0.015  -0.025  -0.070  0.00  0.00    -0.216 N 
ATOM     24  H   UNL     1       0.462  -0.052  -1.061  0.00  0.00    +0.174 HD
BRANCH  23  25
ATOM     25  S   UNL     1      -1.451   0.773   0.137  0.00  0.00    +0.072 S 
ATOM     26  O   UNL     1      -1.776   1.357  -1.117  0.00  0.00    -0.150 OA
ATOM     27  O   UNL     1      -2.323  -0.128   0.806  0.00  0.00    -0.150 OA
BRANCH  25  28
ATOM     28  C   UNL     1      -1.152   2.105   1.250  0.00  0.00    +0.109 A 
ATOM     29  C   UNL     1      -1.211   1.892   2.615  0.00  0.00    +0.029 A 
ATOM     30  C   UNL     1      -0.972   2.937   3.489  0.00  0.00    +0.005 A 
ATOM     31  C   UNL     1      -0.683   4.196   2.998  0.00  0.00    -0.047 A 
ATOM     32  C   UNL     1      -0.630   4.410   1.633  0.00  0.00    +0.005 A 
ATOM     33  C   UNL     1      -0.864   3.365   0.759  0.00  0.00    +0.029 A 
BRANCH  31  34
ATOM     34  C   UNL     1      -0.426   5.336   3.950  0.00  0.00    +0.038 C 
BRANCH  34  35
ATOM     35  C   UNL     1      -1.746   6.042   4.267  0.00  0.00    -0.013 C 
ATOM     36  C   UNL     1      -2.669   5.084   5.023  0.00  0.00    +0.007 C 
ATOM     37  C   UNL     1      -1.470   7.273   5.133  0.00  0.00    +0.007 C 
ENDBRANCH  34  35
ENDBRANCH  31  34
ENDBRANCH  25  28
ENDBRANCH  23  25
ENDBRANCH   3  23
TORSDOF 9
