REMARK  Name = ZINC01713365
REMARK  7 active torsions:
REMARK  status: ('A' for Active; 'I' for Inactive)
REMARK    1  A    between atoms: C_1  and  C_2
REMARK    2  A    between atoms: C_7  and  C_8
REMARK    3  A    between atoms: N_9  and  C1*_12
REMARK    4  A    between atoms: C2*_14  and  O2*_24
REMARK    5  A    between atoms: C3*_16  and  O3*_23
REMARK    6  A    between atoms: C4*_18  and  C5*_21
REMARK    7  A    between atoms: C5*_21  and  O5*_22
REMARK                            x       y       z     vdW  Elec       q    Type
REMARK                         _______ _______ _______ _____ _____    ______ ____
ROOT
ATOM      1  C1* UNL     1      -2.519   1.351   0.020  0.00  0.00    +0.252 C 
ATOM      2  C2* UNL     1      -3.046   1.279   1.470  0.00  0.00    +0.195 C 
ATOM      3  C3* UNL     1      -3.874  -0.035   1.454  0.00  0.00    +0.178 C 
ATOM      4  C4* UNL     1      -3.044  -0.895   0.469  0.00  0.00    +0.177 C 
ATOM      5  O4* UNL     1      -2.568   0.027  -0.524  0.00  0.00    -0.346 OA
ENDROOT
BRANCH   1  14
ATOM      6  C   UNL     1       1.459   6.830   0.024  0.00  0.00    +0.044 C 
ATOM      7  C   UNL     1       0.694   5.532   0.024  0.00  0.00    -0.045 A 
ATOM      8  C   UNL     1       1.373   4.346   0.012  0.00  0.00    +0.033 A 
ATOM      9  C   UNL     1       0.668   3.140   0.013  0.00  0.00    +0.089 A 
ATOM     10  C   UNL     1      -0.738   3.161   0.026  0.00  0.00    +0.071 A 
ATOM     11  C   UNL     1      -1.410   4.375   0.039  0.00  0.00    +0.031 A 
ATOM     12  C   UNL     1      -0.693   5.553   0.038  0.00  0.00    -0.045 A 
ATOM     13  C   UNL     1      -1.422   6.872   0.051  0.00  0.00    +0.044 C 
ATOM     14  N   UNL     1      -1.138   1.840   0.017  0.00  0.00    -0.301 N 
ATOM     15  C   UNL     1      -0.013   1.076   0.008  0.00  0.00    +0.202 A 
ATOM     16  N   UNL     1       1.044   1.835   0.002  0.00  0.00    -0.236 NA
ENDBRANCH   1  14
BRANCH   3  17
ATOM     17  O3* UNL     1      -3.916  -0.633   2.751  0.00  0.00    -0.386 OA
ATOM     18  H3* UNL     1      -4.330  -1.506   2.768  0.00  0.00    +0.210 HD
ENDBRANCH   3  17
BRANCH   2  19
ATOM     19  O2* UNL     1      -3.878   2.402   1.765  0.00  0.00    -0.385 OA
ATOM     20  H2* UNL     1      -4.234   2.402   2.664  0.00  0.00    +0.210 HD
ENDBRANCH   2  19
BRANCH   4  21
ATOM     21  C5* UNL     1      -3.928  -1.963  -0.179  0.00  0.00    +0.190 C 
BRANCH  21  22
ATOM     22  O5* UNL     1      -3.134  -2.777  -1.045  0.00  0.00    -0.392 OA
ATOM     23  H5* UNL     1      -3.630  -3.477  -1.490  0.00  0.00    +0.210 HD
ENDBRANCH  21  22
ENDBRANCH   4  21
TORSDOF 5
