REMARK  Name = ZINC19320759
REMARK  6 active torsions:
REMARK  status: ('A' for Active; 'I' for Inactive)
REMARK    1  A    between atoms: C_1  and  C_2
REMARK    2  A    between atoms: C_6  and  C_27
REMARK    3  A    between atoms: C_8  and  N_9
REMARK    4  A    between atoms: N_13  and  C_16
REMARK    5  A    between atoms: C_16  and  C_17
REMARK    6  A    between atoms: C_17  and  C_18
REMARK                            x       y       z     vdW  Elec       q    Type
REMARK                         _______ _______ _______ _____ _____    ______ ____
ROOT
ATOM      1  N   UNL     1       0.085  -4.812   3.438  0.00  0.00    -0.181 NA
ATOM      2  C   UNL     1       0.103  -6.129   3.423  0.00  0.00    +0.185 C 
ATOM      3  N   UNL     1       0.113  -6.849   2.243  0.00  0.00    -0.304 N 
ATOM      4  C   UNL     1      -0.727  -8.056   2.188  0.00  0.00    +0.193 C 
ATOM      5  N   UNL     1      -0.470  -8.865   3.390  0.00  0.00    -0.271 NA
ATOM      6  C   UNL     1      -0.725  -8.085   4.612  0.00  0.00    +0.193 C 
ATOM      7  N   UNL     1       0.120  -6.877   4.585  0.00  0.00    -0.304 N 
ATOM      8  H   UNL     1       0.661  -6.616   5.346  0.00  0.00    +0.150 HD
ATOM      9  H   UNL     1       0.650  -6.570   1.484  0.00  0.00    +0.150 HD
ENDROOT
BRANCH   1  17
ATOM     10  C   UNL     1      -0.018   1.503   0.010  0.00  0.00    +0.044 C 
ATOM     11  C   UNL     1       0.002  -0.004   0.002  0.00  0.00    -0.048 A 
ATOM     12  C   UNL     1       0.005  -0.683  -1.214  0.00  0.00    +0.004 A 
ATOM     13  C   UNL     1       0.023  -2.045  -1.258  0.00  0.00    +0.012 A 
ATOM     14  C   UNL     1       0.039  -2.774  -0.060  0.00  0.00    +0.022 A 
ATOM     15  C   UNL     1       0.058  -4.182  -0.044  0.00  0.00    +0.051 A 
ATOM     16  N   UNL     1       0.073  -4.798   1.117  0.00  0.00    -0.215 NA
ATOM     17  C   UNL     1       0.069  -4.118   2.269  0.00  0.00    +0.254 A 
ATOM     18  N   UNL     1       0.051  -2.794   2.313  0.00  0.00    -0.211 NA
ATOM     19  C   UNL     1       0.036  -2.084   1.180  0.00  0.00    +0.077 A 
ATOM     20  C   UNL     1       0.022  -0.681   1.184  0.00  0.00    +0.032 A 
ATOM     21  C   UNL     1       0.062  -4.966  -1.331  0.00  0.00    +0.066 C 
ENDBRANCH   1  17
BRANCH   5  22
ATOM     22  C   UNL     1      -1.269 -10.098   3.376  0.00  0.00    +0.092 C 
BRANCH  22  23
ATOM     23  C   UNL     1      -0.799 -11.023   4.500  0.00  0.00    +0.050 C 
BRANCH  23  24
ATOM     24  C   UNL     1      -1.619 -12.287   4.486  0.00  0.00    -0.046 A 
ATOM     25  C   UNL     1      -2.788 -12.362   5.219  0.00  0.00    +0.003 A 
ATOM     26  C   UNL     1      -3.539 -13.522   5.206  0.00  0.00    +0.000 A 
ATOM     27  C   UNL     1      -3.122 -14.607   4.459  0.00  0.00    +0.000 A 
ATOM     28  C   UNL     1      -1.953 -14.533   3.725  0.00  0.00    +0.000 A 
ATOM     29  C   UNL     1      -1.204 -13.371   3.735  0.00  0.00    +0.003 A 
ENDBRANCH  23  24
ENDBRANCH  22  23
ENDBRANCH   5  22
TORSDOF 4
