REMARK  Name = ZINC54617797
REMARK  9 active torsions:
REMARK  status: ('A' for Active; 'I' for Inactive)
REMARK    1  A    between atoms: C_1  and  C_2
REMARK    2  A    between atoms: C_2  and  S_3
REMARK    3  A    between atoms: S_3  and  C_4
REMARK    4  A    between atoms: C_9  and  C_26
REMARK    5  A    between atoms: C_11  and  C_15
REMARK    6  A    between atoms: C_12  and  C_14
REMARK    7  A    between atoms: N_17  and  C_18
REMARK    8  A    between atoms: C_22  and  C_25
REMARK    9  A    between atoms: C_23  and  C_24
REMARK                            x       y       z     vdW  Elec       q    Type
REMARK                         _______ _______ _______ _____ _____    ______ ____
ROOT
ATOM      1  C   UNL     1       0.566  -2.357  -1.427  0.00  0.00    +0.210 A 
ATOM      2  N   UNL     1       0.055  -3.057  -0.403  0.00  0.00    -0.187 NA
ATOM      3  C   UNL     1       0.237  -4.332  -0.612  0.00  0.00    +0.219 A 
ATOM      4  N   UNL     1       0.886  -4.477  -1.794  0.00  0.00    -0.220 N 
ATOM      5  N   UNL     1       1.079  -3.193  -2.303  0.00  0.00    -0.141 NA
ATOM      6  C   UNL     1       1.270  -5.771  -2.353  0.00  0.00    +0.179 C 
ATOM      7  C   UNL     1       0.584  -6.870  -1.586  0.00  0.00    +0.060 C 
ATOM      8  C   UNL     1      -0.047  -6.667  -0.421  0.00  0.00    +0.018 C 
ATOM      9  N   UNL     1      -0.126  -5.426   0.162  0.00  0.00    -0.287 N 
ATOM     10  C   UNL     1      -0.691  -7.840   0.273  0.00  0.00    +0.061 C 
ATOM     11  H   UNL     1      -0.423  -5.317   1.079  0.00  0.00    +0.155 HD
ENDROOT
BRANCH   6  12
ATOM     12  C   UNL     1       2.763  -5.940  -2.248  0.00  0.00    +0.007 A 
ATOM     13  C   UNL     1       3.489  -5.944  -1.118  0.00  0.00    +0.089 A 
ATOM     14  N   UNL     1       4.813  -6.122  -1.415  0.00  0.00    -0.360 N 
ATOM     15  H   UNL     1       5.530  -6.160  -0.763  0.00  0.00    +0.165 HD
ATOM     16  C   UNL     1       4.975  -6.241  -2.777  0.00  0.00    +0.047 A 
ATOM     17  C   UNL     1       3.698  -6.138  -3.358  0.00  0.00    +0.005 A 
ATOM     18  C   UNL     1       3.553  -6.229  -4.744  0.00  0.00    +0.010 A 
ATOM     19  C   UNL     1       4.655  -6.421  -5.529  0.00  0.00    +0.001 A 
ATOM     20  C   UNL     1       5.917  -6.527  -4.961  0.00  0.00    +0.002 A 
ATOM     21  C   UNL     1       6.083  -6.431  -3.596  0.00  0.00    +0.026 A 
ENDBRANCH   6  12
BRANCH   7  22
ATOM     22  C   UNL     1       0.607  -8.180  -2.121  0.00  0.00    +0.248 C 
ATOM     23  O   UNL     1      -0.169  -8.489  -3.008  0.00  0.00    -0.270 OA
ATOM     24  N   UNL     1       1.486  -9.086  -1.649  0.00  0.00    -0.281 N 
ATOM     25  H   UNL     1       2.060  -8.860  -0.900  0.00  0.00    +0.155 HD
BRANCH  24  26
ATOM     26  C   UNL     1       1.573 -10.350  -2.240  0.00  0.00    +0.037 A 
ATOM     27  C   UNL     1       0.431 -10.964  -2.741  0.00  0.00    +0.023 A 
ATOM     28  C   UNL     1       0.520 -12.213  -3.324  0.00  0.00    +0.002 A 
ATOM     29  C   UNL     1       1.743 -12.852  -3.409  0.00  0.00    +0.004 A 
ATOM     30  C   UNL     1       2.881 -12.245  -2.911  0.00  0.00    -0.046 A 
ATOM     31  C   UNL     1       2.800 -10.993  -2.332  0.00  0.00    -0.026 A 
ATOM     32  C   UNL     1       4.042 -10.329  -1.795  0.00  0.00    +0.046 C 
ATOM     33  C   UNL     1       4.212 -12.946  -3.006  0.00  0.00    +0.044 C 
ENDBRANCH  24  26
ENDBRANCH   7  22
BRANCH   1  34
ATOM     34  S   UNL     1       0.547  -0.602  -1.576  0.00  0.00    -0.085 S 
BRANCH  34  36
ATOM     35  C   UNL     1      -0.371   1.486  -0.067  0.00  0.00    +0.016 C 
ATOM     36  C   UNL     1      -0.286  -0.041  -0.066  0.00  0.00    +0.074 C 
ENDBRANCH  34  36
ENDBRANCH   1  34
TORSDOF 5
