REMARK  Name = ZINC59506470
REMARK  9 active torsions:
REMARK  status: ('A' for Active; 'I' for Inactive)
REMARK    1  A    between atoms: C_1  and  C_2
REMARK    2  A    between atoms: C_2  and  O_3
REMARK    3  A    between atoms: O_3  and  C_4
REMARK    4  A    between atoms: C_11  and  S_13
REMARK    5  A    between atoms: S_13  and  C_14
REMARK    6  A    between atoms: C_17  and  C_19
REMARK    7  A    between atoms: N_20  and  N_21
REMARK    8  A    between atoms: C_22  and  C_24
REMARK    9  A    between atoms: C_33  and  O_34
REMARK                            x       y       z     vdW  Elec       q    Type
REMARK                         _______ _______ _______ _____ _____    ______ ____
ROOT
ATOM      1  C   UNL     1       1.391  -8.975  -2.298  0.00  0.00    +0.169 A 
ATOM      2  C   UNL     1       1.394 -10.335  -2.271  0.00  0.00    +0.057 A 
ATOM      3  C   UNL     1       0.727 -10.724  -1.099  0.00  0.00    +0.052 A 
ATOM      4  C   UNL     1       0.345  -9.578  -0.461  0.00  0.00    +0.149 A 
ATOM      5  O   UNL     1       0.761  -8.526  -1.199  0.00  0.00    -0.447 OA
ENDROOT
BRANCH   4   6
ATOM      6  C   UNL     1      -0.383  -9.503   0.806  0.00  0.00    +0.176 C 
ATOM      7  N   UNL     1      -0.690  -8.343   1.313  0.00  0.00    -0.184 NA
BRANCH   7   8
ATOM      8  N   UNL     1      -1.388  -8.271   2.526  0.00  0.00    -0.203 N 
ATOM      9  C   UNL     1      -1.705  -7.071   3.050  0.00  0.00    +0.267 C 
ATOM     10  O   UNL     1      -1.386  -6.050   2.471  0.00  0.00    -0.268 OA
ATOM     11  H   UNL     1      -1.642  -9.085   2.988  0.00  0.00    +0.178 HD
BRANCH   9  12
ATOM     12  C   UNL     1      -2.440  -6.995   4.327  0.00  0.00    +0.080 A 
ATOM     13  C   UNL     1      -2.797  -8.160   4.987  0.00  0.00    +0.025 A 
ATOM     14  C   UNL     1      -3.495  -8.082   6.200  0.00  0.00    -0.017 A 
ATOM     15  C   UNL     1      -3.872  -9.245   6.896  0.00  0.00    +0.008 A 
ATOM     16  C   UNL     1      -4.549  -9.136   8.072  0.00  0.00    +0.001 A 
ATOM     17  C   UNL     1      -4.875  -7.888   8.599  0.00  0.00    +0.001 A 
ATOM     18  C   UNL     1      -4.527  -6.741   7.954  0.00  0.00    +0.008 A 
ATOM     19  C   UNL     1      -3.827  -6.811   6.737  0.00  0.00    -0.014 A 
ATOM     20  C   UNL     1      -3.454  -5.645   6.049  0.00  0.00    +0.054 A 
ATOM     21  C   UNL     1      -2.770  -5.736   4.873  0.00  0.00    +0.130 A 
BRANCH  21  22
ATOM     22  O   UNL     1      -2.408  -4.604   4.217  0.00  0.00    -0.506 OA
ATOM     23  H   UNL     1      -3.069  -4.286   3.587  0.00  0.00    +0.292 HD
ENDBRANCH  21  22
ENDBRANCH   9  12
ENDBRANCH   7   8
ENDBRANCH   4   6
BRANCH   1  24
ATOM     24  S   UNL     1       2.102  -7.970  -3.559  0.00  0.00    -0.025 S 
BRANCH  24  32
ATOM     25  C   UNL     1       0.777  -1.811  -1.336  0.00  0.00    +0.122 A 
ATOM     26  C   UNL     1       0.244  -2.679  -0.388  0.00  0.00    +0.048 A 
ATOM     27  C   UNL     1       0.338  -4.038  -0.531  0.00  0.00    +0.032 A 
ATOM     28  C   UNL     1       0.984  -4.606  -1.653  0.00  0.00    +0.080 A 
ATOM     29  C   UNL     1       1.514  -3.696  -2.596  0.00  0.00    +0.043 A 
ATOM     30  C   UNL     1       1.413  -2.335  -2.452  0.00  0.00    +0.062 A 
ATOM     31  S   UNL     1       2.218  -4.781  -3.814  0.00  0.00    -0.060 S 
ATOM     32  C   UNL     1       1.781  -6.323  -3.023  0.00  0.00    +0.143 A 
ATOM     33  N   UNL     1       1.159  -5.915  -1.940  0.00  0.00    -0.232 NA
BRANCH  25  34
ATOM     34  O   UNL     1       0.671  -0.465  -1.174  0.00  0.00    -0.492 OA
BRANCH  34  36
ATOM     35  C   UNL     1      -0.019   1.526   0.010  0.00  0.00    +0.048 C 
ATOM     36  C   UNL     1       0.002  -0.004   0.002  0.00  0.00    +0.225 C 
ENDBRANCH  34  36
ENDBRANCH  25  34
ENDBRANCH  24  32
ENDBRANCH   1  24
TORSDOF 8
