REMARK  Name = ZINC22064423
REMARK  4 active torsions:
REMARK  status: ('A' for Active; 'I' for Inactive)
REMARK    1  A    between atoms: C_1  and  O_2
REMARK    2  A    between atoms: O_2  and  C_3
REMARK    3  A    between atoms: C_3  and  C_4
REMARK    4  A    between atoms: C_7  and  C_10
REMARK                            x       y       z     vdW  Elec       q    Type
REMARK                         _______ _______ _______ _____ _____    ______ ____
ROOT
ATOM      1  C   UNL     1      -2.706   2.942   4.742  0.00  0.00    +0.251 C 
ATOM      2  O   UNL     1      -3.628   2.300   5.208  0.00  0.00    -0.270 OA
ATOM      3  N   UNL     1      -2.294   4.070   5.354  0.00  0.00    -0.257 N 
ATOM      4  C   UNL     1      -1.226   4.899   4.776  0.00  0.00    +0.210 C 
ATOM      5  C   UNL     1      -0.304   5.355   5.873  0.00  0.00    +0.235 C 
ATOM      6  O   UNL     1       0.862   5.575   5.621  0.00  0.00    -0.274 OA
ATOM      7  N   UNL     1      -0.755   5.517   7.131  0.00  0.00    -0.283 N 
ATOM      8  C   UNL     1      -2.083   5.222   7.458  0.00  0.00    +0.055 A 
ATOM      9  C   UNL     1      -2.866   4.487   6.565  0.00  0.00    +0.058 A 
ATOM     10  C   UNL     1      -4.178   4.183   6.878  0.00  0.00    +0.025 A 
ATOM     11  C   UNL     1      -4.715   4.612   8.079  0.00  0.00    +0.002 A 
ATOM     12  C   UNL     1      -3.943   5.343   8.963  0.00  0.00    +0.002 A 
ATOM     13  C   UNL     1      -2.630   5.650   8.657  0.00  0.00    +0.025 A 
ATOM     14  H   UNL     1      -0.077   5.885   7.915  0.00  0.00    +0.155 HD
ENDROOT
BRANCH   1  18
ATOM     15  C   UNL     1      -0.785   1.629   1.189  0.00  0.00    -0.022 A 
ATOM     16  C   UNL     1      -1.096   0.716   2.181  0.00  0.00    +0.006 A 
ATOM     17  C   UNL     1      -1.716   1.137   3.340  0.00  0.00    +0.013 A 
ATOM     18  C   UNL     1      -2.038   2.485   3.506  0.00  0.00    +0.037 A 
ATOM     19  C   UNL     1      -1.726   3.400   2.498  0.00  0.00    +0.013 A 
ATOM     20  C   UNL     1      -1.102   2.967   1.347  0.00  0.00    +0.006 A 
BRANCH  15  21
ATOM     21  C   UNL     1      -0.103   1.163  -0.072  0.00  0.00    +0.194 C 
BRANCH  21  23
ATOM     22  C   UNL     1       2.059   0.812  -1.045  0.00  0.00    +0.194 C 
ATOM     23  O   UNL     1       1.314   1.234   0.099  0.00  0.00    -0.378 OA
ENDBRANCH  21  23
ENDBRANCH  15  21
ENDBRANCH   1  18
TORSDOF 3
