REMARK  Name = ZINC12928351
REMARK  11 active torsions:
REMARK  status: ('A' for Active; 'I' for Inactive)
REMARK    1  A    between atoms: C_1  and  C_2
REMARK    2  A    between atoms: C_2  and  C_3
REMARK    3  A    between atoms: C_3  and  C_4
REMARK    4  A    between atoms: C_4  and  N_5
REMARK    5  A    between atoms: C_6  and  N_37
REMARK    6  A    between atoms: C_7  and  N_14
REMARK    7  A    between atoms: N_14  and  C_15
REMARK    8  A    between atoms: C_15  and  C_16
REMARK    9  A    between atoms: C_21  and  O_22
REMARK   10  A    between atoms: O_22  and  C_23
REMARK   11  A    between atoms: C_24  and  C_26
REMARK                            x       y       z     vdW  Elec       q    Type
REMARK                         _______ _______ _______ _____ _____    ______ ____
ROOT
ATOM      1  N   UNL     1       1.087  -3.744  -5.884  0.00  0.00    -0.256 N 
ATOM      2  C   UNL     1      -0.212  -3.388  -5.933  0.00  0.00    +0.252 C 
ATOM      3  O   UNL     1      -0.771  -2.991  -4.929  0.00  0.00    -0.270 OA
ENDROOT
BRANCH   2   4
ATOM      4  C   UNL     1      -0.958  -3.481  -7.210  0.00  0.00    +0.051 A 
ATOM      5  C   UNL     1      -1.425  -4.682  -7.662  0.00  0.00    +0.083 A 
ATOM      6  C   UNL     1      -2.136  -4.750  -8.885  0.00  0.00    +0.250 A 
ATOM      7  N   UNL     1      -2.370  -3.655  -9.628  0.00  0.00    -0.322 N 
ATOM      8  C   UNL     1      -1.926  -2.413  -9.228  0.00  0.00    +0.050 A 
ATOM      9  C   UNL     1      -1.220  -2.280  -8.019  0.00  0.00    +0.011 A 
ATOM     10  C   UNL     1      -0.773  -1.022  -7.608  0.00  0.00    +0.011 A 
ATOM     11  C   UNL     1      -1.031   0.075  -8.381  0.00  0.00    +0.001 A 
ATOM     12  C   UNL     1      -1.733  -0.050  -9.571  0.00  0.00    +0.002 A 
ATOM     13  C   UNL     1      -2.171  -1.284 -10.003  0.00  0.00    +0.026 A 
ATOM     14  O   UNL     1      -2.546  -5.830  -9.273  0.00  0.00    -0.268 OA
ATOM     15  H   UNL     1      -2.861  -3.740 -10.460  0.00  0.00    +0.169 HD
ENDBRANCH   2   4
BRANCH   1  18
ATOM     16  N   UNL     1       3.050  -4.434  -2.858  0.00  0.00    -0.280 N 
ATOM     17  C   UNL     1       2.335  -4.646  -4.013  0.00  0.00    +0.127 A 
ATOM     18  C   UNL     1       1.824  -3.561  -4.698  0.00  0.00    +0.140 A 
ATOM     19  C   UNL     1       2.052  -2.267  -4.190  0.00  0.00    +0.277 A 
ATOM     20  O   UNL     1       1.612  -1.292  -4.774  0.00  0.00    -0.266 OA
ATOM     21  N   UNL     1       2.760  -2.116  -3.053  0.00  0.00    -0.273 N 
ATOM     22  H   UNL     1       2.918  -1.225  -2.702  0.00  0.00    +0.173 HD
ATOM     23  C   UNL     1       3.245  -3.185  -2.397  0.00  0.00    +0.331 A 
ATOM     24  O   UNL     1       3.876  -3.019  -1.371  0.00  0.00    -0.246 OA
BRANCH  17  25
ATOM     25  N   UNL     1       2.131  -5.921  -4.481  0.00  0.00    -0.343 N 
ATOM     26  H   UNL     1       2.571  -6.671  -4.051  0.00  0.00    +0.144 HD
ATOM     27  H   UNL     1       1.548  -6.072  -5.241  0.00  0.00    +0.144 HD
ENDBRANCH  17  25
BRANCH  16  28
ATOM     28  C   UNL     1       3.599  -5.575  -2.122  0.00  0.00    +0.128 C 
BRANCH  28  29
ATOM     29  C   UNL     1       2.570  -6.064  -1.100  0.00  0.00    +0.021 C 
BRANCH  29  31
ATOM     30  C   UNL     1       2.114  -7.746   0.691  0.00  0.00    +0.004 C 
ATOM     31  C   UNL     1       3.142  -7.256  -0.331  0.00  0.00    -0.002 C 
ENDBRANCH  29  31
ENDBRANCH  28  29
ENDBRANCH  16  28
ENDBRANCH   1  18
BRANCH   1  32
ATOM     32  C   UNL     1       1.733  -4.323  -7.065  0.00  0.00    +0.153 C 
BRANCH  32  33
ATOM     33  C   UNL     1       2.450  -3.238  -7.827  0.00  0.00    +0.012 A 
ATOM     34  C   UNL     1       1.873  -2.689  -8.956  0.00  0.00    +0.009 A 
ATOM     35  C   UNL     1       2.531  -1.694  -9.655  0.00  0.00    +0.001 A 
ATOM     36  C   UNL     1       3.768  -1.247  -9.227  0.00  0.00    +0.004 A 
ATOM     37  C   UNL     1       4.348  -1.792  -8.099  0.00  0.00    +0.046 A 
ATOM     38  C   UNL     1       3.688  -2.787  -7.392  0.00  0.00    +0.125 A 
BRANCH  38  39
ATOM     39  O   UNL     1       4.255  -3.322  -6.279  0.00  0.00    -0.495 OA
ATOM     40  C   UNL     1       5.480  -2.739  -5.831  0.00  0.00    +0.277 C 
ENDBRANCH  38  39
ENDBRANCH  32  33
ENDBRANCH   1  32
TORSDOF 9
