REMARK  Name = ZINC01783986
REMARK  4 active torsions:
REMARK  status: ('A' for Active; 'I' for Inactive)
REMARK    1  A    between atoms: C_4  and  C_7
REMARK    2  A    between atoms: C_7  and  O_9
REMARK    3  A    between atoms: O_9  and  C_10
REMARK    4  A    between atoms: C_21  and  C_23
REMARK                            x       y       z     vdW  Elec       q    Type
REMARK                         _______ _______ _______ _____ _____    ______ ____
ROOT
ATOM      1  C   UNL     1       4.956  -2.573  -0.069  0.00  0.00    +0.381 C 
ATOM      2  C   UNL     1       4.892  -4.048   0.220  0.00  0.00    +0.281 C 
ATOM      3  O   UNL     1       5.503  -4.491   1.169  0.00  0.00    -0.269 OA
ATOM      4  N   UNL     1       4.182  -4.879  -0.539  0.00  0.00    -0.280 N 
ATOM      5  C   UNL     1       3.396  -4.500  -1.617  0.00  0.00    +0.043 A 
ATOM      6  C   UNL     1       2.161  -5.137  -1.765  0.00  0.00    +0.025 A 
ATOM      7  C   UNL     1       1.327  -4.816  -2.812  0.00  0.00    +0.017 A 
ATOM      8  C   UNL     1       1.706  -3.852  -3.734  0.00  0.00    +0.019 A 
ATOM      9  C   UNL     1       2.919  -3.215  -3.603  0.00  0.00    +0.027 A 
ATOM     10  C   UNL     1       3.780  -3.530  -2.541  0.00  0.00    +0.023 A 
ATOM     11  C   UNL     1       5.058  -2.807  -2.460  0.00  0.00    +0.080 C 
ATOM     12  N   UNL     1       5.591  -2.370  -1.371  0.00  0.00    -0.232 NA
ATOM     13 BR   UNL     1       0.558  -3.414  -5.171  0.00  0.00    -0.050 Br
ATOM     14  H   UNL     1       4.216  -5.823  -0.321  0.00  0.00    +0.155 HD
ENDROOT
BRANCH  11  15
ATOM     15  C   UNL     1       5.786  -2.558  -3.726  0.00  0.00    +0.019 A 
ATOM     16  C   UNL     1       5.957  -1.255  -4.191  0.00  0.00    +0.011 A 
ATOM     17  C   UNL     1       6.636  -1.030  -5.371  0.00  0.00    +0.001 A 
ATOM     18  C   UNL     1       7.146  -2.095  -6.093  0.00  0.00    +0.001 A 
ATOM     19  C   UNL     1       6.981  -3.390  -5.638  0.00  0.00    +0.020 A 
ATOM     20  C   UNL     1       6.308  -3.628  -4.455  0.00  0.00    +0.050 A 
ATOM     21 CL   UNL     1       6.107  -5.254  -3.881  0.00  0.00    -0.083 Cl
ENDBRANCH  11  15
BRANCH   1  22
ATOM     22  O   UNL     1       3.634  -2.031  -0.092  0.00  0.00    -0.426 OA
BRANCH  22  23
ATOM     23  C   UNL     1       3.523  -0.689  -0.137  0.00  0.00    +0.341 C 
ATOM     24  O   UNL     1       4.522   0.002  -0.156  0.00  0.00    -0.245 OA
BRANCH  23  28
ATOM     25  C   UNL     1      -0.316   1.123  -0.213  0.00  0.00    +0.000 A 
ATOM     26  C   UNL     1       0.819   1.914  -0.234  0.00  0.00    +0.001 A 
ATOM     27  C   UNL     1       2.069   1.332  -0.209  0.00  0.00    +0.015 A 
ATOM     28  C   UNL     1       2.188  -0.059  -0.163  0.00  0.00    +0.059 A 
ATOM     29  C   UNL     1       1.038  -0.851  -0.142  0.00  0.00    +0.015 A 
ATOM     30  C   UNL     1      -0.206  -0.256  -0.167  0.00  0.00    +0.001 A 
ENDBRANCH  23  28
ENDBRANCH  22  23
ENDBRANCH   1  22
TORSDOF 4
