REMARK  Name = ZINC40650745
REMARK  6 active torsions:
REMARK  status: ('A' for Active; 'I' for Inactive)
REMARK    1  A    between atoms: C_1  and  C_2
REMARK    2  A    between atoms: C_5  and  C_8
REMARK    3  A    between atoms: C_8  and  N_9
REMARK    4  A    between atoms: C_11  and  N_25
REMARK    5  A    between atoms: C_12  and  N_16
REMARK    6  A    between atoms: N_16  and  C_17
REMARK                            x       y       z     vdW  Elec       q    Type
REMARK                         _______ _______ _______ _____ _____    ______ ____
ROOT
ATOM      1  N   UNL     1       1.504  -4.808  -0.953  0.00  0.00    -0.323 N 
ATOM      2  C   UNL     1       1.758  -6.149  -0.717  0.00  0.00    +0.155 A 
ATOM      3  C   UNL     1       3.060  -6.595  -0.506  0.00  0.00    +0.205 A 
ATOM      4  C   UNL     1       3.264  -7.951  -0.273  0.00  0.00    +0.159 A 
ATOM      5  N   UNL     1       2.212  -8.769  -0.258  0.00  0.00    -0.218 NA
ATOM      6  C   UNL     1       0.995  -8.309  -0.462  0.00  0.00    +0.225 A 
ATOM      7  N   UNL     1       0.761  -7.031  -0.681  0.00  0.00    -0.218 NA
ATOM      8  H   UNL     1       2.236  -4.172  -0.977  0.00  0.00    +0.148 HD
ENDROOT
BRANCH   3   9
ATOM      9  N   UNL     1       4.199  -5.649  -0.531  0.00  0.00    +0.063 N 
ATOM     10  O   UNL     1       4.553  -5.102   0.487  0.00  0.00    -0.126 OA
ATOM     11  O   UNL     1       4.776  -5.424  -1.570  0.00  0.00    -0.126 OA
ENDBRANCH   3   9
BRANCH   4  12
ATOM     12  N   UNL     1       4.542  -8.444  -0.058  0.00  0.00    -0.295 N 
ATOM     13  H   UNL     1       5.290  -7.833   0.025  0.00  0.00    +0.154 HD
BRANCH  12  14
ATOM     14  C   UNL     1       4.752  -9.824   0.040  0.00  0.00    +0.071 A 
ATOM     15  C   UNL     1       3.861 -10.707  -0.556  0.00  0.00    +0.064 A 
ATOM     16  C   UNL     1       4.072 -12.071  -0.458  0.00  0.00    +0.125 A 
ATOM     17  C   UNL     1       5.171 -12.556   0.232  0.00  0.00    +0.041 A 
ATOM     18  C   UNL     1       6.059 -11.678   0.826  0.00  0.00    +0.043 A 
ATOM     19  C   UNL     1       5.857 -10.314   0.728  0.00  0.00    +0.145 A 
ATOM     20  F   UNL     1       6.729  -9.458   1.303  0.00  0.00    -0.204 F 
ATOM     21  F   UNL     1       3.206 -12.931  -1.037  0.00  0.00    -0.205 F 
ENDBRANCH  12  14
ENDBRANCH   4  12
BRANCH   1  22
ATOM     22  C   UNL     1       0.128  -4.350  -1.167  0.00  0.00    +0.138 C 
BRANCH  22  27
ATOM     23  C   UNL     1       0.112   1.359  -2.063  0.00  0.00    +0.044 C 
ATOM     24  C   UNL     1       0.117  -0.130  -1.830  0.00  0.00    -0.050 A 
ATOM     25  C   UNL     1       0.241  -0.997  -2.899  0.00  0.00    +0.003 A 
ATOM     26  C   UNL     1       0.245  -2.363  -2.684  0.00  0.00    +0.005 A 
ATOM     27  C   UNL     1       0.125  -2.861  -1.401  0.00  0.00    -0.030 A 
ATOM     28  C   UNL     1       0.002  -1.994  -0.331  0.00  0.00    +0.005 A 
ATOM     29  C   UNL     1       0.002  -0.628  -0.545  0.00  0.00    +0.003 A 
ENDBRANCH  22  27
ENDBRANCH   1  22
TORSDOF 5
