REMARK  Name = ZINC01413663
REMARK  9 active torsions:
REMARK  status: ('A' for Active; 'I' for Inactive)
REMARK    1  A    between atoms: C_1  and  N_60
REMARK    2  A    between atoms: C_2  and  C_3
REMARK    3  A    between atoms: C_2  and  N_60
REMARK    4  A    between atoms: C_3  and  N_4
REMARK    5  A    between atoms: C_8  and  C_9
REMARK    6  A    between atoms: C_19  and  C_20
REMARK    7  A    between atoms: C_19  and  N_60
REMARK    8  A    between atoms: C_20  and  N_21
REMARK    9  A    between atoms: C_25  and  C_26
REMARK                            x       y       z     vdW  Elec       q    Type
REMARK                         _______ _______ _______ _____ _____    ______ ____
ROOT
ATOM      1  C   UNL     1      -2.735   3.122   0.735  0.00  0.00    -0.096 C 
ATOM      2  N   UNL     1      -1.741   2.949   1.814  0.00  0.00    +0.380 N 
ATOM      3  H   UNL     1      -1.922   3.644   2.549  0.00  0.00    -0.082 HD
ENDROOT
BRANCH   2   4
ATOM      4  C   UNL     1      -0.377   3.157   1.283  0.00  0.00    -0.059 C 
BRANCH   4   5
ATOM      5  C   UNL     1      -0.218   4.628   0.894  0.00  0.00    +0.099 C 
BRANCH   5   6
ATOM      6  N   UNL     1       1.137   4.855   0.385  0.00  0.00    -0.230 N 
ATOM      7  C   UNL     1       1.373   4.712  -0.908  0.00  0.00    +0.260 C 
ATOM      8  O   UNL     1       0.494   4.395  -1.688  0.00  0.00    -0.269 OA
ATOM      9  C   UNL     1       2.760   4.955  -1.358  0.00  0.00    +0.080 C 
ATOM     10  C   UNL     1       3.289   4.884  -2.605  0.00  0.00    +0.028 C 
ATOM     11  S   UNL     1       3.547   5.367   0.192  0.00  0.00    -0.026 S 
ATOM     12  C   UNL     1       2.113   5.210   1.244  0.00  0.00    +0.286 C 
ATOM     13  O   UNL     1       2.036   5.380   2.446  0.00  0.00    -0.262 OA
BRANCH  10  14
ATOM     14  C   UNL     1       4.661   5.352  -2.849  0.00  0.00    -0.024 A 
ATOM     15  C   UNL     1       5.332   6.100  -1.875  0.00  0.00    +0.009 A 
ATOM     16  C   UNL     1       6.620   6.530  -2.108  0.00  0.00    +0.020 A 
ATOM     17  C   UNL     1       7.247   6.234  -3.307  0.00  0.00    +0.041 A 
ATOM     18  C   UNL     1       6.587   5.499  -4.279  0.00  0.00    +0.020 A 
ATOM     19  C   UNL     1       5.300   5.057  -4.058  0.00  0.00    +0.009 A 
ATOM     20 CL   UNL     1       8.868   6.786  -3.595  0.00  0.00    -0.084 Cl
ENDBRANCH  10  14
ENDBRANCH   5   6
ENDBRANCH   4   5
ENDBRANCH   2   4
BRANCH   2  21
ATOM     21  C   UNL     1      -1.855   1.595   2.395  0.00  0.00    -0.059 C 
BRANCH  21  22
ATOM     22  C   UNL     1      -3.192   1.486   3.132  0.00  0.00    +0.099 C 
BRANCH  22  23
ATOM     23  N   UNL     1      -3.312   0.155   3.732  0.00  0.00    -0.230 N 
ATOM     24  C   UNL     1      -2.865  -0.043   4.961  0.00  0.00    +0.260 C 
ATOM     25  O   UNL     1      -2.355   0.853   5.607  0.00  0.00    -0.269 OA
ATOM     26  C   UNL     1      -3.014  -1.406   5.508  0.00  0.00    +0.080 C 
ATOM     27  C   UNL     1      -2.653  -1.896   6.721  0.00  0.00    +0.028 C 
ATOM     28  S   UNL     1      -3.801  -2.234   4.133  0.00  0.00    -0.026 S 
ATOM     29  C   UNL     1      -3.880  -0.840   3.020  0.00  0.00    +0.286 C 
ATOM     30  O   UNL     1      -4.334  -0.798   1.893  0.00  0.00    -0.262 OA
BRANCH  27  31
ATOM     31  C   UNL     1      -2.978  -3.282   7.080  0.00  0.00    -0.020 A 
ATOM     32  C   UNL     1      -3.799  -4.050   6.244  0.00  0.00    +0.012 A 
ATOM     33  C   UNL     1      -4.097  -5.352   6.580  0.00  0.00    +0.050 A 
ATOM     34  C   UNL     1      -3.597  -5.904   7.753  0.00  0.00    +0.166 A 
ATOM     35  C   UNL     1      -2.784  -5.143   8.594  0.00  0.00    +0.167 A 
ATOM     36  C   UNL     1      -2.474  -3.839   8.262  0.00  0.00    +0.057 A 
ATOM     37  O   UNL     1      -2.429  -5.909   9.667  0.00  0.00    -0.453 OA
ATOM     38  C   UNL     1      -3.363  -7.005   9.681  0.00  0.00    +0.466 C 
ATOM     39  O   UNL     1      -3.749  -7.144   8.301  0.00  0.00    -0.453 OA
ENDBRANCH  27  31
ENDBRANCH  22  23
ENDBRANCH  21  22
ENDBRANCH   2  21
TORSDOF 8
