REMARK  Name = ZINC21235292
REMARK  5 active torsions:
REMARK  status: ('A' for Active; 'I' for Inactive)
REMARK    1  A    between atoms: C_1  and  C_2
REMARK    2  A    between atoms: C_2  and  C_4
REMARK    3  A    between atoms: C_2  and  O_16
REMARK    4  A    between atoms: O_16  and  C_17
REMARK    5  A    between atoms: C_17  and  C_19
REMARK                            x       y       z     vdW  Elec       q    Type
REMARK                         _______ _______ _______ _____ _____    ______ ____
ROOT
ATOM      1  C   UNL     1       2.382  -4.721   1.393  0.00  0.00    +0.062 C 
ATOM      2  C   UNL     1       2.365  -4.255  -0.064  0.00  0.00    +0.259 C 
ENDROOT
BRANCH   2   3
ATOM      3  C   UNL     1       3.574  -4.799  -0.780  0.00  0.00    +0.260 C 
ATOM      4  O   UNL     1       4.487  -4.058  -1.077  0.00  0.00    -0.271 OA
ATOM      5  N   UNL     1       3.640  -6.109  -1.091  0.00  0.00    -0.268 N 
ATOM      6  C   UNL     1       2.508  -7.001  -0.808  0.00  0.00    +0.114 C 
ATOM      7  C   UNL     1       3.062  -8.287  -0.192  0.00  0.00    +0.024 C 
ATOM      8  C   UNL     1       3.964  -8.980  -1.213  0.00  0.00    +0.038 C 
ATOM      9  C   UNL     1       4.982  -8.014  -1.759  0.00  0.00    -0.026 A 
ATOM     10  C   UNL     1       4.792  -6.643  -1.685  0.00  0.00    +0.040 A 
ATOM     11  C   UNL     1       5.749  -5.779  -2.203  0.00  0.00    +0.024 A 
ATOM     12  C   UNL     1       6.892  -6.285  -2.789  0.00  0.00    +0.002 A 
ATOM     13  C   UNL     1       7.083  -7.653  -2.860  0.00  0.00    +0.000 A 
ATOM     14  C   UNL     1       6.132  -8.513  -2.347  0.00  0.00    +0.005 A 
ENDBRANCH   2   3
BRANCH   2  15
ATOM     15  O   UNL     1       2.389  -2.803  -0.108  0.00  0.00    -0.449 OA
BRANCH  15  16
ATOM     16  C   UNL     1       1.199  -2.172  -0.106  0.00  0.00    +0.340 C 
ATOM     17  O   UNL     1       0.169  -2.816  -0.068  0.00  0.00    -0.245 OA
BRANCH  16  18
ATOM     18  C   UNL     1       1.146  -0.697  -0.149  0.00  0.00    +0.059 A 
ATOM     19  C   UNL     1      -0.087  -0.040  -0.147  0.00  0.00    +0.018 A 
ATOM     20  C   UNL     1      -0.131   1.337  -0.187  0.00  0.00    +0.039 A 
ATOM     21  C   UNL     1       1.046   2.070  -0.230  0.00  0.00    +0.123 A 
ATOM     22  C   UNL     1       2.272   1.422  -0.233  0.00  0.00    +0.039 A 
ATOM     23  C   UNL     1       2.328   0.046  -0.193  0.00  0.00    +0.018 A 
ATOM     24  F   UNL     1       0.998   3.419  -0.270  0.00  0.00    -0.205 F 
ENDBRANCH  16  18
ENDBRANCH  15  16
ENDBRANCH   2  15
TORSDOF 4
