REMARK  Name = ZINC03670099
REMARK  12 active torsions:
REMARK  status: ('A' for Active; 'I' for Inactive)
REMARK    1  A    between atoms: C_1  and  C_2
REMARK    2  A    between atoms: C_2  and  O_3
REMARK    3  A    between atoms: O_3  and  C_4
REMARK    4  A    between atoms: C_4  and  C_6
REMARK    5  A    between atoms: C_6  and  C_7
REMARK    6  A    between atoms: C_6  and  N_11
REMARK    7  A    between atoms: C_6  and  N_24
REMARK    8  A    between atoms: N_11  and  C_12
REMARK    9  A    between atoms: C_13  and  C_21
REMARK   10  A    between atoms: C_25  and  C_27
REMARK   11  A    between atoms: C_27  and  O_28
REMARK   12  A    between atoms: O_28  and  C_29
REMARK                            x       y       z     vdW  Elec       q    Type
REMARK                         _______ _______ _______ _____ _____    ______ ____
ROOT
ATOM      1  C   UNL     1      -2.306   7.138  -3.057  0.00  0.00    +0.295 C 
ENDROOT
BRANCH   1   2
ATOM      2  C   UNL     1      -1.186   6.676  -3.990  0.00  0.00    +0.438 C 
ATOM      3  F   UNL     1      -0.827   5.361  -3.672  0.00  0.00    -0.166 F 
ATOM      4  F   UNL     1      -1.631   6.730  -5.315  0.00  0.00    -0.166 F 
ATOM      5  F   UNL     1      -0.076   7.513  -3.836  0.00  0.00    -0.166 F 
ENDBRANCH   1   2
BRANCH   1   6
ATOM      6  N   UNL     1      -2.582   8.558  -3.291  0.00  0.00    -0.276 N 
ATOM      7  C   UNL     1      -3.014   8.970  -4.499  0.00  0.00    +0.253 C 
ATOM      8  O   UNL     1      -3.266   8.157  -5.363  0.00  0.00    -0.272 OA
ATOM      9  H   UNL     1      -2.454   9.201  -2.576  0.00  0.00    +0.152 HD
BRANCH   7  10
ATOM     10  C   UNL     1      -3.182  10.442  -4.777  0.00  0.00    +0.324 C 
BRANCH  10  11
ATOM     11  O   UNL     1      -3.646  10.623  -6.116  0.00  0.00    -0.483 OA
BRANCH  11  12
ATOM     12  C   UNL     1      -3.851  11.901  -6.530  0.00  0.00    +0.121 A 
ATOM     13  C   UNL     1      -3.616  12.959  -5.663  0.00  0.00    +0.045 A 
ATOM     14  C   UNL     1      -3.820  14.257  -6.088  0.00  0.00    +0.004 A 
ATOM     15  C   UNL     1      -4.269  14.503  -7.373  0.00  0.00    +0.000 A 
ATOM     16  C   UNL     1      -4.509  13.451  -8.237  0.00  0.00    +0.004 A 
ATOM     17  C   UNL     1      -4.302  12.151  -7.819  0.00  0.00    +0.045 A 
ENDBRANCH  11  12
ENDBRANCH  10  11
ENDBRANCH   7  10
ENDBRANCH   1   6
BRANCH   1  18
ATOM     18  C   UNL     1      -3.551   6.333  -3.329  0.00  0.00    +0.359 C 
ATOM     19  O   UNL     1      -4.472   6.830  -3.932  0.00  0.00    -0.246 OA
BRANCH  18  20
ATOM     20  O   UNL     1      -3.636   5.064  -2.900  0.00  0.00    -0.462 OA
BRANCH  20  22
ATOM     21  C   UNL     1      -4.777   2.929  -2.635  0.00  0.00    +0.048 C 
ATOM     22  C   UNL     1      -4.865   4.349  -3.198  0.00  0.00    +0.229 C 
ENDBRANCH  20  22
ENDBRANCH  18  20
ENDBRANCH   1  18
BRANCH   1  23
ATOM     23  N   UNL     1      -1.894   6.944  -1.665  0.00  0.00    -0.301 N 
ATOM     24  H   UNL     1      -0.972   6.724  -1.458  0.00  0.00    +0.149 HD
BRANCH  23  25
ATOM     25  C   UNL     1      -2.818   7.073  -0.645  0.00  0.00    +0.080 A 
ATOM     26  C   UNL     1      -2.648   6.824   0.711  0.00  0.00    +0.068 A 
ATOM     27  C   UNL     1      -3.793   7.042   1.581  0.00  0.00    -0.023 A 
ATOM     28  C   UNL     1      -4.913   7.470   0.962  0.00  0.00    -0.005 A 
ATOM     29  S   UNL     1      -4.470   7.586  -0.748  0.00  0.00    -0.078 S 
ATOM     30  C   UNL     1      -6.235   7.776   1.596  0.00  0.00    +0.043 C 
ATOM     31  C   UNL     1      -6.245   7.174   3.009  0.00  0.00    +0.005 C 
ATOM     32  C   UNL     1      -4.944   7.558   3.720  0.00  0.00    +0.005 C 
ATOM     33  C   UNL     1      -3.766   6.816   3.088  0.00  0.00    +0.037 C 
BRANCH  26  34
ATOM     34  C   UNL     1      -1.366   6.360   1.244  0.00  0.00    +0.244 C 
ATOM     35  O   UNL     1      -0.531   7.167   1.610  0.00  0.00    -0.270 OA
ATOM     36  N   UNL     1      -1.109   5.039   1.328  0.00  0.00    -0.325 N 
ATOM     37  H   UNL     1      -1.774   4.397   1.035  0.00  0.00    +0.145 HD
ATOM     38  H   UNL     1      -0.260   4.732   1.681  0.00  0.00    +0.145 HD
ENDBRANCH  26  34
ENDBRANCH  23  25
ENDBRANCH   1  23
TORSDOF 11
