REMARK  Name = ZINC20615548
REMARK  5 active torsions:
REMARK  status: ('A' for Active; 'I' for Inactive)
REMARK    1  A    between atoms: C_1  and  C_2
REMARK    2  A    between atoms: C_6  and  N_8
REMARK    3  A    between atoms: C_11  and  C_21
REMARK    4  A    between atoms: C_13  and  C_15
REMARK    5  A    between atoms: N_18  and  C_20
REMARK                            x       y       z     vdW  Elec       q    Type
REMARK                         _______ _______ _______ _____ _____    ______ ____
ROOT
ATOM      1  N   UNL     1      -0.069   5.243   0.029  0.00  0.00    -0.274 N 
ATOM      2  C   UNL     1      -0.596   5.928  -1.049  0.00  0.00    +0.153 A 
ATOM      3  C   UNL     1      -0.599   7.335  -1.007  0.00  0.00    +0.091 A 
ATOM      4  C   UNL     1      -1.124   8.058  -2.079  0.00  0.00    +0.035 A 
ATOM      5  C   UNL     1      -1.624   7.357  -3.147  0.00  0.00    +0.040 A 
ATOM      6  C   UNL     1      -1.593   5.961  -3.130  0.00  0.00    +0.094 A 
ATOM      7  N   UNL     1      -1.088   5.295  -2.099  0.00  0.00    -0.227 NA
ATOM      8  C   UNL     1      -0.040   8.001   0.183  0.00  0.00    +0.262 A 
ATOM      9  O   UNL     1      -0.020   9.217   0.266  0.00  0.00    -0.267 OA
ATOM     10  N   UNL     1       0.445   7.236   1.172  0.00  0.00    -0.302 N 
ATOM     11  C   UNL     1       0.427   5.922   1.102  0.00  0.00    +0.167 A 
ATOM     12  S   UNL     1       1.080   4.998   2.453  0.00  0.00    -0.012 S 
ATOM     13  H   UNL     1       0.866   7.734   2.059  0.00  0.00    +0.171 HD
ENDROOT
BRANCH   1  19
ATOM     14  C   UNL     1       2.490   1.044  -0.016  0.00  0.00    +0.044 C 
ATOM     15  C   UNL     1       1.177   1.782   0.000  0.00  0.00    -0.048 A 
ATOM     16  C   UNL     1      -0.013   1.076   0.008  0.00  0.00    +0.003 A 
ATOM     17  C   UNL     1      -1.220   1.749   0.017  0.00  0.00    +0.002 A 
ATOM     18  C   UNL     1      -1.242   3.130   0.031  0.00  0.00    +0.026 A 
ATOM     19  C   UNL     1      -0.050   3.842   0.023  0.00  0.00    +0.051 A 
ATOM     20  C   UNL     1       1.161   3.163   0.007  0.00  0.00    +0.029 A 
ENDBRANCH   1  19
BRANCH   6  21
ATOM     21  C   UNL     1      -2.134   5.209  -4.287  0.00  0.00    +0.111 A 
ATOM     22  C   UNL     1      -2.174   3.806  -4.418  0.00  0.00    +0.051 A 
ATOM     23  C   UNL     1      -2.740   3.518  -5.610  0.00  0.00    +0.108 A 
ATOM     24  N   UNL     1      -3.050   4.684  -6.218  0.00  0.00    -0.274 N 
ATOM     25  N   UNL     1      -2.668   5.732  -5.371  0.00  0.00    -0.170 NA
ATOM     26  C   UNL     1      -3.681   4.827  -7.532  0.00  0.00    +0.172 C 
ENDBRANCH   6  21
BRANCH   4  27
ATOM     27  C   UNL     1      -1.141   9.565  -2.064  0.00  0.00    +0.372 C 
ATOM     28  F   UNL     1      -1.892  10.011  -0.971  0.00  0.00    -0.204 F 
ATOM     29  F   UNL     1       0.169  10.045  -1.957  0.00  0.00    -0.204 F 
ENDBRANCH   4  27
TORSDOF 3
