REMARK  Name = ZINC39673663
REMARK  9 active torsions:
REMARK  status: ('A' for Active; 'I' for Inactive)
REMARK    1  A    between atoms: C_1  and  C_2
REMARK    2  A    between atoms: C_2  and  C_3
REMARK    3  A    between atoms: C_3  and  C_4
REMARK    4  A    between atoms: C_4  and  C_6
REMARK    5  A    between atoms: C_4  and  N_7
REMARK    6  A    between atoms: C_8  and  C_10
REMARK    7  A    between atoms: C_21  and  C_23
REMARK    8  A    between atoms: C_24  and  C_36
REMARK    9  A    between atoms: C_27  and  C_28
REMARK                            x       y       z     vdW  Elec       q    Type
REMARK                         _______ _______ _______ _____ _____    ______ ____
ROOT
ATOM      1  C   UNL     1       2.109  -2.555  -1.043  0.00  0.00    +0.100 C 
ATOM      2  C   UNL     1       1.782  -2.198  -2.510  0.00  0.00    +0.121 C 
ATOM      3  N   UNL     1       1.764  -3.500  -3.218  0.00  0.00    -0.296 N 
ATOM      4  C   UNL     1       1.111  -4.428  -2.264  0.00  0.00    +0.115 C 
ATOM      5  C   UNL     1       1.666  -4.019  -0.885  0.00  0.00    -0.004 C 
ATOM      6  C   UNL     1       0.576  -4.130   0.176  0.00  0.00    -0.010 C 
ATOM      7  C   UNL     1       0.193  -5.602   0.356  0.00  0.00    -0.082 C 
ATOM      8  N   UNL     1       1.377  -6.371   0.760  0.00  0.00    +0.379 N 
ATOM      9  C   UNL     1       2.384  -6.336  -0.307  0.00  0.00    -0.082 C 
ATOM     10  C   UNL     1       2.860  -4.895  -0.515  0.00  0.00    -0.010 C 
ATOM     11  C   UNL     1       2.235  -3.777  -4.450  0.00  0.00    +0.252 C 
ATOM     12  O   UNL     1       2.146  -4.905  -4.895  0.00  0.00    -0.270 OA
ATOM     13  H   UNL     1       1.765  -5.972   1.601  0.00  0.00    -0.086 HD
ATOM     14  H   UNL     1       1.110  -7.328   0.937  0.00  0.00    -0.086 HD
ENDROOT
BRANCH  11  15
ATOM     15  C   UNL     1       2.859  -2.715  -5.256  0.00  0.00    +0.106 A 
ATOM     16  C   UNL     1       4.193  -2.454  -5.367  0.00  0.00    +0.147 A 
ATOM     17  O   UNL     1       4.350  -1.414  -6.189  0.00  0.00    -0.359 OA
ATOM     18  N   UNL     1       3.084  -0.972  -6.638  0.00  0.00    -0.077 NA
ATOM     19  C   UNL     1       2.163  -1.733  -6.103  0.00  0.00    +0.128 A 
ATOM     20  C   UNL     1       5.300  -3.209  -4.678  0.00  0.00    +0.090 C 
BRANCH  19  21
ATOM     21  C   UNL     1       0.699  -1.625  -6.309  0.00  0.00    +0.041 A 
ATOM     22  C   UNL     1       0.031  -0.446  -5.977  0.00  0.00    +0.052 A 
ATOM     23  C   UNL     1      -1.334  -0.352  -6.171  0.00  0.00    +0.021 A 
ATOM     24  C   UNL     1      -2.037  -1.422  -6.693  0.00  0.00    +0.003 A 
ATOM     25  C   UNL     1      -1.380  -2.594  -7.023  0.00  0.00    +0.021 A 
ATOM     26  C   UNL     1      -0.015  -2.699  -6.840  0.00  0.00    +0.052 A 
ATOM     27 CL   UNL     1       0.809  -4.167  -7.263  0.00  0.00    -0.083 Cl
ATOM     28 CL   UNL     1       0.912   0.898  -5.321  0.00  0.00    -0.083 Cl
ENDBRANCH  19  21
ENDBRANCH  11  15
BRANCH   1  30
ATOM     29  N   UNL     1       1.835  -1.377   1.115  0.00  0.00    -0.312 N 
ATOM     30  C   UNL     1       1.335  -1.669  -0.102  0.00  0.00    +0.218 C 
ATOM     31  O   UNL     1       0.261  -1.217  -0.440  0.00  0.00    -0.275 OA
ATOM     32  H   UNL     1       2.694  -1.738   1.385  0.00  0.00    +0.149 HD
BRANCH  29  33
ATOM     33  C   UNL     1       1.083  -0.515   2.029  0.00  0.00    +0.070 C 
ATOM     34  C   UNL     1       0.072  -1.359   2.809  0.00  0.00    +0.028 C 
BRANCH  33  35
ATOM     35  C   UNL     1       2.048   0.157   3.007  0.00  0.00    +0.022 C 
BRANCH  35  37
ATOM     36  C   UNL     1       3.945   1.769   3.218  0.00  0.00    +0.004 C 
ATOM     37  C   UNL     1       2.980   1.097   2.240  0.00  0.00    -0.002 C 
ENDBRANCH  35  37
ENDBRANCH  33  35
ENDBRANCH  29  33
ENDBRANCH   1  30
TORSDOF 6
