REMARK  Name = ZINC36875860
REMARK  5 active torsions:
REMARK  status: ('A' for Active; 'I' for Inactive)
REMARK    1  A    between atoms: C_4  and  C_7
REMARK    2  A    between atoms: C_7  and  N_8
REMARK    3  A    between atoms: C_11  and  N_14
REMARK    4  A    between atoms: C_15  and  C_17
REMARK    5  A    between atoms: C_17  and  N_18
REMARK                            x       y       z     vdW  Elec       q    Type
REMARK                         _______ _______ _______ _____ _____    ______ ____
ROOT
ATOM      1  N   UNL     1       7.307  -1.835   2.882  0.00  0.00    -0.313 N 
ATOM      2  C   UNL     1       8.537  -1.434   3.260  0.00  0.00    +0.231 C 
ATOM      3  O   UNL     1       8.959  -0.353   2.905  0.00  0.00    -0.274 OA
ATOM      4  H   UNL     1       6.970  -2.699   3.166  0.00  0.00    +0.149 HD
ENDROOT
BRANCH   1   8
ATOM      5  N   UNL     1       4.153  -0.953   1.342  0.00  0.00    +0.384 N 
ATOM      6  C   UNL     1       4.457   0.334   2.004  0.00  0.00    -0.077 C 
ATOM      7  C   UNL     1       5.671   0.032   2.916  0.00  0.00    +0.002 C 
ATOM      8  C   UNL     1       6.479  -0.965   2.044  0.00  0.00    +0.055 C 
ATOM      9  C   UNL     1       5.376  -1.776   1.331  0.00  0.00    -0.056 C 
ATOM     10  H   UNL     1       3.426  -1.432   1.852  0.00  0.00    -0.081 HD
BRANCH   5  11
ATOM     11  C   UNL     1       3.711  -0.707  -0.038  0.00  0.00    -0.043 C 
BRANCH  11  15
ATOM     12  C   UNL     1      -0.017   1.378   0.010  0.00  0.00    +0.000 A 
ATOM     13  C   UNL     1       1.171   2.086   0.002  0.00  0.00    +0.000 A 
ATOM     14  C   UNL     1       2.377   1.411  -0.013  0.00  0.00    +0.002 A 
ATOM     15  C   UNL     1       2.396   0.029  -0.020  0.00  0.00    -0.064 A 
ATOM     16  C   UNL     1       1.208  -0.679  -0.012  0.00  0.00    +0.002 A 
ATOM     17  C   UNL     1       0.002  -0.004   0.002  0.00  0.00    +0.000 A 
ENDBRANCH  11  15
ENDBRANCH   5  11
ENDBRANCH   1   8
BRANCH   2  18
ATOM     18  C   UNL     1       9.389  -2.329   4.123  0.00  0.00    +0.213 C 
BRANCH  18  19
ATOM     19  N   UNL     1      10.671  -1.671   4.393  0.00  0.00    -0.215 N 
ATOM     20  C   UNL     1      11.767  -1.796   3.614  0.00  0.00    +0.251 C 
ATOM     21  O   UNL     1      11.877  -2.447   2.597  0.00  0.00    -0.272 OA
ATOM     22  C   UNL     1      12.823  -0.952   4.279  0.00  0.00    +0.138 C 
ATOM     23  C   UNL     1      13.323   0.153   3.341  0.00  0.00    +0.045 C 
ATOM     24  C   UNL     1      14.592  -0.485   2.732  0.00  0.00    +0.038 C 
ATOM     25  C   UNL     1      15.057  -1.499   3.757  0.00  0.00    -0.042 A 
ATOM     26  C   UNL     1      14.033  -1.768   4.649  0.00  0.00    -0.012 A 
ATOM     27  C   UNL     1      14.238  -2.673   5.677  0.00  0.00    +0.006 A 
ATOM     28  C   UNL     1      15.457  -3.307   5.814  0.00  0.00    +0.000 A 
ATOM     29  C   UNL     1      16.479  -3.038   4.923  0.00  0.00    +0.000 A 
ATOM     30  C   UNL     1      16.278  -2.136   3.897  0.00  0.00    +0.004 A 
ATOM     31  N   UNL     1      12.161  -0.394   5.458  0.00  0.00    -0.281 N 
ATOM     32  C   UNL     1      10.899  -0.867   5.439  0.00  0.00    +0.310 C 
ATOM     33  O   UNL     1      10.062  -0.596   6.279  0.00  0.00    -0.252 OA
ATOM     34  H   UNL     1      12.551   0.199   6.119  0.00  0.00    +0.152 HD
ENDBRANCH  18  19
ENDBRANCH   2  18
TORSDOF 5
