REMARK  Name = ZINC34835455
REMARK  15 active torsions:
REMARK  status: ('A' for Active; 'I' for Inactive)
REMARK    1  A    between atoms: C_1  and  C_2
REMARK    2  A    between atoms: C_2  and  C_3
REMARK    3  A    between atoms: C_3  and  N_4
REMARK    4  A    between atoms: N_4  and  C_5
REMARK    5  A    between atoms: C_5  and  C_6
REMARK    6  A    between atoms: C_7  and  C_27
REMARK    7  A    between atoms: N_9  and  C_20
REMARK    8  A    between atoms: C_10  and  N_11
REMARK    9  A    between atoms: N_14  and  C_17
REMARK   10  A    between atoms: C_17  and  C_18
REMARK   11  A    between atoms: C_17  and  C_19
REMARK   12  A    between atoms: C_27  and  C_28
REMARK   13  A    between atoms: C_29  and  C_31
REMARK   14  A    between atoms: C_34  and  C_37
REMARK   15  A    between atoms: C_37  and  C_38
REMARK                            x       y       z     vdW  Elec       q    Type
REMARK                         _______ _______ _______ _____ _____    ______ ____
ROOT
ATOM      1  C   UNL     1       3.789  -2.882   1.353  0.00  0.00    +0.033 A 
ATOM      2  C   UNL     1       4.341  -1.623   1.605  0.00  0.00    +0.070 A 
ATOM      3  N   UNL     1       4.572  -1.522   2.890  0.00  0.00    -0.169 NA
ATOM      4  N   UNL     1       4.175  -2.715   3.507  0.00  0.00    -0.218 N 
ATOM      5  C   UNL     1       3.688  -3.540   2.541  0.00  0.00    +0.130 A 
ENDROOT
BRANCH   5   6
ATOM      6  N   UNL     1       3.184  -4.823   2.732  0.00  0.00    -0.318 N 
ATOM      7  C   UNL     1       4.067  -5.933   3.124  0.00  0.00    +0.088 C 
ATOM      8  C   UNL     1       3.447  -6.641   4.333  0.00  0.00    -0.059 C 
ATOM      9  N   UNL     1       2.073  -7.046   4.011  0.00  0.00    +0.383 N 
ATOM     10  C   UNL     1       1.243  -5.856   3.783  0.00  0.00    -0.059 C 
ATOM     11  C   UNL     1       1.752  -5.108   2.552  0.00  0.00    +0.088 C 
ATOM     12  H   UNL     1       2.078  -7.616   3.179  0.00  0.00    -0.081 HD
BRANCH   9  13
ATOM     13  C   UNL     1       1.518  -7.821   5.129  0.00  0.00    -0.075 C 
ATOM     14  C   UNL     1       0.086  -8.243   4.795  0.00  0.00    -0.014 C 
ATOM     15  C   UNL     1       2.376  -9.066   5.362  0.00  0.00    -0.014 C 
ENDBRANCH   9  13
ENDBRANCH   5   6
BRANCH   4  16
ATOM     16  C   UNL     1       4.258  -3.004   4.876  0.00  0.00    +0.068 A 
ATOM     17  C   UNL     1       3.201  -3.633   5.519  0.00  0.00    +0.030 A 
ATOM     18  C   UNL     1       3.285  -3.917   6.868  0.00  0.00    +0.040 A 
ATOM     19  C   UNL     1       4.423  -3.575   7.580  0.00  0.00    +0.124 A 
ATOM     20  C   UNL     1       5.478  -2.947   6.940  0.00  0.00    +0.040 A 
ATOM     21  C   UNL     1       5.401  -2.667   5.590  0.00  0.00    +0.030 A 
ATOM     22  F   UNL     1       4.503  -3.854   8.899  0.00  0.00    -0.205 F 
ENDBRANCH   4  16
BRANCH   2  23
ATOM     23  C   UNL     1       4.624  -0.563   0.573  0.00  0.00    +0.054 C 
ATOM     24  C   UNL     1       3.459   0.427   0.526  0.00  0.00    +0.010 C 
ENDBRANCH   2  23
BRANCH   1  25
ATOM     25  C   UNL     1       3.372  -3.414   0.006  0.00  0.00    +0.148 C 
BRANCH  25  26
ATOM     26  N   UNL     1       4.394  -4.337  -0.492  0.00  0.00    -0.293 N 
ATOM     27  C   UNL     1       5.365  -3.888  -1.312  0.00  0.00    +0.247 C 
ATOM     28  O   UNL     1       5.424  -2.708  -1.595  0.00  0.00    -0.270 OA
BRANCH  27  29
ATOM     29  C   UNL     1       6.359  -4.832  -1.868  0.00  0.00    +0.037 A 
ATOM     30  C   UNL     1       6.060  -6.193  -1.956  0.00  0.00    +0.013 A 
ATOM     31  C   UNL     1       6.991  -7.068  -2.475  0.00  0.00    +0.004 A 
ATOM     32  C   UNL     1       8.219  -6.600  -2.909  0.00  0.00    -0.048 A 
ATOM     33  C   UNL     1       8.521  -5.252  -2.825  0.00  0.00    +0.004 A 
ATOM     34  C   UNL     1       7.596  -4.365  -2.313  0.00  0.00    +0.013 A 
BRANCH  32  35
ATOM     35  C   UNL     1       9.231  -7.562  -3.476  0.00  0.00    +0.032 C 
ATOM     36  C   UNL     1       9.029  -7.683  -4.987  0.00  0.00    +0.009 C 
ENDBRANCH  32  35
ENDBRANCH  27  29
BRANCH  26  37
ATOM     37  C   UNL     1       4.362  -5.748  -0.100  0.00  0.00    +0.108 C 
BRANCH  37  39
ATOM     38  C   UNL     1       3.245  -7.949  -0.489  0.00  0.00    +0.005 C 
ATOM     39  C   UNL     1       3.279  -6.475  -0.899  0.00  0.00    +0.016 C 
ENDBRANCH  37  39
ENDBRANCH  26  37
ENDBRANCH  25  26
ENDBRANCH   1  25
TORSDOF 10
