REMARK  Name = ZINC36697468
REMARK  11 active torsions:
REMARK  status: ('A' for Active; 'I' for Inactive)
REMARK    1  A    between atoms: C_1  and  C_2
REMARK    2  A    between atoms: C_3  and  C_35
REMARK    3  A    between atoms: C_11  and  C_13
REMARK    4  A    between atoms: C_13  and  S_14
REMARK    5  A    between atoms: S_14  and  C_15
REMARK    6  A    between atoms: C_15  and  C_17
REMARK    7  A    between atoms: C_15  and  C_18
REMARK    8  A    between atoms: N_20  and  C_21
REMARK    9  A    between atoms: C_21  and  C_22
REMARK   10  A    between atoms: C_22  and  C_24
REMARK   11  A    between atoms: C_22  and  N_29
REMARK                            x       y       z     vdW  Elec       q    Type
REMARK                         _______ _______ _______ _____ _____    ______ ____
ROOT
ATOM      1  C   UNL     1      -0.379  -7.425   5.207  0.00  0.00    +0.226 C 
ATOM      2  O   UNL     1       0.052  -7.709   4.109  0.00  0.00    -0.275 OA
ATOM      3  N   UNL     1      -0.767  -8.400   6.052  0.00  0.00    -0.316 N 
ATOM      4  H   UNL     1      -1.112  -8.172   6.929  0.00  0.00    +0.149 HD
ENDROOT
BRANCH   1   5
ATOM      5  C   UNL     1      -0.480  -5.981   5.625  0.00  0.00    +0.129 C 
ATOM      6  C   UNL     1       0.770  -5.590   6.417  0.00  0.00    +0.029 C 
BRANCH   5   7
ATOM      7  S   UNL     1      -0.614  -4.932   4.151  0.00  0.00    -0.141 S 
BRANCH   7   8
ATOM      8  C   UNL     1      -0.878  -3.267   4.820  0.00  0.00    +0.144 C 
BRANCH   8  19
ATOM      9  C   UNL     1      -1.569   1.771   0.450  0.00  0.00    +0.045 C 
ATOM     10  C   UNL     1      -1.342   0.282   0.392  0.00  0.00    -0.026 A 
ATOM     11  C   UNL     1      -1.223  -0.341  -0.792  0.00  0.00    -0.008 A 
ATOM     12  S   UNL     1      -0.973  -2.047  -0.337  0.00  0.00    -0.073 S 
ATOM     13  C   UNL     1      -1.037  -1.873   1.428  0.00  0.00    +0.116 A 
ATOM     14  C   UNL     1      -1.245  -0.494   1.614  0.00  0.00    +0.075 A 
ATOM     15  C   UNL     1      -1.334  -0.059   2.976  0.00  0.00    +0.260 A 
ATOM     16  O   UNL     1      -1.518   1.116   3.240  0.00  0.00    -0.267 OA
ATOM     17  N   UNL     1      -1.212  -0.970   3.960  0.00  0.00    -0.310 N 
ATOM     18  H   UNL     1      -1.272  -0.682   4.884  0.00  0.00    +0.170 HD
ATOM     19  C   UNL     1      -1.008  -2.284   3.685  0.00  0.00    +0.121 A 
ATOM     20  N   UNL     1      -0.931  -2.713   2.453  0.00  0.00    -0.226 NA
ATOM     21  C   UNL     1      -1.285   0.258  -2.173  0.00  0.00    +0.052 C 
ENDBRANCH   8  19
ENDBRANCH   7   8
ENDBRANCH   5   7
ENDBRANCH   1   5
BRANCH   3  22
ATOM     22  C   UNL     1      -0.669  -9.804   5.645  0.00  0.00    +0.096 C 
BRANCH  22  23
ATOM     23  C   UNL     1      -1.046 -10.704   6.823  0.00  0.00    +0.016 C 
BRANCH  23  24
ATOM     24  N   UNL     1      -0.218 -10.359   7.987  0.00  0.00    +0.387 N 
ATOM     25  C   UNL     1       1.197 -10.563   7.657  0.00  0.00    -0.078 C 
ATOM     26  C   UNL     1       2.068 -10.129   8.838  0.00  0.00    -0.019 C 
ATOM     27  C   UNL     1       1.703 -10.964  10.069  0.00  0.00    -0.004 C 
ATOM     28  C   UNL     1       0.209 -10.802  10.359  0.00  0.00    -0.019 C 
ATOM     29  C   UNL     1      -0.593 -11.212   9.122  0.00  0.00    -0.078 C 
ATOM     30  H   UNL     1      -0.369  -9.392   8.230  0.00  0.00    -0.081 HD
ENDBRANCH  23  24
BRANCH  23  31
ATOM     31  C   UNL     1      -2.500 -10.504   7.163  0.00  0.00    +0.093 A 
ATOM     32  C   UNL     1      -3.512 -11.312   6.801  0.00  0.00    +0.043 A 
ATOM     33  C   UNL     1      -4.696 -10.750   7.330  0.00  0.00    +0.041 A 
ATOM     34  C   UNL     1      -4.337  -9.631   7.984  0.00  0.00    +0.195 A 
ATOM     35  O   UNL     1      -3.005  -9.490   7.885  0.00  0.00    -0.469 OA
ENDBRANCH  23  31
ENDBRANCH  22  23
ENDBRANCH   3  22
TORSDOF 8
