REMARK  Name = ZINC04611658
REMARK  9 active torsions:
REMARK  status: ('A' for Active; 'I' for Inactive)
REMARK    1  A    between atoms: C_1  and  C_2
REMARK    2  A    between atoms: C_2  and  O_3
REMARK    3  A    between atoms: O_3  and  C_4
REMARK    4  A    between atoms: C_7  and  C_10
REMARK    5  A    between atoms: C_12  and  C_19
REMARK    6  A    between atoms: C_13  and  C_18
REMARK    7  A    between atoms: C_19  and  O_21
REMARK    8  A    between atoms: O_21  and  C_22
REMARK    9  A    between atoms: C_27  and  C_29
REMARK                            x       y       z     vdW  Elec       q    Type
REMARK                         _______ _______ _______ _____ _____    ______ ____
ROOT
ATOM      1  C   UNL     1      -2.978   5.959  -2.965  0.00  0.00    +0.143 C 
ATOM      2  C   UNL     1      -3.558   4.587  -3.243  0.00  0.00    +0.078 C 
ATOM      3  C   UNL     1      -4.164   4.389  -4.433  0.00  0.00    +0.021 C 
ATOM      4  N   UNL     1      -4.246   5.392  -5.357  0.00  0.00    -0.273 N 
ATOM      5  C   UNL     1      -3.747   6.620  -5.167  0.00  0.00    +0.304 C 
ATOM      6  O   UNL     1      -3.868   7.447  -6.049  0.00  0.00    -0.252 OA
ATOM      7  N   UNL     1      -3.114   6.968  -4.029  0.00  0.00    -0.288 N 
ATOM      8  C   UNL     1      -4.759   3.041  -4.748  0.00  0.00    +0.061 C 
ATOM      9  H   UNL     1      -4.690   5.204  -6.198  0.00  0.00    +0.156 HD
ATOM     10  H   UNL     1      -2.760   7.864  -3.912  0.00  0.00    +0.151 HD
ENDROOT
BRANCH   1  14
ATOM     11  C   UNL     1       1.188   5.487  -2.140  0.00  0.00    +0.121 A 
ATOM     12  C   UNL     1       0.286   5.639  -1.097  0.00  0.00    +0.046 A 
ATOM     13  C   UNL     1      -1.060   5.792  -1.366  0.00  0.00    +0.009 A 
ATOM     14  C   UNL     1      -1.509   5.792  -2.674  0.00  0.00    -0.022 A 
ATOM     15  C   UNL     1      -0.613   5.635  -3.715  0.00  0.00    +0.009 A 
ATOM     16  C   UNL     1       0.735   5.488  -3.451  0.00  0.00    +0.046 A 
BRANCH  11  17
ATOM     17  O   UNL     1       2.513   5.337  -1.877  0.00  0.00    -0.492 OA
BRANCH  17  19
ATOM     18  C   UNL     1       4.825   5.031  -2.511  0.00  0.00    +0.048 C 
ATOM     19  C   UNL     1       3.384   5.185  -3.000  0.00  0.00    +0.225 C 
ENDBRANCH  17  19
ENDBRANCH  11  17
ENDBRANCH   1  14
BRANCH   2  20
ATOM     20  C   UNL     1      -3.472   3.549  -2.285  0.00  0.00    +0.339 C 
ATOM     21  O   UNL     1      -4.046   2.494  -2.478  0.00  0.00    -0.245 OA
BRANCH  20  22
ATOM     22  O   UNL     1      -2.755   3.730  -1.157  0.00  0.00    -0.458 OA
BRANCH  22  23
ATOM     23  C   UNL     1      -2.712   2.640  -0.233  0.00  0.00    +0.180 C 
ATOM     24  C   UNL     1      -1.500   1.732  -0.527  0.00  0.00    +0.045 C 
ATOM     25  C   UNL     1      -0.953   1.274   0.837  0.00  0.00    +0.004 C 
ATOM     26  C   UNL     1      -1.851   1.920   1.912  0.00  0.00    +0.007 C 
ATOM     27  C   UNL     1      -2.459   3.157   1.205  0.00  0.00    +0.027 C 
ATOM     28  C   UNL     1      -3.773   3.576   1.868  0.00  0.00    +0.011 C 
ENDBRANCH  22  23
ENDBRANCH  20  22
ENDBRANCH   2  20
TORSDOF 6
