REMARK  Name = ZINC40914166
REMARK  12 active torsions:
REMARK  status: ('A' for Active; 'I' for Inactive)
REMARK    1  A    between atoms: C_1  and  C_2
REMARK    2  A    between atoms: C_2  and  O_3
REMARK    3  A    between atoms: O_3  and  C_4
REMARK    4  A    between atoms: C_6  and  C_20
REMARK    5  A    between atoms: C_9  and  O_10
REMARK    6  A    between atoms: O_10  and  C_11
REMARK    7  A    between atoms: C_11  and  C_12
REMARK    8  A    between atoms: C_17  and  C_18
REMARK    9  A    between atoms: C_22  and  C_31
REMARK   10  A    between atoms: C_23  and  C_30
REMARK   11  A    between atoms: C_31  and  O_33
REMARK   12  A    between atoms: O_33  and  C_34
REMARK                            x       y       z     vdW  Elec       q    Type
REMARK                         _______ _______ _______ _____ _____    ______ ____
ROOT
ATOM      1  C   UNL     1       0.591  -1.956   1.723  0.00  0.00    +0.163 A 
ATOM      2  C   UNL     1       0.181  -2.730   0.649  0.00  0.00    +0.055 A 
ATOM      3  C   UNL     1       0.268  -4.108   0.716  0.00  0.00    -0.014 A 
ATOM      4  C   UNL     1       0.762  -4.718   1.854  0.00  0.00    +0.025 A 
ATOM      5  C   UNL     1       1.173  -3.952   2.930  0.00  0.00    +0.063 A 
ATOM      6  C   UNL     1       1.094  -2.569   2.866  0.00  0.00    +0.176 A 
ATOM      7 BR   UNL     1       1.847  -4.790   4.485  0.00  0.00    -0.046 Br
ENDROOT
BRANCH   3   8
ATOM      8  C   UNL     1      -0.178  -4.947  -0.453  0.00  0.00    +0.179 C 
ATOM      9  C   UNL     1       0.981  -5.768  -0.954  0.00  0.00    +0.082 C 
ATOM     10  C   UNL     1       1.073  -7.094  -0.769  0.00  0.00    +0.020 C 
ATOM     11  N   UNL     1       0.104  -7.811  -0.114  0.00  0.00    -0.287 N 
ATOM     12  C   UNL     1      -1.107  -7.175   0.128  0.00  0.00    +0.218 A 
ATOM     13  N   UNL     1      -1.257  -5.837  -0.031  0.00  0.00    -0.221 N 
ATOM     14  N   UNL     1      -2.583  -5.545   0.285  0.00  0.00    -0.156 NA
ATOM     15  C   UNL     1      -3.151  -6.680   0.613  0.00  0.00    +0.247 A 
ATOM     16  N   UNL     1      -2.251  -7.665   0.519  0.00  0.00    -0.201 NA
ATOM     17  C   UNL     1       2.282  -7.820  -1.300  0.00  0.00    +0.061 C 
ATOM     18  H   UNL     1       0.258  -8.725   0.170  0.00  0.00    +0.155 HD
BRANCH   9  19
ATOM     19  C   UNL     1       2.019  -5.111  -1.650  0.00  0.00    +0.339 C 
ATOM     20  O   UNL     1       1.842  -4.735  -2.794  0.00  0.00    -0.245 OA
BRANCH  19  21
ATOM     21  O   UNL     1       3.208  -4.900  -1.047  0.00  0.00    -0.465 OA
ATOM     22  C   UNL     1       4.213  -4.229  -1.811  0.00  0.00    +0.280 C 
ENDBRANCH  19  21
ENDBRANCH   9  19
ENDBRANCH   3   8
BRANCH   1  23
ATOM     23  O   UNL     1       0.506  -0.601   1.658  0.00  0.00    -0.489 OA
BRANCH  23  25
ATOM     24  C   UNL     1      -0.039   1.485   0.566  0.00  0.00    +0.048 C 
ATOM     25  C   UNL     1      -0.021  -0.041   0.454  0.00  0.00    +0.226 C 
ENDBRANCH  23  25
ENDBRANCH   1  23
BRANCH   6  26
ATOM     26  O   UNL     1       1.502  -1.814   3.921  0.00  0.00    -0.483 OA
BRANCH  26  27
ATOM     27  C   UNL     1       0.523  -1.504   4.914  0.00  0.00    +0.265 C 
BRANCH  27  28
ATOM     28  C   UNL     1       1.153  -0.666   5.997  0.00  0.00    -0.007 A 
ATOM     29  C   UNL     1       2.489  -0.318   5.912  0.00  0.00    +0.007 A 
ATOM     30  C   UNL     1       3.067   0.450   6.905  0.00  0.00    +0.000 A 
ATOM     31  C   UNL     1       2.310   0.871   7.983  0.00  0.00    +0.000 A 
ATOM     32  C   UNL     1       0.975   0.523   8.067  0.00  0.00    +0.004 A 
ATOM     33  C   UNL     1       0.396  -0.242   7.072  0.00  0.00    -0.044 A 
ATOM     34  C   UNL     1      -1.062  -0.616   7.161  0.00  0.00    +0.044 C 
ENDBRANCH  27  28
ENDBRANCH  26  27
ENDBRANCH   6  26
TORSDOF 8
