REMARK  Name = ZINC02967275
REMARK  8 active torsions:
REMARK  status: ('A' for Active; 'I' for Inactive)
REMARK    1  A    between atoms: C_9  and  C_21
REMARK    2  A    between atoms: C_14  and  S_16
REMARK    3  A    between atoms: S_16  and  C_17
REMARK    4  A    between atoms: C_17  and  C_18
REMARK    5  A    between atoms: C_21  and  C_22
REMARK    6  A    between atoms: C_22  and  C_23
REMARK    7  A    between atoms: N_25  and  C_26
REMARK    8  A    between atoms: C_26  and  C_27
REMARK                            x       y       z     vdW  Elec       q    Type
REMARK                         _______ _______ _______ _____ _____    ______ ____
ROOT
ATOM      1  C   UNL     1      -0.017   1.375   0.010  0.00  0.00    +0.001 A 
ATOM      2  C   UNL     1       1.169   2.095   0.002  0.00  0.00    +0.002 A 
ATOM      3  C   UNL     1       2.386   1.450  -0.013  0.00  0.00    +0.028 A 
ATOM      4  C   UNL     1       2.430   0.054  -0.021  0.00  0.00    +0.077 A 
ATOM      5  C   UNL     1       1.222  -0.673  -0.013  0.00  0.00    +0.041 A 
ATOM      6  C   UNL     1       0.002  -0.004   0.002  0.00  0.00    +0.013 A 
ATOM      7  C   UNL     1       1.292  -2.150  -0.022  0.00  0.00    +0.139 C 
ATOM      8  N   UNL     1       0.340  -3.041  -0.017  0.00  0.00    -0.255 NA
ATOM      9  C   UNL     1       0.967  -4.370  -0.030  0.00  0.00    +0.194 C 
ATOM     10  C   UNL     1       2.451  -4.074  -0.043  0.00  0.00    +0.251 C 
ATOM     11  O   UNL     1       3.360  -4.877  -0.057  0.00  0.00    -0.272 OA
ATOM     12  N   UNL     1       2.551  -2.725  -0.037  0.00  0.00    -0.200 N 
ATOM     13  C   UNL     1       3.670  -1.919  -0.044  0.00  0.00    +0.169 C 
ATOM     14  N   UNL     1       3.610  -0.615  -0.036  0.00  0.00    -0.225 NA
ENDROOT
BRANCH  13  15
ATOM     15  S   UNL     1       5.257  -2.685  -0.062  0.00  0.00    -0.080 S 
BRANCH  15  16
ATOM     16  C   UNL     1       6.418  -1.291  -0.067  0.00  0.00    +0.172 C 
BRANCH  16  17
ATOM     17  C   UNL     1       7.831  -1.815  -0.083  0.00  0.00    +0.221 C 
ATOM     18  O   UNL     1       8.035  -3.010  -0.090  0.00  0.00    -0.275 OA
ATOM     19  N   UNL     1       8.868  -0.954  -0.088  0.00  0.00    -0.329 N 
ATOM     20  H   UNL     1       8.705   0.002  -0.082  0.00  0.00    +0.145 HD
ATOM     21  H   UNL     1       9.778  -1.291  -0.099  0.00  0.00    +0.145 HD
ENDBRANCH  16  17
ENDBRANCH  15  16
ENDBRANCH  13  15
BRANCH   9  22
ATOM     22  C   UNL     1       0.584  -5.156   1.226  0.00  0.00    +0.045 C 
BRANCH  22  23
ATOM     23  C   UNL     1      -0.914  -5.463   1.198  0.00  0.00    +0.098 C 
BRANCH  23  24
ATOM     24  C   UNL     1      -1.291  -6.237   2.435  0.00  0.00    +0.213 C 
ATOM     25  O   UNL     1      -0.444  -6.516   3.258  0.00  0.00    -0.276 OA
ATOM     26  N   UNL     1      -2.569  -6.621   2.627  0.00  0.00    -0.311 N 
ATOM     27  H   UNL     1      -3.246  -6.398   1.969  0.00  0.00    +0.149 HD
BRANCH  26  28
ATOM     28  C   UNL     1      -2.935  -7.373   3.829  0.00  0.00    +0.139 C 
BRANCH  28  29
ATOM     29  C   UNL     1      -4.411  -7.676   3.802  0.00  0.00    -0.030 A 
ATOM     30  C   UNL     1      -5.309  -6.786   4.360  0.00  0.00    +0.008 A 
ATOM     31  C   UNL     1      -6.663  -7.062   4.335  0.00  0.00    +0.038 A 
ATOM     32  C   UNL     1      -7.119  -8.232   3.751  0.00  0.00    +0.123 A 
ATOM     33  C   UNL     1      -6.219  -9.123   3.193  0.00  0.00    +0.038 A 
ATOM     34  C   UNL     1      -4.866  -8.842   3.215  0.00  0.00    +0.008 A 
ATOM     35  F   UNL     1      -8.443  -8.504   3.727  0.00  0.00    -0.205 F 
ENDBRANCH  28  29
ENDBRANCH  26  28
ENDBRANCH  23  24
ENDBRANCH  22  23
ENDBRANCH   9  22
TORSDOF 8
