REMARK  Name = ZINC17093564
REMARK  3 active torsions:
REMARK  status: ('A' for Active; 'I' for Inactive)
REMARK    1  A    between atoms: C_4  and  C_7
REMARK    2  A    between atoms: C_28  and  C_32
REMARK    3  A    between atoms: C_29  and  N_31
REMARK                            x       y       z     vdW  Elec       q    Type
REMARK                         _______ _______ _______ _____ _____    ______ ____
ROOT
ATOM      1  C   UNL     1      -0.013   1.086   0.008  0.00  0.00    +0.034 C 
ATOM      2  C   UNL     1      -0.761   1.597  -1.225  0.00  0.00    +0.083 C 
ATOM      3  C   UNL     1      -2.187   1.099  -1.197  0.00  0.00    +0.116 C 
ATOM      4  C   UNL     1      -2.818   0.890  -0.025  0.00  0.00    +0.058 C 
ATOM      5  C   UNL     1      -2.174   1.122   1.205  0.00  0.00    +0.165 C 
ATOM      6  O   UNL     1      -2.784   0.946   2.240  0.00  0.00    -0.292 OA
ATOM      7  C   UNL     1      -0.738   1.584   1.262  0.00  0.00    +0.088 C 
ATOM      8  C   UNL     1      -4.241   0.395  -0.007  0.00  0.00    +0.144 C 
ATOM      9  C   UNL     1      -5.184   1.498   0.352  0.00  0.00    -0.001 A 
ATOM     10  C   UNL     1      -5.518   2.707  -0.218  0.00  0.00    +0.007 A 
ATOM     11  C   UNL     1      -6.476   3.475   0.441  0.00  0.00    +0.001 A 
ATOM     12  C   UNL     1      -7.079   3.062   1.620  0.00  0.00    +0.005 A 
ATOM     13  C   UNL     1      -6.748   1.857   2.192  0.00  0.00    -0.026 A 
ATOM     14  C   UNL     1      -5.791   1.088   1.531  0.00  0.00    +0.044 A 
ATOM     15  N   UNL     1      -5.331  -0.156   1.954  0.00  0.00    -0.270 N 
ATOM     16  C   UNL     1      -4.409  -0.631   1.102  0.00  0.00    +0.240 C 
ATOM     17  O   UNL     1      -3.818  -1.685   1.199  0.00  0.00    -0.274 OA
ATOM     18  C   UNL     1      -5.863  -0.764   3.186  0.00  0.00    +0.114 C 
ATOM     19  C   UNL     1      -7.285  -0.234   3.410  0.00  0.00    +0.024 C 
ATOM     20  C   UNL     1      -7.322   1.296   3.460  0.00  0.00    +0.038 C 
ATOM     21  C   UNL     1      -4.604  -0.219  -1.328  0.00  0.00    +0.110 C 
ATOM     22  C   UNL     1      -3.863   0.054  -2.431  0.00  0.00    +0.199 C 
ATOM     23  O   UNL     1      -2.802   0.874  -2.372  0.00  0.00    -0.445 OA
ENDROOT
BRANCH   1  27
ATOM     24  C   UNL     1       3.991   2.576  -0.023  0.00  0.00    +0.000 A 
ATOM     25  C   UNL     1       3.760   1.213  -0.028  0.00  0.00    +0.000 A 
ATOM     26  C   UNL     1       2.465   0.731  -0.018  0.00  0.00    +0.004 A 
ATOM     27  C   UNL     1       1.400   1.611  -0.003  0.00  0.00    -0.043 A 
ATOM     28  C   UNL     1       1.630   2.974  -0.003  0.00  0.00    +0.004 A 
ATOM     29  C   UNL     1       2.925   3.457  -0.008  0.00  0.00    +0.000 A 
ENDBRANCH   1  27
BRANCH  22  30
ATOM     30  N   UNL     1      -4.204  -0.521  -3.630  0.00  0.00    -0.328 N 
ATOM     31  H   UNL     1      -4.968  -1.116  -3.683  0.00  0.00    +0.145 HD
ATOM     32  H   UNL     1      -3.680  -0.333  -4.424  0.00  0.00    +0.145 HD
ENDBRANCH  22  30
BRANCH  21  33
ATOM     33  C   UNL     1      -5.734  -1.093  -1.423  0.00  0.00    +0.102 C 
ATOM     34  N   UNL     1      -6.631  -1.787  -1.499  0.00  0.00    -0.191 NA
ENDBRANCH  21  33
TORSDOF 3
