REMARK  Name = ZINC00644877
REMARK  7 active torsions:
REMARK  status: ('A' for Active; 'I' for Inactive)
REMARK    1  A    between atoms: C_1  and  C_2
REMARK    2  A    between atoms: C_5  and  C_8
REMARK    3  A    between atoms: C_11  and  C_13
REMARK    4  A    between atoms: C_15  and  C_28
REMARK    5  A    between atoms: C_16  and  N_27
REMARK    6  A    between atoms: C_23  and  C_25
REMARK    7  A    between atoms: C_23  and  C_26
REMARK                            x       y       z     vdW  Elec       q    Type
REMARK                         _______ _______ _______ _____ _____    ______ ____
ROOT
ATOM      1  C   UNL     1       0.002  -0.004   0.002  0.00  0.00    +0.137 C 
ATOM      2  C   UNL     1       1.346  -0.500  -0.454  0.00  0.00    +0.101 C 
ATOM      3  C   UNL     1       2.424   0.321  -0.430  0.00  0.00    +0.198 C 
ATOM      4  O   UNL     1       2.327   1.589   0.002  0.00  0.00    -0.445 OA
ATOM      5  C   UNL     1       1.131   2.206   0.003  0.00  0.00    +0.115 C 
ATOM      6  C   UNL     1      -0.018   1.505   0.010  0.00  0.00    +0.049 C 
ATOM      7  C   UNL     1      -1.270   2.151   0.032  0.00  0.00    +0.164 C 
ATOM      8  O   UNL     1      -2.285   1.485   0.028  0.00  0.00    -0.292 OA
ATOM      9  C   UNL     1      -1.372   3.652   0.053  0.00  0.00    +0.086 C 
ATOM     10  C   UNL     1      -0.124   4.222   0.738  0.00  0.00    -0.021 C 
ATOM     11  C   UNL     1       1.112   3.716  -0.009  0.00  0.00    +0.081 C 
ATOM     12  C   UNL     1      -0.075   3.750   2.192  0.00  0.00    +0.012 C 
ATOM     13  C   UNL     1      -0.162   5.751   0.694  0.00  0.00    +0.012 C 
ENDROOT
BRANCH   1  17
ATOM     14  C   UNL     1      -2.217  -0.871  -2.768  0.00  0.00    +0.135 A 
ATOM     15  C   UNL     1      -2.843  -1.541  -1.765  0.00  0.00    +0.050 A 
ATOM     16  C   UNL     1      -2.094  -1.310  -0.593  0.00  0.00    +0.046 A 
ATOM     17  C   UNL     1      -1.063  -0.513  -0.935  0.00  0.00    +0.118 A 
ATOM     18  O   UNL     1      -1.138  -0.252  -2.250  0.00  0.00    -0.459 OA
BRANCH  14  23
ATOM     19  C   UNL     1      -3.883  -0.709  -8.274  0.00  0.00    +0.044 C 
ATOM     20  C   UNL     1      -3.447  -0.751  -6.832  0.00  0.00    -0.050 A 
ATOM     21  C   UNL     1      -2.313  -0.065  -6.435  0.00  0.00    +0.004 A 
ATOM     22  C   UNL     1      -1.908  -0.099  -5.116  0.00  0.00    +0.012 A 
ATOM     23  C   UNL     1      -2.645  -0.830  -4.182  0.00  0.00    +0.017 A 
ATOM     24  C   UNL     1      -3.784  -1.524  -4.590  0.00  0.00    +0.012 A 
ATOM     25  C   UNL     1      -4.181  -1.477  -5.911  0.00  0.00    +0.004 A 
ENDBRANCH  14  23
ENDBRANCH   1  17
BRANCH   3  26
ATOM     26  N   UNL     1       3.640  -0.153  -0.854  0.00  0.00    -0.328 N 
ATOM     27  H   UNL     1       3.721  -1.067  -1.168  0.00  0.00    +0.145 HD
ATOM     28  H   UNL     1       4.418   0.426  -0.841  0.00  0.00    +0.145 HD
ENDBRANCH   3  26
BRANCH   2  29
ATOM     29  C   UNL     1       1.488  -1.847  -0.917  0.00  0.00    +0.101 C 
ATOM     30  N   UNL     1       1.601  -2.916  -1.284  0.00  0.00    -0.191 NA
ENDBRANCH   2  29
TORSDOF 4
