REMARK  Name = ZINC21222467
REMARK  7 active torsions:
REMARK  status: ('A' for Active; 'I' for Inactive)
REMARK    1  A    between atoms: C_1  and  C_2
REMARK    2  A    between atoms: C_5  and  C_7
REMARK    3  A    between atoms: C_12  and  C_17
REMARK    4  A    between atoms: C_20  and  C_23
REMARK    5  A    between atoms: C_23  and  C_24
REMARK    6  A    between atoms: C_23  and  C_25
REMARK    7  A    between atoms: C_23  and  C_26
REMARK                            x       y       z     vdW  Elec       q    Type
REMARK                         _______ _______ _______ _____ _____    ______ ____
ROOT
ATOM      1  C   UNL     1       1.735   3.249   0.003  0.00  0.00    +0.172 C 
ATOM      2  C   UNL     1       2.107   3.635  -1.409  0.00  0.00    +0.039 C 
ATOM      3  C   UNL     1       3.351   3.857  -1.863  0.00  0.00    +0.017 C 
ATOM      4  C   UNL     1       3.585   4.242  -3.315  0.00  0.00    +0.059 C 
ATOM      5  C   UNL     1       2.522   3.600  -4.205  0.00  0.00    +0.032 C 
ATOM      6  C   UNL     1       1.152   4.100  -3.730  0.00  0.00    +0.088 C 
ATOM      7  C   UNL     1       0.998   3.753  -2.279  0.00  0.00    +0.163 C 
ATOM      8  O   UNL     1      -0.119   3.567  -1.836  0.00  0.00    -0.292 OA
ATOM      9  N   UNL     1       4.479   3.786  -1.110  0.00  0.00    -0.316 N 
ATOM     10  C   UNL     1       4.788   2.752  -0.232  0.00  0.00    +0.052 A 
ATOM     11  C   UNL     1       5.878   1.921  -0.419  0.00  0.00    +0.025 A 
ATOM     12  C   UNL     1       6.155   0.944   0.523  0.00  0.00    +0.002 A 
ATOM     13  C   UNL     1       5.350   0.805   1.640  0.00  0.00    +0.002 A 
ATOM     14  C   UNL     1       4.248   1.623   1.817  0.00  0.00    +0.025 A 
ATOM     15  C   UNL     1       3.954   2.587   0.863  0.00  0.00    +0.049 A 
ATOM     16  N   UNL     1       2.812   3.376   0.962  0.00  0.00    -0.329 N 
ATOM     17  H   UNL     1       5.231   4.587  -1.169  0.00  0.00    +0.152 HD
ATOM     18  H   UNL     1       2.735   4.104   1.782  0.00  0.00    +0.147 HD
ENDROOT
BRANCH   1  23
ATOM     19  C   UNL     1       1.803  -1.795  -0.025  0.00  0.00    +0.086 C 
ATOM     20  C   UNL     1       1.295  -0.376  -0.012  0.00  0.00    +0.102 A 
ATOM     21  C   UNL     1       0.002  -0.004   0.002  0.00  0.00    +0.045 A 
ATOM     22  C   UNL     1      -0.017   1.410   0.010  0.00  0.00    +0.047 A 
ATOM     23  C   UNL     1       1.265   1.817  -0.000  0.00  0.00    +0.130 A 
ATOM     24  O   UNL     1       2.055   0.731  -0.014  0.00  0.00    -0.463 OA
ENDBRANCH   1  23
BRANCH   5  25
ATOM     25  C   UNL     1       2.745   4.004  -5.639  0.00  0.00    -0.043 A 
ATOM     26  C   UNL     1       2.738   5.342  -5.989  0.00  0.00    +0.004 A 
ATOM     27  C   UNL     1       2.947   5.713  -7.304  0.00  0.00    +0.004 A 
ATOM     28  C   UNL     1       3.152   4.747  -8.271  0.00  0.00    -0.042 A 
ATOM     29  C   UNL     1       3.154   3.409  -7.922  0.00  0.00    +0.004 A 
ATOM     30  C   UNL     1       2.950   3.038  -6.606  0.00  0.00    +0.004 A 
BRANCH  28  31
ATOM     31  C   UNL     1       3.375   5.151  -9.705  0.00  0.00    -0.013 C 
ATOM     32  C   UNL     1       2.282   4.539 -10.584  0.00  0.00    +0.015 C 
ATOM     33  C   UNL     1       3.325   6.676  -9.819  0.00  0.00    +0.015 C 
ATOM     34  C   UNL     1       4.743   4.649 -10.170  0.00  0.00    +0.015 C 
ENDBRANCH  28  31
ENDBRANCH   5  25
TORSDOF 3
