REMARK  Name = ZINC06146884
REMARK  3 active torsions:
REMARK  status: ('A' for Active; 'I' for Inactive)
REMARK    1  A    between atoms: C_4  and  N_14
REMARK    2  A    between atoms: N_14  and  S_15
REMARK    3  A    between atoms: S_15  and  C_18
REMARK                            x       y       z     vdW  Elec       q    Type
REMARK                         _______ _______ _______ _____ _____    ______ ____
ROOT
ATOM      1  C   UNL     1      -1.185   1.390   5.715  0.00  0.00    +0.001 A 
ATOM      2  C   UNL     1      -1.493   1.661   4.396  0.00  0.00    +0.010 A 
ATOM      3  C   UNL     1      -0.924   2.786   3.785  0.00  0.00    +0.007 A 
ATOM      4  C   UNL     1      -1.139   3.194   2.450  0.00  0.00    +0.056 A 
ATOM      5  C   UNL     1      -0.490   4.334   2.000  0.00  0.00    +0.027 A 
ATOM      6  C   UNL     1       0.351   5.095   2.808  0.00  0.00    +0.026 A 
ATOM      7  C   UNL     1       0.580   4.720   4.120  0.00  0.00    +0.042 A 
ATOM      8  C   UNL     1      -0.070   3.574   4.559  0.00  0.00    +0.017 A 
ATOM      9  C   UNL     1       0.249   3.309   5.900  0.00  0.00    +0.047 A 
ATOM     10  C   UNL     1      -0.331   2.188   6.472  0.00  0.00    +0.014 A 
ATOM     11  C   UNL     1       1.162   4.393   6.276  0.00  0.00    +0.249 C 
ATOM     12  O   UNL     1       1.682   4.545   7.366  0.00  0.00    -0.270 OA
ATOM     13  N   UNL     1       1.326   5.198   5.194  0.00  0.00    -0.281 N 
ATOM     14  H   UNL     1       1.932   6.109   5.080  0.00  0.00    +0.155 HD
ENDROOT
BRANCH   4  15
ATOM     15  N   UNL     1      -1.974   2.468   1.607  0.00  0.00    -0.216 N 
ATOM     16  H   UNL     1      -2.880   1.989   2.009  0.00  0.00    +0.174 HD
BRANCH  15  17
ATOM     17  S   UNL     1      -1.607   2.326  -0.002  0.00  0.00    +0.072 S 
ATOM     18  O   UNL     1      -1.421   3.646  -0.494  0.00  0.00    -0.150 OA
ATOM     19  O   UNL     1      -2.560   1.432  -0.558  0.00  0.00    -0.150 OA
BRANCH  17  20
ATOM     20  C   UNL     1      -0.042   1.524  -0.109  0.00  0.00    +0.109 A 
ATOM     21  C   UNL     1       1.120   2.274  -0.126  0.00  0.00    +0.030 A 
ATOM     22  C   UNL     1       2.347   1.645  -0.216  0.00  0.00    +0.022 A 
ATOM     23  C   UNL     1       2.414   0.266  -0.289  0.00  0.00    +0.041 A 
ATOM     24  C   UNL     1       1.252  -0.485  -0.272  0.00  0.00    +0.022 A 
ATOM     25  C   UNL     1       0.025   0.145  -0.182  0.00  0.00    +0.030 A 
ATOM     26 CL   UNL     1       3.956  -0.524  -0.401  0.00  0.00    -0.084 Cl
ENDBRANCH  17  20
ENDBRANCH  15  17
ENDBRANCH   4  15
TORSDOF 3
