REMARK  Name = ZINC64873685
REMARK  6 active torsions:
REMARK  status: ('A' for Active; 'I' for Inactive)
REMARK    1  A    between atoms: C_3  and  C_8
REMARK    2  A    between atoms: C_5  and  N_7
REMARK    3  A    between atoms: C_12  and  C_14
REMARK    4  A    between atoms: C_14  and  C_15
REMARK    5  A    between atoms: C_15  and  N_16
REMARK    6  A    between atoms: N_16  and  C_17
REMARK                            x       y       z     vdW  Elec       q    Type
REMARK                         _______ _______ _______ _____ _____    ______ ____
ROOT
ATOM      1  C   UNL     1       3.657   2.173  -0.022  0.00  0.00    +0.156 A 
ATOM      2  N   UNL     1       4.902   1.644  -0.042  0.00  0.00    -0.259 N 
ATOM      3  H   UNL     1       5.134   0.703  -0.054  0.00  0.00    +0.191 HD
ATOM      4  N   UNL     1       5.790   2.732  -0.043  0.00  0.00    -0.157 NA
ATOM      5  C   UNL     1       5.063   3.819  -0.024  0.00  0.00    +0.153 A 
ATOM      6  N   UNL     1       3.776   3.485  -0.016  0.00  0.00    -0.211 NA
ENDROOT
BRANCH   1   9
ATOM      7  C   UNL     1      -0.017   1.378   0.010  0.00  0.00    +0.002 A 
ATOM      8  C   UNL     1       1.167   2.089   0.002  0.00  0.00    +0.012 A 
ATOM      9  C   UNL     1       2.387   1.413  -0.013  0.00  0.00    +0.020 A 
ATOM     10  C   UNL     1       2.406   0.019  -0.021  0.00  0.00    +0.034 A 
ATOM     11  C   UNL     1       1.213  -0.687  -0.013  0.00  0.00    +0.025 A 
ATOM     12  C   UNL     1       0.002  -0.004   0.002  0.00  0.00    +0.023 A 
BRANCH  11  13
ATOM     13  N   UNL     1       1.227  -2.084  -0.021  0.00  0.00    -0.358 N 
ATOM     14  H   UNL     1       2.072  -2.560  -0.032  0.00  0.00    +0.142 HD
ATOM     15  H   UNL     1       0.392  -2.577  -0.016  0.00  0.00    +0.142 HD
ENDBRANCH  11  13
ENDBRANCH   1   9
BRANCH   5  16
ATOM     16  C   UNL     1       5.599   5.228  -0.017  0.00  0.00    +0.096 C 
BRANCH  16  17
ATOM     17  C   UNL     1       5.762   5.718  -1.457  0.00  0.00    +0.109 C 
BRANCH  17  18
ATOM     18  N   UNL     1       6.284   7.088  -1.450  0.00  0.00    -0.343 N 
ATOM     19  H   UNL     1       6.466   7.533  -0.608  0.00  0.00    +0.146 HD
BRANCH  18  20
ATOM     20  C   UNL     1       6.517   7.752  -2.657  0.00  0.00    +0.027 A 
ATOM     21  C   UNL     1       6.250   7.118  -3.863  0.00  0.00    +0.024 A 
ATOM     22  C   UNL     1       6.481   7.778  -5.054  0.00  0.00    +0.017 A 
ATOM     23  C   UNL     1       6.979   9.069  -5.046  0.00  0.00    +0.018 A 
ATOM     24  C   UNL     1       7.246   9.703  -3.846  0.00  0.00    +0.017 A 
ATOM     25  C   UNL     1       7.011   9.050  -2.652  0.00  0.00    +0.024 A 
ATOM     26 BR   UNL     1       7.296   9.968  -6.680  0.00  0.00    -0.050 Br
ENDBRANCH  18  20
ENDBRANCH  17  18
ENDBRANCH  16  17
ENDBRANCH   5  16
TORSDOF 6
