REMARK  Name = ZINC36531082
REMARK  16 active torsions:
REMARK  status: ('A' for Active; 'I' for Inactive)
REMARK    1  A    between atoms: C_1  and  C_2
REMARK    2  A    between atoms: C_2  and  C_3
REMARK    3  A    between atoms: C_2  and  C_4
REMARK    4  A    between atoms: C_2  and  C_5
REMARK    5  A    between atoms: C_5  and  C_6
REMARK    6  A    between atoms: C_6  and  C_7
REMARK    7  A    between atoms: C_6  and  C_8
REMARK    8  A    between atoms: C_6  and  N_9
REMARK    9  A    between atoms: C_10  and  C_12
REMARK   10  A    between atoms: C_12  and  C_14
REMARK   11  A    between atoms: C_12  and  N_24
REMARK   12  A    between atoms: C_16  and  N_21
REMARK   13  A    between atoms: N_24  and  C_25
REMARK   14  A    between atoms: C_26  and  C_28
REMARK   15  A    between atoms: C_29  and  O_35
REMARK   16  A    between atoms: C_33  and  O_34
REMARK                            x       y       z     vdW  Elec       q    Type
REMARK                         _______ _______ _______ _____ _____    ______ ____
ROOT
ATOM      1  C   UNL     1       5.307  -0.493  -4.411  0.00  0.00    +0.194 C 
ENDROOT
BRANCH   1   2
ATOM      2  C   UNL     1       4.772   0.465  -5.444  0.00  0.00    +0.002 A 
ATOM      3  C   UNL     1       4.067   1.586  -5.049  0.00  0.00    +0.040 A 
ATOM      4  C   UNL     1       3.575   2.464  -5.997  0.00  0.00    +0.127 A 
ATOM      5  C   UNL     1       3.789   2.221  -7.341  0.00  0.00    +0.034 A 
ATOM      6  C   UNL     1       4.494   1.101  -7.738  0.00  0.00    +0.022 A 
ATOM      7  C   UNL     1       4.991   0.224  -6.789  0.00  0.00    +0.047 A 
ATOM      8 CL   UNL     1       5.883  -1.179  -7.286  0.00  0.00    -0.083 Cl
BRANCH   4   9
ATOM      9  N   UNL     1       2.820   3.664  -5.573  0.00  0.00    +0.056 N 
ATOM     10  O   UNL     1       2.633   3.876  -4.397  0.00  0.00    -0.126 OA
ATOM     11  O   UNL     1       2.390   4.432  -6.402  0.00  0.00    -0.126 OA
ENDBRANCH   4   9
ENDBRANCH   1   2
BRANCH   1  13
ATOM     12  N   UNL     1       3.230  -1.021  -3.176  0.00  0.00    -0.308 N 
ATOM     13  C   UNL     1       4.443  -0.434  -3.177  0.00  0.00    +0.239 C 
ATOM     14  O   UNL     1       4.840   0.140  -2.186  0.00  0.00    -0.273 OA
ATOM     15  H   UNL     1       2.938  -1.534  -3.946  0.00  0.00    +0.149 HD
BRANCH  12  16
ATOM     16  C   UNL     1       2.350  -0.882  -2.012  0.00  0.00    +0.030 C 
ATOM     17  C   UNL     1       2.190   0.600  -1.667  0.00  0.00    +0.031 C 
ATOM     18  C   UNL     1       2.963  -1.620  -0.820  0.00  0.00    +0.031 C 
BRANCH  16  19
ATOM     19  C   UNL     1       0.980  -1.482  -2.334  0.00  0.00    +0.031 C 
BRANCH  19  21
ATOM     20  C   UNL     1       1.238  -1.954  -4.774  0.00  0.00    +0.010 C 
ATOM     21  C   UNL     1       0.555  -1.056  -3.741  0.00  0.00    -0.036 C 
ATOM     22  C   UNL     1       0.964   0.399  -3.979  0.00  0.00    +0.010 C 
ATOM     23  C   UNL     1      -0.964  -1.187  -3.876  0.00  0.00    +0.010 C 
ENDBRANCH  19  21
ENDBRANCH  16  19
ENDBRANCH  12  16
ENDBRANCH   1  13
BRANCH   1  24
ATOM     24  N   UNL     1       6.680  -0.119  -4.064  0.00  0.00    -0.285 N 
ATOM     25  C   UNL     1       6.951   1.179  -3.441  0.00  0.00    +0.133 C 
ATOM     26  C   UNL     1       7.695  -0.969  -4.317  0.00  0.00    +0.254 C 
ATOM     27  O   UNL     1       7.470  -2.047  -4.834  0.00  0.00    -0.270 OA
BRANCH  26  28
ATOM     28  C   UNL     1       9.075  -0.593  -3.968  0.00  0.00    +0.119 A 
ATOM     29  C   UNL     1       9.597  -0.915  -2.706  0.00  0.00    +0.133 A 
ATOM     30  C   UNL     1      10.897  -0.557  -2.389  0.00  0.00    +0.046 A 
ATOM     31  C   UNL     1      11.679   0.115  -3.310  0.00  0.00    +0.007 A 
ATOM     32  C   UNL     1      11.175   0.437  -4.556  0.00  0.00    +0.046 A 
ATOM     33  C   UNL     1       9.879   0.083  -4.897  0.00  0.00    +0.133 A 
BRANCH  33  34
ATOM     34  O   UNL     1       9.388   0.395  -6.122  0.00  0.00    -0.506 OA
ATOM     35  H   UNL     1       8.956   1.259  -6.165  0.00  0.00    +0.292 HD
ENDBRANCH  33  34
BRANCH  29  36
ATOM     36  O   UNL     1       8.831  -1.573  -1.801  0.00  0.00    -0.506 OA
ATOM     37  H   UNL     1       8.899  -2.536  -1.855  0.00  0.00    +0.292 HD
ENDBRANCH  29  36
ENDBRANCH  26  28
ENDBRANCH   1  24
TORSDOF 10
