REMARK  Name = ZINC43548977
REMARK  10 active torsions:
REMARK  status: ('A' for Active; 'I' for Inactive)
REMARK    1  A    between atoms: C_1  and  C_2
REMARK    2  A    between atoms: C_7  and  C_9
REMARK    3  A    between atoms: C_16  and  C_40
REMARK    4  A    between atoms: C_19  and  O_39
REMARK    5  A    between atoms: C_21  and  C_25
REMARK    6  A    between atoms: C_25  and  C_27
REMARK    7  A    between atoms: C_25  and  C_28
REMARK    8  A    between atoms: N_30  and  C_31
REMARK    9  A    between atoms: N_30  and  C_32
REMARK   10  A    between atoms: C_32  and  C_33
REMARK                            x       y       z     vdW  Elec       q    Type
REMARK                         _______ _______ _______ _____ _____    ______ ____
ROOT
ATOM      1  C   UNL     1       1.448   2.831   1.694  0.00  0.00    +0.014 C 
ATOM      2  C   UNL     1       0.922   1.396   1.617  0.00  0.00    +0.042 C 
ATOM      3  C   UNL     1      -0.486   1.339   2.197  0.00  0.00    +0.055 A 
ATOM      4  C   UNL     1      -0.858   0.288   2.980  0.00  0.00    +0.014 A 
ATOM      5  S   UNL     1      -2.539   0.677   3.390  0.00  0.00    -0.072 S 
ATOM      6  C   UNL     1      -2.617   2.219   2.485  0.00  0.00    +0.110 A 
ATOM      7  N   UNL     1      -1.397   2.280   1.978  0.00  0.00    -0.243 NA
ATOM      8  C   UNL     1      -0.034  -0.887   3.381  0.00  0.00    +0.051 C 
ATOM      9  C   UNL     1       1.226  -0.929   2.514  0.00  0.00    -0.022 C 
ATOM     10  C   UNL     1       1.842   0.470   2.418  0.00  0.00    +0.033 C 
ATOM     11  C   UNL     1       3.170   0.344   1.653  0.00  0.00    +0.123 C 
ATOM     12  C   UNL     1       2.874  -0.159   0.238  0.00  0.00    +0.029 C 
ATOM     13  C   UNL     1       2.197  -1.528   0.301  0.00  0.00    +0.007 C 
ATOM     14  C   UNL     1       0.899  -1.430   1.109  0.00  0.00    +0.008 C 
ATOM     15  C   UNL     1       2.249  -1.868   3.158  0.00  0.00    +0.012 C 
ENDROOT
BRANCH   6  16
ATOM     16  C   UNL     1      -3.741   3.169   2.343  0.00  0.00    +0.025 A 
ATOM     17  C   UNL     1      -4.966   2.921   2.973  0.00  0.00    +0.013 A 
ATOM     18  C   UNL     1      -5.987   3.841   2.808  0.00  0.00    +0.020 A 
ATOM     19  C   UNL     1      -5.766   4.965   2.034  0.00  0.00    +0.111 A 
ATOM     20  N   UNL     1      -4.601   5.173   1.451  0.00  0.00    -0.263 NA
ATOM     21  C   UNL     1      -3.598   4.330   1.582  0.00  0.00    +0.121 A 
ENDBRANCH   6  16
BRANCH  12  22
ATOM     22  C   UNL     1       4.184  -0.278  -0.543  0.00  0.00    +0.078 C 
ATOM     23  C   UNL     1       3.893  -0.809  -1.949  0.00  0.00    +0.017 C 
BRANCH  22  24
ATOM     24  C   UNL     1       5.110  -1.229   0.171  0.00  0.00    +0.219 C 
ATOM     25  O   UNL     1       4.662  -2.035   0.958  0.00  0.00    -0.275 OA
ATOM     26  N   UNL     1       6.436  -1.183  -0.066  0.00  0.00    -0.300 N 
ATOM     27  C   UNL     1       6.987  -0.153  -0.950  0.00  0.00    +0.132 C 
BRANCH  26  28
ATOM     28  C   UNL     1       7.326  -2.163   0.561  0.00  0.00    +0.142 C 
BRANCH  28  29
ATOM     29  C   UNL     1       7.463  -3.365  -0.337  0.00  0.00    -0.030 A 
ATOM     30  C   UNL     1       6.582  -4.423  -0.214  0.00  0.00    +0.005 A 
ATOM     31  C   UNL     1       6.707  -5.526  -1.038  0.00  0.00    +0.000 A 
ATOM     32  C   UNL     1       7.713  -5.570  -1.985  0.00  0.00    +0.000 A 
ATOM     33  C   UNL     1       8.593  -4.512  -2.109  0.00  0.00    +0.000 A 
ATOM     34  C   UNL     1       8.465  -3.407  -1.288  0.00  0.00    +0.005 A 
ENDBRANCH  28  29
ENDBRANCH  26  28
ENDBRANCH  22  24
ENDBRANCH  12  22
BRANCH  11  35
ATOM     35  O   UNL     1       3.809   1.621   1.587  0.00  0.00    -0.391 OA
ATOM     36  H   UNL     1       4.629   1.625   1.075  0.00  0.00    +0.210 HD
ENDBRANCH  11  35
TORSDOF 6
