REMARK  Name = ZINC15012803
REMARK  6 active torsions:
REMARK  status: ('A' for Active; 'I' for Inactive)
REMARK    1  A    between atoms: C_1  and  O_2
REMARK    2  A    between atoms: O_2  and  C_3
REMARK    3  A    between atoms: C_5  and  C_18
REMARK    4  A    between atoms: C_8  and  O_9
REMARK    5  A    between atoms: O_9  and  C_10
REMARK    6  A    between atoms: C_10  and  C_11
REMARK                            x       y       z     vdW  Elec       q    Type
REMARK                         _______ _______ _______ _____ _____    ______ ____
ROOT
ATOM      1  C   UNL     1      -0.046  -0.053   0.132  0.00  0.00    +0.163 A 
ATOM      2  C   UNL     1       1.170  -0.703   0.060  0.00  0.00    +0.057 A 
ATOM      3  C   UNL     1       1.211  -2.103   0.041  0.00  0.00    -0.018 A 
ATOM      4  C   UNL     1       0.019  -2.835   0.095  0.00  0.00    +0.026 A 
ATOM      5  C   UNL     1      -1.190  -2.178   0.167  0.00  0.00    +0.059 A 
ATOM      6  C   UNL     1      -1.229  -0.789   0.191  0.00  0.00    +0.175 A 
ATOM      7  I   UNL     1      -2.973  -3.275   0.248  0.00  0.00    -0.040 I 
ENDROOT
BRANCH   3   8
ATOM      8  C   UNL     1       2.501  -2.800  -0.036  0.00  0.00    +0.036 C 
ATOM      9  C   UNL     1       2.563  -4.059  -0.539  0.00  0.00    +0.098 C 
ATOM     10  C   UNL     1       3.725  -4.961  -0.549  0.00  0.00    +0.266 C 
ATOM     11  O   UNL     1       4.834  -4.730  -0.105  0.00  0.00    -0.268 OA
ATOM     12  N   UNL     1       3.313  -6.097  -1.148  0.00  0.00    -0.235 N 
ATOM     13  C   UNL     1       2.027  -5.980  -1.511  0.00  0.00    +0.311 C 
ATOM     14  O   UNL     1       1.390  -6.847  -2.077  0.00  0.00    -0.252 OA
ATOM     15  N   UNL     1       1.536  -4.776  -1.167  0.00  0.00    -0.265 N 
ATOM     16  H   UNL     1       3.866  -6.880  -1.297  0.00  0.00    +0.159 HD
ATOM     17  H   UNL     1       0.632  -4.461  -1.326  0.00  0.00    +0.157 HD
ENDBRANCH   3   8
BRANCH   1  19
ATOM     18  C   UNL     1       1.160   1.996   0.095  0.00  0.00    +0.277 C 
ATOM     19  O   UNL     1      -0.090   1.306   0.152  0.00  0.00    -0.491 OA
ENDBRANCH   1  19
BRANCH   6  20
ATOM     20  O   UNL     1      -2.424  -0.147   0.268  0.00  0.00    -0.483 OA
BRANCH  20  21
ATOM     21  C   UNL     1      -3.067   0.176  -0.966  0.00  0.00    +0.264 C 
BRANCH  21  22
ATOM     22  C   UNL     1      -4.369   0.880  -0.685  0.00  0.00    -0.010 A 
ATOM     23  C   UNL     1      -5.534   0.149  -0.542  0.00  0.00    +0.007 A 
ATOM     24  C   UNL     1      -6.727   0.794  -0.278  0.00  0.00    +0.000 A 
ATOM     25  C   UNL     1      -6.759   2.172  -0.168  0.00  0.00    +0.000 A 
ATOM     26  C   UNL     1      -5.595   2.904  -0.317  0.00  0.00    +0.000 A 
ATOM     27  C   UNL     1      -4.401   2.258  -0.575  0.00  0.00    +0.007 A 
ENDBRANCH  21  22
ENDBRANCH  20  21
ENDBRANCH   6  20
TORSDOF 5
