REMARK  Name = ZINC08777904
REMARK  8 active torsions:
REMARK  status: ('A' for Active; 'I' for Inactive)
REMARK    1  A    between atoms: C_1  and  C_2
REMARK    2  A    between atoms: C_2  and  C_4
REMARK    3  A    between atoms: C_2  and  N_43
REMARK    4  A    between atoms: C_14  and  C_16
REMARK    5  A    between atoms: C_14  and  C_17
REMARK    6  A    between atoms: C_14  and  N_43
REMARK    7  A    between atoms: N_19  and  C_20
REMARK    8  A    between atoms: C_21  and  C_25
REMARK                            x       y       z     vdW  Elec       q    Type
REMARK                         _______ _______ _______ _____ _____    ______ ____
ROOT
ATOM      1  N   UNL     1       2.098   7.950  -0.872  0.00  0.00    +0.391 N 
ATOM      2  H   UNL     1       2.189   7.316  -1.674  0.00  0.00    -0.084 HD
ATOM      3  H   UNL     1       2.989   7.988  -0.362  0.00  0.00    -0.084 HD
ENDROOT
BRANCH   1   5
ATOM      4  C   UNL     1       1.301   7.954   1.450  0.00  0.00    -0.009 C 
ATOM      5  C   UNL     1       1.044   7.447   0.029  0.00  0.00    -0.043 C 
BRANCH   5   6
ATOM      6  C   UNL     1       1.064   5.940   0.022  0.00  0.00    -0.061 A 
ATOM      7  C   UNL     1       2.286   5.270   0.007  0.00  0.00    +0.002 A 
ATOM      8  C   UNL     1       2.340   3.910  -0.000  0.00  0.00    +0.009 A 
ATOM      9  C   UNL     1       1.147   3.167   0.008  0.00  0.00    -0.018 A 
ATOM     10  C   UNL     1       1.163   1.762   0.000  0.00  0.00    +0.008 A 
ATOM     11  C   UNL     1      -0.013   1.076   0.008  0.00  0.00    +0.001 A 
ATOM     12  C   UNL     1      -1.235   1.746   0.017  0.00  0.00    +0.001 A 
ATOM     13  C   UNL     1      -1.288   3.106   0.031  0.00  0.00    +0.008 A 
ATOM     14  C   UNL     1      -0.096   3.849   0.023  0.00  0.00    -0.018 A 
ATOM     15  C   UNL     1      -0.111   5.254   0.030  0.00  0.00    +0.010 A 
ENDBRANCH   5   6
ENDBRANCH   1   5
BRANCH   1  16
ATOM     16  C   UNL     1       1.756   9.301  -1.356  0.00  0.00    +0.014 C 
ATOM     17  C   UNL     1       0.849   9.189  -2.583  0.00  0.00    -0.004 C 
BRANCH  16  18
ATOM     18  C   UNL     1       3.022  10.026  -1.732  0.00  0.00    +0.203 C 
ATOM     19  O   UNL     1       4.096   9.477  -1.607  0.00  0.00    -0.277 OA
ATOM     20  N   UNL     1       2.962  11.286  -2.208  0.00  0.00    -0.280 N 
ATOM     21  H   UNL     1       2.103  11.725  -2.308  0.00  0.00    +0.155 HD
BRANCH  20  22
ATOM     22  C   UNL     1       4.128  11.954  -2.554  0.00  0.00    +0.089 A 
ATOM     23  C   UNL     1       4.267  13.239  -3.062  0.00  0.00    +0.080 A 
ATOM     24  C   UNL     1       5.611  13.688  -3.333  0.00  0.00    +0.028 A 
ATOM     25  C   UNL     1       6.611  12.823  -3.082  0.00  0.00    +0.048 A 
ATOM     26  S   UNL     1       5.761  11.384  -2.466  0.00  0.00    -0.081 S 
BRANCH  23  27
ATOM     27  C   UNL     1       3.132  14.080  -3.300  0.00  0.00    +0.102 C 
ATOM     28  N   UNL     1       2.232  14.746  -3.489  0.00  0.00    -0.191 NA
ENDBRANCH  23  27
ENDBRANCH  20  22
ENDBRANCH  16  18
ENDBRANCH   1  16
TORSDOF 6
