REMARK  Name = ZINC05471594
REMARK  4 active torsions:
REMARK  status: ('A' for Active; 'I' for Inactive)
REMARK    1  A    between atoms: C_1  and  C_2
REMARK    2  A    between atoms: C_2  and  C_3
REMARK    3  A    between atoms: N_17  and  N_18
REMARK    4  A    between atoms: C_19  and  C_20
REMARK                            x       y       z     vdW  Elec       q    Type
REMARK                         _______ _______ _______ _____ _____    ______ ____
ROOT
ATOM      1  C   UNL     1      -1.123  -8.584  -0.031  0.00  0.00    -0.047 A 
ATOM      2  C   UNL     1      -2.503  -8.711  -0.018  0.00  0.00    +0.005 A 
ATOM      3  C   UNL     1      -3.310  -7.593  -0.005  0.00  0.00    +0.026 A 
ATOM      4  C   UNL     1      -2.742  -6.324  -0.005  0.00  0.00    +0.050 A 
ATOM      5  C   UNL     1      -1.344  -6.196  -0.018  0.00  0.00    +0.029 A 
ATOM      6  C   UNL     1      -0.541  -7.334  -0.031  0.00  0.00    +0.016 A 
ATOM      7  C   UNL     1      -1.059  -4.751  -0.013  0.00  0.00    +0.138 A 
ATOM      8  C   UNL     1      -2.310  -4.100   0.002  0.00  0.00    +0.163 A 
ATOM      9  N   UNL     1      -3.297  -5.054   0.007  0.00  0.00    -0.338 N 
ATOM     10  H   UNL     1      -4.249  -4.867   0.017  0.00  0.00    +0.167 HD
ATOM     11  N   UNL     1      -2.330  -2.771   0.015  0.00  0.00    -0.192 NA
ATOM     12  C   UNL     1      -1.183  -2.105   0.002  0.00  0.00    +0.256 A 
ATOM     13  N   UNL     1      -0.016  -2.741  -0.013  0.00  0.00    -0.111 NA
ATOM     14  N   UNL     1       0.051  -4.028  -0.020  0.00  0.00    -0.142 NA
ATOM     15  N   UNL     1      -1.202  -0.721   0.010  0.00  0.00    -0.204 N 
ATOM     16  H   UNL     1      -2.048  -0.247   0.020  0.00  0.00    +0.177 HD
ENDROOT
BRANCH   1  18
ATOM     17  C   UNL     1       0.052 -10.239   1.392  0.00  0.00    +0.009 C 
ATOM     18  C   UNL     1      -0.255  -9.816  -0.046  0.00  0.00    +0.032 C 
ENDBRANCH   1  18
BRANCH  15  19
ATOM     19  N   UNL     1       0.002  -0.004   0.002  0.00  0.00    -0.184 NA
ATOM     20  C   UNL     1      -0.016   1.297   0.009  0.00  0.00    +0.176 C 
BRANCH  20  21
ATOM     21  C   UNL     1       1.244   2.047   0.001  0.00  0.00    +0.149 A 
ATOM     22  C   UNL     1       1.367   3.406   0.002  0.00  0.00    +0.052 A 
ATOM     23  C   UNL     1       2.746   3.688  -0.005  0.00  0.00    +0.057 A 
ATOM     24  C   UNL     1       3.393   2.503  -0.018  0.00  0.00    +0.171 A 
ATOM     25  O   UNL     1       2.483   1.515  -0.014  0.00  0.00    -0.447 OA
ATOM     26 BR   UNL     1       5.270   2.272  -0.037  0.00  0.00    -0.008 Br
ENDBRANCH  20  21
ENDBRANCH  15  19
TORSDOF 3
