REMARK  Name = ZINC04834431
REMARK  8 active torsions:
REMARK  status: ('A' for Active; 'I' for Inactive)
REMARK    1  A    between atoms: C_1  and  C_2
REMARK    2  A    between atoms: C_7  and  N_12
REMARK    3  A    between atoms: C_9  and  C_11
REMARK    4  A    between atoms: C_13  and  C_15
REMARK    5  A    between atoms: C_20  and  N_21
REMARK    6  A    between atoms: N_21  and  C_22
REMARK    7  A    between atoms: C_22  and  C_23
REMARK    8  A    between atoms: C_23  and  O_24
REMARK                            x       y       z     vdW  Elec       q    Type
REMARK                         _______ _______ _______ _____ _____    ______ ____
ROOT
ATOM      1  C   UNL     1      -1.422   0.994  -3.207  0.00  0.00    +0.058 A 
ATOM      2  C   UNL     1      -2.243   2.070  -2.876  0.00  0.00    +0.015 A 
ATOM      3  C   UNL     1      -2.756   2.891  -3.864  0.00  0.00    +0.013 A 
ATOM      4  C   UNL     1      -2.456   2.652  -5.202  0.00  0.00    +0.035 A 
ATOM      5  C   UNL     1      -1.629   1.571  -5.555  0.00  0.00    +0.055 A 
ATOM      6  C   UNL     1      -1.105   0.741  -4.554  0.00  0.00    +0.051 A 
ATOM      7  C   UNL     1      -1.310   1.315  -6.970  0.00  0.00    +0.196 C 
ATOM      8  O   UNL     1      -0.594   0.380  -7.272  0.00  0.00    -0.287 OA
ATOM      9  C   UNL     1      -1.861   2.195  -8.023  0.00  0.00    +0.033 A 
ATOM     10  C   UNL     1      -1.563   1.959  -9.361  0.00  0.00    +0.012 A 
ATOM     11  C   UNL     1      -2.082   2.788 -10.340  0.00  0.00    +0.001 A 
ATOM     12  C   UNL     1      -2.897   3.852  -9.997  0.00  0.00    +0.001 A 
ATOM     13  C   UNL     1      -3.202   4.101  -8.671  0.00  0.00    +0.012 A 
ATOM     14  C   UNL     1      -2.688   3.277  -7.673  0.00  0.00    +0.033 A 
ATOM     15  C   UNL     1      -3.009   3.535  -6.255  0.00  0.00    +0.195 C 
ATOM     16  O   UNL     1      -3.724   4.469  -5.952  0.00  0.00    -0.287 OA
ENDROOT
BRANCH   1  18
ATOM     17  N   UNL     1      -1.087   0.433  -0.850  0.00  0.00    -0.308 N 
ATOM     18  C   UNL     1      -0.880   0.124  -2.145  0.00  0.00    +0.246 C 
ATOM     19  O   UNL     1      -0.247  -0.872  -2.439  0.00  0.00    -0.270 OA
ATOM     20  H   UNL     1      -1.592   1.227  -0.615  0.00  0.00    +0.149 HD
BRANCH  17  26
ATOM     21  C   UNL     1      -2.172   1.356   3.205  0.00  0.00    +0.008 C 
ATOM     22  C   UNL     1      -1.335   1.192   1.935  0.00  0.00    -0.009 C 
ATOM     23  C   UNL     1       0.115   1.584   2.225  0.00  0.00    +0.003 C 
ATOM     24  C   UNL     1       0.952   1.419   0.955  0.00  0.00    +0.002 C 
ATOM     25  C   UNL     1       0.900  -0.039   0.495  0.00  0.00    +0.022 C 
ATOM     26  C   UNL     1      -0.550  -0.431   0.204  0.00  0.00    +0.076 C 
ATOM     27  C   UNL     1      -1.387  -0.267   1.475  0.00  0.00    +0.009 C 
ATOM     28  C   UNL     1      -2.837  -0.659   1.184  0.00  0.00    +0.009 C 
ENDBRANCH  17  26
ENDBRANCH   1  18
BRANCH   6  29
ATOM     29  N   UNL     1      -0.287  -0.319  -4.888  0.00  0.00    -0.341 N 
ATOM     30  H   UNL     1      -0.632  -0.798  -5.707  0.00  0.00    +0.146 HD
BRANCH  29  31
ATOM     31  C   UNL     1       1.099   0.126  -5.083  0.00  0.00    +0.129 C 
BRANCH  31  32
ATOM     32  C   UNL     1       1.996  -1.091  -5.321  0.00  0.00    +0.174 C 
BRANCH  32  33
ATOM     33  O   UNL     1       1.626  -1.724  -6.547  0.00  0.00    -0.393 OA
ATOM     34  H   UNL     1       2.155  -2.505  -6.762  0.00  0.00    +0.209 HD
ENDBRANCH  32  33
ENDBRANCH  31  32
ENDBRANCH  29  31
ENDBRANCH   6  29
TORSDOF 6
