REMARK  Name = ZINC05145783
REMARK  7 active torsions:
REMARK  status: ('A' for Active; 'I' for Inactive)
REMARK    1  A    between atoms: C_1  and  C_2
REMARK    2  A    between atoms: C_5  and  C_9
REMARK    3  A    between atoms: C_6  and  C_8
REMARK    4  A    between atoms: N_11  and  C_12
REMARK    5  A    between atoms: C_13  and  C_21
REMARK    6  A    between atoms: C_24  and  O_26
REMARK    7  A    between atoms: O_26  and  C_27
REMARK                            x       y       z     vdW  Elec       q    Type
REMARK                         _______ _______ _______ _____ _____    ______ ____
ROOT
ATOM      1  C   UNL     1       3.822  -0.705  -0.848  0.00  0.00    +0.085 A 
ATOM      2  C   UNL     1       4.109  -2.054  -1.013  0.00  0.00    +0.069 A 
ATOM      3  C   UNL     1       5.494  -2.421  -1.255  0.00  0.00    -0.023 A 
ATOM      4  C   UNL     1       6.366  -1.390  -1.282  0.00  0.00    -0.004 A 
ATOM      5  S   UNL     1       5.375   0.049  -1.000  0.00  0.00    -0.077 S 
ATOM      6  C   UNL     1       7.845  -1.464  -1.503  0.00  0.00    +0.043 C 
ATOM      7  C   UNL     1       8.289  -2.924  -1.323  0.00  0.00    +0.005 C 
ATOM      8  C   UNL     1       7.346  -3.828  -2.123  0.00  0.00    +0.005 C 
ATOM      9  C   UNL     1       5.967  -3.855  -1.462  0.00  0.00    +0.037 C 
ENDROOT
BRANCH   2  10
ATOM     10  C   UNL     1       3.054  -3.068  -0.949  0.00  0.00    +0.255 C 
ATOM     11  O   UNL     1       2.462  -3.395  -1.961  0.00  0.00    -0.270 OA
ATOM     12  N   UNL     1       2.738  -3.639   0.231  0.00  0.00    -0.217 N 
ATOM     13  C   UNL     1       1.767  -4.572   0.289  0.00  0.00    +0.407 C 
ATOM     14  O   UNL     1       1.177  -4.899  -0.721  0.00  0.00    -0.226 OA
ATOM     15  H   UNL     1       3.210  -3.378   1.037  0.00  0.00    +0.161 HD
BRANCH  13  16
ATOM     16  O   UNL     1       1.452  -5.142   1.468  0.00  0.00    -0.453 OA
ATOM     17  C   UNL     1       0.397  -6.139   1.456  0.00  0.00    +0.282 C 
ENDBRANCH  13  16
ENDBRANCH   2  10
BRANCH   1  20
ATOM     18  C   UNL     1       2.512   1.230  -0.472  0.00  0.00    +0.249 C 
ATOM     19  O   UNL     1       3.514   1.913  -0.553  0.00  0.00    -0.270 OA
ATOM     20  N   UNL     1       2.595  -0.108  -0.613  0.00  0.00    -0.275 N 
ATOM     21  H   UNL     1       1.795  -0.653  -0.548  0.00  0.00    +0.156 HD
BRANCH  18  26
ATOM     22  C   UNL     1      -2.587   3.709   0.506  0.00  0.00    +0.044 C 
ATOM     23  C   UNL     1      -1.252   3.060   0.250  0.00  0.00    -0.050 A 
ATOM     24  C   UNL     1      -1.186   1.706  -0.028  0.00  0.00    +0.004 A 
ATOM     25  C   UNL     1       0.033   1.104  -0.258  0.00  0.00    +0.013 A 
ATOM     26  C   UNL     1       1.202   1.867  -0.221  0.00  0.00    +0.040 A 
ATOM     27  C   UNL     1       1.129   3.233   0.054  0.00  0.00    -0.038 A 
ATOM     28  C   UNL     1      -0.097   3.821   0.288  0.00  0.00    +0.007 A 
ATOM     29  C   UNL     1       2.385   4.064   0.096  0.00  0.00    +0.044 C 
ENDBRANCH  18  26
ENDBRANCH   1  20
TORSDOF 4
