REMARK  Name = ZINC20741003
REMARK  6 active torsions:
REMARK  status: ('A' for Active; 'I' for Inactive)
REMARK    1  A    between atoms: C_1  and  C_2
REMARK    2  A    between atoms: N_7  and  C_10
REMARK    3  A    between atoms: C_10  and  C_11
REMARK    4  A    between atoms: C_19  and  C_20
REMARK    5  A    between atoms: N_25  and  C_28
REMARK    6  A    between atoms: C_31  and  N_34
REMARK                            x       y       z     vdW  Elec       q    Type
REMARK                         _______ _______ _______ _____ _____    ______ ____
ROOT
ATOM      1  C   UNL     1       2.675   9.287  -3.631  0.00  0.00    +0.046 C 
ATOM      2  C   UNL     1       1.349   8.571  -3.622  0.00  0.00    -0.017 A 
ATOM      3  C   UNL     1       0.380   8.882  -4.578  0.00  0.00    +0.076 A 
ATOM      4  C   UNL     1      -0.833   8.161  -4.482  0.00  0.00    +0.116 A 
ATOM      5  N   UNL     1      -1.836   8.364  -5.326  0.00  0.00    -0.230 NA
ATOM      6  C   UNL     1      -1.754   9.242  -6.288  0.00  0.00    +0.203 A 
ATOM      7  N   UNL     1      -0.642   9.993  -6.481  0.00  0.00    -0.294 N 
ATOM      8  C   UNL     1       0.436   9.867  -5.682  0.00  0.00    +0.263 A 
ATOM      9  O   UNL     1       1.431  10.547  -5.863  0.00  0.00    -0.267 OA
ATOM     10  S   UNL     1      -0.564   7.095  -3.089  0.00  0.00    -0.064 S 
ATOM     11  C   UNL     1       1.095   7.615  -2.683  0.00  0.00    +0.080 A 
ENDROOT
BRANCH  11  12
ATOM     12  C   UNL     1       1.965   7.137  -1.604  0.00  0.00    +0.254 C 
ATOM     13  O   UNL     1       2.584   7.934  -0.924  0.00  0.00    -0.269 OA
ATOM     14  N   UNL     1       2.080   5.815  -1.366  0.00  0.00    -0.294 N 
ATOM     15  C   UNL     1       3.017   5.310  -0.351  0.00  0.00    +0.127 C 
ATOM     16  C   UNL     1       3.882   4.218  -0.988  0.00  0.00    +0.124 C 
ATOM     17  N   UNL     1       3.013   3.200  -1.593  0.00  0.00    -0.327 N 
ATOM     18  C   UNL     1       2.206   3.767  -2.682  0.00  0.00    +0.124 C 
ATOM     19  C   UNL     1       1.271   4.841  -2.114  0.00  0.00    +0.127 C 
BRANCH  17  20
ATOM     20  C   UNL     1       3.759   2.107  -2.041  0.00  0.00    +0.030 A 
ATOM     21  C   UNL     1       3.122   1.031  -2.647  0.00  0.00    +0.025 A 
ATOM     22  C   UNL     1       3.863  -0.048  -3.088  0.00  0.00    +0.034 A 
ATOM     23  C   UNL     1       5.236  -0.058  -2.929  0.00  0.00    +0.126 A 
ATOM     24  C   UNL     1       5.873   1.011  -2.325  0.00  0.00    +0.034 A 
ATOM     25  C   UNL     1       5.138   2.093  -1.881  0.00  0.00    +0.025 A 
BRANCH  23  26
ATOM     26  N   UNL     1       6.027  -1.216  -3.404  0.00  0.00    +0.056 N 
ATOM     27  O   UNL     1       5.467  -2.158  -3.934  0.00  0.00    -0.126 OA
ATOM     28  O   UNL     1       7.237  -1.226  -3.263  0.00  0.00    -0.126 OA
ENDBRANCH  23  26
ENDBRANCH  17  20
ENDBRANCH  11  12
BRANCH   7  29
ATOM     29  C   UNL     1      -0.611  10.962  -7.579  0.00  0.00    +0.164 C 
BRANCH  29  30
ATOM     30  C   UNL     1      -0.076  10.297  -8.821  0.00  0.00    +0.008 A 
ATOM     31  C   UNL     1      -0.937   9.952  -9.846  0.00  0.00    +0.008 A 
ATOM     32  C   UNL     1      -0.446   9.342 -10.985  0.00  0.00    +0.000 A 
ATOM     33  C   UNL     1       0.906   9.077 -11.101  0.00  0.00    +0.003 A 
ATOM     34  C   UNL     1       1.768   9.421 -10.078  0.00  0.00    +0.039 A 
ATOM     35  C   UNL     1       1.278  10.036  -8.938  0.00  0.00    +0.128 A 
ATOM     36  F   UNL     1       2.121  10.378  -7.939  0.00  0.00    -0.205 F 
ENDBRANCH  29  30
ENDBRANCH   7  29
TORSDOF 5
