REMARK  Name = ZINC20557910
REMARK  7 active torsions:
REMARK  status: ('A' for Active; 'I' for Inactive)
REMARK    1  A    between atoms: C_1  and  C_2
REMARK    2  A    between atoms: C_2  and  O_3
REMARK    3  A    between atoms: O_3  and  C_4
REMARK    4  A    between atoms: C_4  and  C_6
REMARK    5  A    between atoms: C_7  and  C_21
REMARK    6  A    between atoms: C_12  and  C_14
REMARK    7  A    between atoms: C_21  and  N_22
REMARK                            x       y       z     vdW  Elec       q    Type
REMARK                         _______ _______ _______ _____ _____    ______ ____
ROOT
ATOM      1  C   UNL     1      -0.701   1.345   1.254  0.00  0.00    +0.079 C 
ATOM      2  C   UNL     1      -1.645   2.309   1.284  0.00  0.00    +0.038 C 
ATOM      3  N   UNL     1      -2.113   2.873   0.132  0.00  0.00    -0.271 N 
ATOM      4  C   UNL     1      -1.688   2.526  -1.090  0.00  0.00    +0.304 C 
ATOM      5  O   UNL     1      -2.165   3.085  -2.059  0.00  0.00    -0.252 OA
ATOM      6  N   UNL     1      -0.749   1.579  -1.281  0.00  0.00    -0.288 N 
ATOM      7  C   UNL     1      -0.179   0.909  -0.100  0.00  0.00    +0.144 C 
ATOM      8  H   UNL     1      -2.882   3.658   0.176  0.00  0.00    +0.156 HD
ATOM      9  H   UNL     1      -0.407   1.301  -2.289  0.00  0.00    +0.151 HD
ENDROOT
BRANCH   7  10
ATOM     10  C   UNL     1       1.312   1.129  -0.116  0.00  0.00    -0.022 A 
ATOM     11  C   UNL     1       1.823   2.376  -0.423  0.00  0.00    +0.008 A 
ATOM     12  C   UNL     1       3.190   2.580  -0.433  0.00  0.00    +0.038 A 
ATOM     13  C   UNL     1       4.048   1.532  -0.146  0.00  0.00    +0.123 A 
ATOM     14  C   UNL     1       3.535   0.281   0.156  0.00  0.00    +0.038 A 
ATOM     15  C   UNL     1       2.167   0.081   0.171  0.00  0.00    +0.008 A 
ATOM     16  F   UNL     1       5.384   1.728  -0.162  0.00  0.00    -0.205 F 
ENDBRANCH   7  10
BRANCH   1  17
ATOM     17  C   UNL     1      -0.216   0.760   2.448  0.00  0.00    +0.339 C 
ATOM     18  O   UNL     1      -0.727   1.043   3.515  0.00  0.00    -0.245 OA
BRANCH  17  19
ATOM     19  O   UNL     1       0.814  -0.110   2.402  0.00  0.00    -0.462 OA
BRANCH  19  21
ATOM     20  C   UNL     1       2.419  -1.620   3.396  0.00  0.00    +0.048 C 
ATOM     21  C   UNL     1       1.252  -0.662   3.646  0.00  0.00    +0.229 C 
ENDBRANCH  19  21
ENDBRANCH  17  19
ENDBRANCH   1  17
BRANCH   2  22
ATOM     22  C   UNL     1      -2.191   2.772   2.610  0.00  0.00    +0.136 C 
BRANCH  22  23
ATOM     23  N   UNL     1      -3.282   1.881   3.028  0.00  0.00    -0.294 NA
ATOM     24  C   UNL     1      -4.432   1.997   2.120  0.00  0.00    +0.103 C 
ATOM     25  C   UNL     1      -5.513   0.999   2.542  0.00  0.00    +0.122 C 
ATOM     26  N   UNL     1      -5.912   1.269   3.930  0.00  0.00    -0.314 N 
ATOM     27  C   UNL     1      -4.762   1.154   4.837  0.00  0.00    +0.122 C 
ATOM     28  C   UNL     1      -3.681   2.152   4.416  0.00  0.00    +0.103 C 
ATOM     29  C   UNL     1      -6.945   0.427   4.325  0.00  0.00    +0.099 A 
ATOM     30  C   UNL     1      -8.125   0.392   3.590  0.00  0.00    +0.042 A 
ATOM     31  C   UNL     1      -9.145  -0.451   3.994  0.00  0.00    +0.005 A 
ATOM     32  C   UNL     1      -8.948  -1.234   5.124  0.00  0.00    +0.018 A 
ATOM     33  C   UNL     1      -7.751  -1.148   5.806  0.00  0.00    +0.084 A 
ATOM     34  N   UNL     1      -6.794  -0.339   5.394  0.00  0.00    -0.350 N 
ATOM     35  H   UNL     1      -5.853  -0.310   5.963  0.00  0.00    +0.166 HD
ENDBRANCH  22  23
ENDBRANCH   2  22
TORSDOF 6
