REMARK  Name = ZINC21315993
REMARK  11 active torsions:
REMARK  status: ('A' for Active; 'I' for Inactive)
REMARK    1  A    between atoms: C_1  and  C_2
REMARK    2  A    between atoms: C_2  and  C_3
REMARK    3  A    between atoms: C_3  and  C_5
REMARK    4  A    between atoms: C_3  and  C_6
REMARK    5  A    between atoms: C_9  and  N_12
REMARK    6  A    between atoms: C_13  and  C_15
REMARK    7  A    between atoms: C_15  and  S_16
REMARK    8  A    between atoms: S_16  and  C_17
REMARK    9  A    between atoms: N_21  and  N_22
REMARK   10  A    between atoms: N_23  and  N_24
REMARK   11  A    between atoms: C_25  and  C_26
REMARK                            x       y       z     vdW  Elec       q    Type
REMARK                         _______ _______ _______ _____ _____    ______ ____
ROOT
ATOM      1  C   UNL     1       0.638   3.495   0.002  0.00  0.00    +0.210 A 
ATOM      2  N   UNL     1      -0.673   3.478   0.005  0.00  0.00    -0.119 NA
ATOM      3  N   UNL     1      -1.089   2.140  -0.010  0.00  0.00    -0.109 NA
ATOM      4  C   UNL     1      -0.018   1.383  -0.013  0.00  0.00    +0.254 A 
ATOM      5  N   UNL     1       1.078   2.202  -0.009  0.00  0.00    -0.211 N 
ATOM      6  N   UNL     1       0.001  -0.004  -0.024  0.00  0.00    -0.204 N 
ATOM      7  H   UNL     1       0.961  -0.541  -0.031  0.00  0.00    +0.177 HD
ENDROOT
BRANCH   5   8
ATOM      8  N   UNL     1       2.382   1.797  -0.015  0.00  0.00    -0.294 N 
ATOM      9  H   UNL     1       2.625   0.724  -0.025  0.00  0.00    +0.163 HD
ATOM     10  H   UNL     1       3.190   2.544  -0.011  0.00  0.00    +0.163 HD
ENDBRANCH   5   8
BRANCH   6  11
ATOM     11  N   UNL     1      -1.203  -0.721  -0.027  0.00  0.00    -0.188 NA
ATOM     12  C   UNL     1      -1.185  -2.019  -0.037  0.00  0.00    +0.138 C 
BRANCH  12  13
ATOM     13  C   UNL     1      -2.452  -2.773  -0.040  0.00  0.00    -0.005 A 
ATOM     14  C   UNL     1      -3.673  -2.094  -0.026  0.00  0.00    +0.010 A 
ATOM     15  C   UNL     1      -4.854  -2.806  -0.034  0.00  0.00    +0.016 A 
ATOM     16  C   UNL     1      -4.832  -4.190  -0.045  0.00  0.00    +0.018 A 
ATOM     17  C   UNL     1      -3.626  -4.870  -0.054  0.00  0.00    +0.016 A 
ATOM     18  C   UNL     1      -2.437  -4.170  -0.051  0.00  0.00    +0.010 A 
ATOM     19 BR   UNL     1      -6.457  -5.158  -0.048  0.00  0.00    -0.050 Br
ENDBRANCH  12  13
ENDBRANCH   6  11
BRANCH   1  20
ATOM     20  S   UNL     1       1.655   4.934   0.011  0.00  0.00    -0.075 S 
BRANCH  20  21
ATOM     21  C   UNL     1       0.470   6.308   0.025  0.00  0.00    +0.173 C 
BRANCH  21  23
ATOM     22  N   UNL     1       0.540   8.781   0.045  0.00  0.00    -0.285 N 
ATOM     23  C   UNL     1       1.219   7.616   0.034  0.00  0.00    +0.227 C 
ATOM     24  O   UNL     1       2.432   7.621   0.031  0.00  0.00    -0.275 OA
ATOM     25  H   UNL     1      -0.557   8.778  -0.030  0.00  0.00    +0.155 HD
BRANCH  22  29
ATOM     26  C   UNL     1       2.599  12.389   0.360  0.00  0.00    -0.044 A 
ATOM     27  C   UNL     1       3.154  11.337  -0.345  0.00  0.00    +0.006 A 
ATOM     28  C   UNL     1       2.474  10.139  -0.451  0.00  0.00    +0.023 A 
ATOM     29  C   UNL     1       1.232   9.992   0.151  0.00  0.00    +0.033 A 
ATOM     30  C   UNL     1       0.674  11.053   0.853  0.00  0.00    +0.023 A 
ATOM     31  C   UNL     1       1.362  12.246   0.961  0.00  0.00    +0.006 A 
BRANCH  26  32
ATOM     32  C   UNL     1       3.344  13.694   0.474  0.00  0.00    +0.016 C 
ATOM     33  C   UNL     1       2.503  14.816  -0.138  0.00  0.00    +0.012 C 
BRANCH  32  35
ATOM     34  C   UNL     1       4.473  15.261   2.060  0.00  0.00    +0.004 C 
ATOM     35  C   UNL     1       3.610  14.002   1.949  0.00  0.00    +0.004 C 
ENDBRANCH  32  35
ENDBRANCH  26  32
ENDBRANCH  22  29
ENDBRANCH  21  23
ENDBRANCH  20  21
ENDBRANCH   1  20
TORSDOF 9
