REMARK  Name = ZINC20728664
REMARK  4 active torsions:
REMARK  status: ('A' for Active; 'I' for Inactive)
REMARK    1  A    between atoms: C_9  and  S_14
REMARK    2  A    between atoms: C_11  and  O_13
REMARK    3  A    between atoms: S_14  and  C_15
REMARK    4  A    between atoms: N_19  and  C_20
REMARK                            x       y       z     vdW  Elec       q    Type
REMARK                         _______ _______ _______ _____ _____    ______ ____
ROOT
ATOM      1  C   UNL     1      -0.017   1.373   0.010  0.00  0.00    +0.000 A 
ATOM      2  C   UNL     1       1.178   2.071   0.002  0.00  0.00    +0.002 A 
ATOM      3  C   UNL     1       2.366   1.387  -0.008  0.00  0.00    +0.028 A 
ATOM      4  C   UNL     1       2.401  -0.025  -0.013  0.00  0.00    +0.071 A 
ATOM      5  C   UNL     1       1.200  -0.715  -0.015  0.00  0.00    -0.022 A 
ATOM      6  C   UNL     1       0.002  -0.004   0.002  0.00  0.00    +0.006 A 
ATOM      7  C   UNL     1       1.070  -2.205  -0.048  0.00  0.00    +0.039 C 
ATOM      8  C   UNL     1       2.129  -2.960   0.696  0.00  0.00    +0.029 C 
ATOM      9  C   UNL     1       3.450  -3.006  -0.033  0.00  0.00    +0.140 C 
ATOM     10  C   UNL     1       4.161  -1.702   0.015  0.00  0.00    +0.201 C 
ATOM     11  N   UNL     1       3.636  -0.563  -0.009  0.00  0.00    -0.216 NA
ENDROOT
BRANCH  10  12
ATOM     12  O   UNL     1       5.507  -1.747   0.093  0.00  0.00    -0.495 OA
ATOM     13  H   UNL     1       5.929  -0.878   0.122  0.00  0.00    +0.293 HD
ENDBRANCH  10  12
BRANCH   9  14
ATOM     14  S   UNL     1       4.498  -4.275   0.728  0.00  0.00    -0.071 S 
BRANCH  14  15
ATOM     15  C   UNL     1       5.927  -4.321  -0.302  0.00  0.00    +0.215 A 
ATOM     16  N   UNL     1       6.147  -3.581  -1.367  0.00  0.00    -0.101 NA
ATOM     17  N   UNL     1       7.287  -3.867  -1.885  0.00  0.00    -0.022 NA
ATOM     18  N   UNL     1       7.871  -4.793  -1.205  0.00  0.00    -0.038 NA
ATOM     19  N   UNL     1       7.011  -5.122  -0.143  0.00  0.00    -0.187 N 
BRANCH  19  20
ATOM     20  C   UNL     1       7.226  -6.075   0.864  0.00  0.00    +0.070 A 
ATOM     21  C   UNL     1       6.751  -5.849   2.148  0.00  0.00    +0.029 A 
ATOM     22  C   UNL     1       6.963  -6.790   3.137  0.00  0.00    +0.022 A 
ATOM     23  C   UNL     1       7.648  -7.957   2.848  0.00  0.00    +0.041 A 
ATOM     24  C   UNL     1       8.123  -8.184   1.569  0.00  0.00    +0.022 A 
ATOM     25  C   UNL     1       7.908  -7.249   0.575  0.00  0.00    +0.029 A 
ATOM     26 CL   UNL     1       7.914  -9.136   4.094  0.00  0.00    -0.084 Cl
ENDBRANCH  19  20
ENDBRANCH  14  15
ENDBRANCH   9  14
TORSDOF 4
