REMARK  Name = ZINC42535664
REMARK  9 active torsions:
REMARK  status: ('A' for Active; 'I' for Inactive)
REMARK    1  A    between atoms: C_1  and  C_2
REMARK    2  A    between atoms: C_2  and  C_3
REMARK    3  A    between atoms: C_3  and  C_4
REMARK    4  A    between atoms: C_3  and  N_6
REMARK    5  A    between atoms: C_4  and  C_5
REMARK    6  A    between atoms: C_7  and  C_9
REMARK    7  A    between atoms: C_9  and  C_11
REMARK    8  A    between atoms: C_9  and  N_12
REMARK    9  A    between atoms: C_15  and  N_18
REMARK                            x       y       z     vdW  Elec       q    Type
REMARK                         _______ _______ _______ _____ _____    ______ ____
ROOT
ATOM      1  N   UNL     1       0.676   0.626  -5.983  0.00  0.00    +0.387 N 
ATOM      2  C   UNL     1      -0.086   1.117  -7.138  0.00  0.00    -0.076 C 
ATOM      3  C   UNL     1       0.844   1.254  -8.346  0.00  0.00    +0.006 C 
ATOM      4  C   UNL     1       1.963   2.244  -8.013  0.00  0.00    +0.089 C 
ATOM      5  C   UNL     1       2.704   1.760  -6.763  0.00  0.00    +0.006 C 
ATOM      6  C   UNL     1       1.706   1.605  -5.613  0.00  0.00    -0.076 C 
ATOM      7  H   UNL     1       1.117  -0.250  -6.221  0.00  0.00    -0.081 HD
ENDROOT
BRANCH   4   8
ATOM      8  N   UNL     1       2.899   2.322  -9.137  0.00  0.00    -0.289 N 
ATOM      9  C   UNL     1       3.207   3.470  -9.863  0.00  0.00    +0.070 A 
ATOM     10  C   UNL     1       2.783   4.788  -9.784  0.00  0.00    +0.028 A 
ATOM     11  C   UNL     1       3.282   5.725 -10.668  0.00  0.00    +0.002 A 
ATOM     12  C   UNL     1       4.203   5.354 -11.632  0.00  0.00    +0.002 A 
ATOM     13  C   UNL     1       4.630   4.043 -11.719  0.00  0.00    +0.028 A 
ATOM     14  C   UNL     1       4.136   3.096 -10.836  0.00  0.00    +0.067 A 
ATOM     15  N   UNL     1       4.364   1.732 -10.671  0.00  0.00    -0.306 N 
ATOM     16  H   UNL     1       4.965   1.188 -11.204  0.00  0.00    +0.170 HD
ATOM     17  C   UNL     1       3.613   1.298  -9.641  0.00  0.00    +0.328 A 
ATOM     18  O   UNL     1       3.581   0.153  -9.230  0.00  0.00    -0.247 OA
ENDBRANCH   4   8
BRANCH   1  19
ATOM     19  C   UNL     1      -0.234   0.422  -4.849  0.00  0.00    +0.016 C 
ATOM     20  C   UNL     1      -1.302  -0.605  -5.230  0.00  0.00    -0.004 C 
BRANCH  19  22
ATOM     21  N   UNL     1       0.122   0.190  -2.412  0.00  0.00    -0.314 N 
ATOM     22  C   UNL     1       0.546  -0.081  -3.662  0.00  0.00    +0.199 C 
ATOM     23  O   UNL     1       1.557  -0.730  -3.832  0.00  0.00    -0.278 OA
ATOM     24  H   UNL     1      -0.686   0.709  -2.276  0.00  0.00    +0.149 HD
BRANCH  21  25
ATOM     25  C   UNL     1       0.881  -0.300  -1.259  0.00  0.00    +0.072 C 
BRANCH  25  27
ATOM     26  C   UNL     1       1.151   2.002  -0.325  0.00  0.00    +0.006 C 
ATOM     27  C   UNL     1       0.609   0.598  -0.050  0.00  0.00    +0.019 C 
ENDBRANCH  25  27
BRANCH  25  28
ATOM     28  C   UNL     1       0.452  -1.733  -0.936  0.00  0.00    +0.019 C 
ATOM     29  C   UNL     1       0.838  -2.654  -2.096  0.00  0.00    +0.006 C 
ENDBRANCH  25  28
ENDBRANCH  21  25
ENDBRANCH  19  22
ENDBRANCH   1  19
TORSDOF 6
