REMARK  Name = ZINC03212604
REMARK  2 active torsions:
REMARK  status: ('A' for Active; 'I' for Inactive)
REMARK    1  A    between atoms: C_6  and  N_7
REMARK    2  A    between atoms: N_17  and  C_18
REMARK                            x       y       z     vdW  Elec       q    Type
REMARK                         _______ _______ _______ _____ _____    ______ ____
ROOT
ATOM      1  N   UNL     1       2.420   1.138  -0.007  0.00  0.00    -0.297 N 
ATOM      2  C   UNL     1       3.584   1.816  -0.312  0.00  0.00    +0.166 A 
ATOM      3  C   UNL     1       4.844   1.074  -0.442  0.00  0.00    +0.166 A 
ATOM      4  N   UNL     1       5.965   1.701  -0.732  0.00  0.00    -0.203 NA
ATOM      5  C   UNL     1       5.954   3.028  -0.909  0.00  0.00    +0.244 A 
ATOM      6  C   UNL     1       4.681   3.777  -0.778  0.00  0.00    +0.244 A 
ATOM      7  N   UNL     1       3.551   3.120  -0.487  0.00  0.00    -0.203 NA
ATOM      8  N   UNL     1       5.048   5.015  -1.012  0.00  0.00    -0.027 NA
ATOM      9  O   UNL     1       6.241   5.040  -1.233  0.00  0.00    -0.238 OA
ATOM     10  N   UNL     1       6.818   3.973  -1.195  0.00  0.00    -0.027 NA
ATOM     11  N   UNL     1       4.853  -0.294  -0.259  0.00  0.00    -0.297 N 
ATOM     12  H   UNL     1       2.421   0.169   0.039  0.00  0.00    +0.154 HD
ATOM     13  H   UNL     1       4.020  -0.771  -0.120  0.00  0.00    +0.154 HD
ENDROOT
BRANCH   1  19
ATOM     14  C   UNL     1       0.015   1.305  -0.134  0.00  0.00    +0.025 A 
ATOM     15  C   UNL     1      -1.150   2.008   0.106  0.00  0.00    +0.023 A 
ATOM     16  C   UNL     1      -1.098   3.251   0.710  0.00  0.00    +0.059 A 
ATOM     17  C   UNL     1       0.122   3.793   1.082  0.00  0.00    +0.061 A 
ATOM     18  C   UNL     1       1.290   3.096   0.840  0.00  0.00    +0.044 A 
ATOM     19  C   UNL     1       1.240   1.847   0.233  0.00  0.00    +0.034 A 
ATOM     20 CL   UNL     1       0.182   5.350   1.847  0.00  0.00    -0.082 Cl
ATOM     21 CL   UNL     1      -2.564   4.132   1.009  0.00  0.00    -0.082 Cl
ENDBRANCH   1  19
BRANCH  11  22
ATOM     22  C   UNL     1       6.064  -0.993  -0.273  0.00  0.00    +0.034 A 
ATOM     23  C   UNL     1       6.116  -2.285  -0.782  0.00  0.00    +0.025 A 
ATOM     24  C   UNL     1       7.314  -2.971  -0.800  0.00  0.00    +0.023 A 
ATOM     25  C   UNL     1       8.461  -2.378  -0.302  0.00  0.00    +0.059 A 
ATOM     26  C   UNL     1       8.411  -1.093   0.212  0.00  0.00    +0.061 A 
ATOM     27  C   UNL     1       7.216  -0.399   0.227  0.00  0.00    +0.044 A 
ATOM     28 CL   UNL     1       9.852  -0.352   0.836  0.00  0.00    -0.082 Cl
ATOM     29 CL   UNL     1       9.964  -3.247  -0.321  0.00  0.00    -0.082 Cl
ENDBRANCH  11  22
TORSDOF 2
