REMARK  Name = ZINC40827553
REMARK  5 active torsions:
REMARK  status: ('A' for Active; 'I' for Inactive)
REMARK    1  A    between atoms: C_1  and  C_2
REMARK    2  A    between atoms: C_2  and  N_3
REMARK    3  A    between atoms: N_16  and  N_17
REMARK    4  A    between atoms: C_18  and  C_19
REMARK    5  A    between atoms: C_24  and  O_25
REMARK                            x       y       z     vdW  Elec       q    Type
REMARK                         _______ _______ _______ _____ _____    ______ ____
ROOT
ATOM      1  N   UNL     1       0.711  -0.489   1.189  0.00  0.00    -0.324 N 
ATOM      2  C   UNL     1       2.074  -0.730   1.253  0.00  0.00    +0.053 A 
ATOM      3  C   UNL     1       3.092  -0.601   0.314  0.00  0.00    +0.028 A 
ATOM      4  C   UNL     1       4.390  -0.918   0.654  0.00  0.00    +0.022 A 
ATOM      5  C   UNL     1       4.695  -1.366   1.931  0.00  0.00    +0.042 A 
ATOM      6  C   UNL     1       3.699  -1.500   2.876  0.00  0.00    +0.032 A 
ATOM      7  C   UNL     1       2.384  -1.183   2.544  0.00  0.00    +0.031 A 
ATOM      8  C   UNL     1       1.115  -1.210   3.291  0.00  0.00    +0.138 A 
ATOM      9  C   UNL     1       0.119  -0.765   2.397  0.00  0.00    +0.166 A 
ATOM     10  N   UNL     1      -1.134  -0.692   2.834  0.00  0.00    -0.192 NA
ATOM     11  C   UNL     1      -1.406  -1.034   4.086  0.00  0.00    +0.256 A 
ATOM     12  N   UNL     1      -0.450  -1.448   4.911  0.00  0.00    -0.111 NA
ATOM     13  N   UNL     1       0.777  -1.542   4.529  0.00  0.00    -0.142 NA
ATOM     14  N   UNL     1      -2.711  -0.959   4.543  0.00  0.00    -0.204 N 
ATOM     15 CL   UNL     1       6.335  -1.760   2.341  0.00  0.00    -0.084 Cl
ATOM     16  H   UNL     1      -3.416  -0.658   3.949  0.00  0.00    +0.177 HD
ENDROOT
BRANCH   1  18
ATOM     17  C   UNL     1      -0.019   1.526   0.010  0.00  0.00    +0.027 C 
ATOM     18  C   UNL     1       0.002  -0.004   0.002  0.00  0.00    +0.120 C 
ENDBRANCH   1  18
BRANCH  14  19
ATOM     19  N   UNL     1      -3.013  -1.317   5.863  0.00  0.00    -0.187 NA
ATOM     20  C   UNL     1      -4.236  -1.247   6.291  0.00  0.00    +0.142 C 
BRANCH  20  21
ATOM     21  C   UNL     1      -4.554  -1.624   7.680  0.00  0.00    +0.036 A 
ATOM     22  C   UNL     1      -5.870  -1.555   8.143  0.00  0.00    +0.013 A 
ATOM     23  C   UNL     1      -6.160  -1.909   9.444  0.00  0.00    +0.001 A 
ATOM     24  C   UNL     1      -5.152  -2.333  10.293  0.00  0.00    +0.004 A 
ATOM     25  C   UNL     1      -3.846  -2.406   9.847  0.00  0.00    +0.046 A 
ATOM     26  C   UNL     1      -3.538  -2.059   8.542  0.00  0.00    +0.125 A 
BRANCH  26  27
ATOM     27  O   UNL     1      -2.255  -2.135   8.101  0.00  0.00    -0.506 OA
ATOM     28  H   UNL     1      -1.746  -1.324   8.232  0.00  0.00    +0.292 HD
ENDBRANCH  26  27
ENDBRANCH  20  21
ENDBRANCH  14  19
TORSDOF 4
