REMARK  Name = ZINC36005432
REMARK  15 active torsions:
REMARK  status: ('A' for Active; 'I' for Inactive)
REMARK    1  A    between atoms: C_1  and  C_2
REMARK    2  A    between atoms: C_2  and  C_3
REMARK    3  A    between atoms: C_3  and  N_4
REMARK    4  A    between atoms: N_10  and  C_15
REMARK    5  A    between atoms: C_12  and  C_14
REMARK    6  A    between atoms: C_15  and  C_16
REMARK    7  A    between atoms: C_17  and  C_34
REMARK    8  A    between atoms: C_18  and  C_25
REMARK    9  A    between atoms: N_23  and  C_24
REMARK   10  A    between atoms: C_28  and  C_31
REMARK   11  A    between atoms: C_31  and  C_32
REMARK   12  A    between atoms: C_31  and  C_33
REMARK   13  A    between atoms: C_34  and  O_36
REMARK   14  A    between atoms: O_36  and  C_37
REMARK   15  A    between atoms: C_37  and  C_38
REMARK                            x       y       z     vdW  Elec       q    Type
REMARK                         _______ _______ _______ _____ _____    ______ ____
ROOT
ATOM      1  C   UNL     1      -1.478  -8.752   1.026  0.00  0.00    +0.041 C 
ATOM      2  C   UNL     1      -0.449  -8.865   1.894  0.00  0.00    +0.080 C 
ATOM      3  C   UNL     1       0.710  -9.759   1.502  0.00  0.00    +0.144 C 
ATOM      4  N   UNL     1       0.619 -10.435   0.197  0.00  0.00    -0.288 N 
ATOM      5  C   UNL     1      -0.475 -10.223  -0.561  0.00  0.00    +0.307 C 
ATOM      6  O   UNL     1      -0.559 -10.777  -1.640  0.00  0.00    -0.252 OA
ATOM      7  N   UNL     1      -1.474  -9.426  -0.162  0.00  0.00    -0.260 N 
ATOM      8  C   UNL     1      -2.625  -9.262  -1.053  0.00  0.00    +0.139 C 
ATOM      9  H   UNL     1       1.330 -11.020  -0.110  0.00  0.00    +0.151 HD
ENDROOT
BRANCH   3  10
ATOM     10  C   UNL     1       1.963  -8.922   1.504  0.00  0.00    -0.022 A 
ATOM     11  C   UNL     1       2.247  -8.099   0.430  0.00  0.00    +0.006 A 
ATOM     12  C   UNL     1       3.396  -7.331   0.432  0.00  0.00    +0.004 A 
ATOM     13  C   UNL     1       4.262  -7.386   1.508  0.00  0.00    -0.045 A 
ATOM     14  C   UNL     1       3.978  -8.207   2.583  0.00  0.00    +0.004 A 
ATOM     15  C   UNL     1       2.826  -8.972   2.583  0.00  0.00    +0.006 A 
BRANCH  13  16
ATOM     16  C   UNL     1       5.515  -6.549   1.510  0.00  0.00    +0.013 C 
ATOM     17  C   UNL     1       5.491  -5.597   2.707  0.00  0.00    +0.012 C 
ATOM     18  C   UNL     1       6.738  -7.463   1.611  0.00  0.00    +0.012 C 
ENDBRANCH  13  16
ENDBRANCH   3  10
BRANCH   2  19
ATOM     19  C   UNL     1      -0.454  -8.172   3.127  0.00  0.00    +0.339 C 
ATOM     20  O   UNL     1       0.126  -7.108   3.229  0.00  0.00    -0.245 OA
BRANCH  19  21
ATOM     21  O   UNL     1      -1.102  -8.692   4.191  0.00  0.00    -0.462 OA
BRANCH  21  22
ATOM     22  C   UNL     1      -1.066  -7.939   5.404  0.00  0.00    +0.229 C 
ATOM     23  C   UNL     1      -1.849  -8.681   6.489  0.00  0.00    +0.048 C 
ENDBRANCH  21  22
ENDBRANCH  19  21
ENDBRANCH   2  19
BRANCH   1  24
ATOM     24  C   UNL     1      -2.651  -7.874   1.377  0.00  0.00    +0.136 C 
BRANCH  24  31
ATOM     25  N   UNL     1      -1.848  -2.045  -0.593  0.00  0.00    -0.299 N 
ATOM     26  C   UNL     1      -2.966  -2.791  -0.495  0.00  0.00    +0.303 C 
ATOM     27  O   UNL     1      -4.050  -2.251  -0.387  0.00  0.00    -0.253 OA
ATOM     28  N   UNL     1      -2.883  -4.136  -0.517  0.00  0.00    -0.280 N 
ATOM     29  C   UNL     1      -1.576  -4.811  -0.529  0.00  0.00    +0.125 C 
ATOM     30  C   UNL     1      -1.561  -5.862   0.586  0.00  0.00    +0.104 C 
ATOM     31  N   UNL     1      -2.721  -6.750   0.433  0.00  0.00    -0.294 NA
ATOM     32  C   UNL     1      -3.981  -6.012   0.586  0.00  0.00    +0.107 C 
ATOM     33  C   UNL     1      -4.096  -4.968  -0.523  0.00  0.00    +0.088 C 
ATOM     34  C   UNL     1      -5.323  -4.088  -0.274  0.00  0.00    +0.029 C 
ATOM     35  H   UNL     1      -0.978  -2.474  -0.607  0.00  0.00    +0.150 HD
BRANCH  25  36
ATOM     36  C   UNL     1      -1.947  -0.585  -0.679  0.00  0.00    +0.105 C 
BRANCH  36  38
ATOM     37  C   UNL     1      -0.646   1.539  -0.870  0.00  0.00    +0.005 C 
ATOM     38  C   UNL     1      -0.543   0.015  -0.781  0.00  0.00    +0.015 C 
ENDBRANCH  36  38
ENDBRANCH  25  36
ENDBRANCH  24  31
ENDBRANCH   1  24
TORSDOF 9
