REMARK  Name = ZINC03296064
REMARK  7 active torsions:
REMARK  status: ('A' for Active; 'I' for Inactive)
REMARK    1  A    between atoms: C_6  and  C_7
REMARK    2  A    between atoms: C_10  and  S_13
REMARK    3  A    between atoms: N_11  and  N_12
REMARK    4  A    between atoms: S_13  and  C_14
REMARK    5  A    between atoms: C_14  and  C_15
REMARK    6  A    between atoms: N_17  and  C_18
REMARK    7  A    between atoms: C_19  and  C_28
REMARK                            x       y       z     vdW  Elec       q    Type
REMARK                         _______ _______ _______ _____ _____    ______ ____
ROOT
ATOM      1  C   UNL     1      -0.172  -4.812   0.042  0.00  0.00    +0.173 C 
ENDROOT
BRANCH   1   2
ATOM      2  C   UNL     1      -0.728  -6.205   0.193  0.00  0.00    +0.228 C 
ATOM      3  O   UNL     1      -1.887  -6.363   0.515  0.00  0.00    -0.275 OA
ATOM      4  N   UNL     1       0.062  -7.274  -0.028  0.00  0.00    -0.278 N 
ATOM      5  H   UNL     1       0.989  -7.147  -0.285  0.00  0.00    +0.155 HD
BRANCH   4   6
ATOM      6  C   UNL     1      -0.450  -8.556   0.112  0.00  0.00    +0.090 A 
ATOM      7  C   UNL     1       0.196  -9.767  -0.076  0.00  0.00    +0.084 A 
ATOM      8  C   UNL     1      -0.570 -10.986   0.143  0.00  0.00    -0.018 A 
ATOM      9  C   UNL     1      -1.859 -10.792   0.496  0.00  0.00    -0.004 A 
ATOM     10  S   UNL     1      -2.055  -9.032   0.556  0.00  0.00    -0.077 S 
ATOM     11  C   UNL     1      -2.901 -11.833   0.765  0.00  0.00    +0.043 C 
ATOM     12  C   UNL     1      -2.329 -12.886   1.723  0.00  0.00    +0.005 C 
ATOM     13  C   UNL     1      -1.661 -13.979   0.894  0.00  0.00    +0.001 C 
ATOM     14  C   UNL     1      -1.051 -13.380  -0.372  0.00  0.00    +0.005 C 
ATOM     15  C   UNL     1       0.037 -12.374  -0.015  0.00  0.00    +0.037 C 
BRANCH   7  16
ATOM     16  C   UNL     1       1.572  -9.818  -0.468  0.00  0.00    +0.102 C 
ATOM     17  N   UNL     1       2.664  -9.858  -0.779  0.00  0.00    -0.191 NA
ENDBRANCH   7  16
ENDBRANCH   4   6
ENDBRANCH   1   2
BRANCH   1  18
ATOM     18  S   UNL     1      -1.468  -3.602   0.404  0.00  0.00    -0.075 S 
BRANCH  18  22
ATOM     19  C   UNL     1       0.002  -0.004   0.002  0.00  0.00    +0.182 A 
ATOM     20  N   UNL     1       1.028  -0.769  -0.291  0.00  0.00    -0.127 NA
ATOM     21  N   UNL     1       0.695  -2.006  -0.194  0.00  0.00    -0.121 NA
ATOM     22  C   UNL     1      -0.568  -2.107   0.157  0.00  0.00    +0.209 A 
ATOM     23  N   UNL     1      -1.053  -0.838   0.294  0.00  0.00    -0.224 N 
BRANCH  19  29
ATOM     24  C   UNL     1      -1.235   2.158   0.020  0.00  0.00    +0.013 A 
ATOM     25  C   UNL     1      -1.247   3.538   0.032  0.00  0.00    +0.021 A 
ATOM     26  C   UNL     1      -0.056   4.243   0.024  0.00  0.00    +0.041 A 
ATOM     27  C   UNL     1       1.155   3.570   0.010  0.00  0.00    +0.021 A 
ATOM     28  C   UNL     1       1.180   2.191   0.003  0.00  0.00    +0.013 A 
ATOM     29  C   UNL     1      -0.018   1.474   0.010  0.00  0.00    +0.021 A 
ATOM     30 CL   UNL     1      -0.079   5.979   0.032  0.00  0.00    -0.084 Cl
ENDBRANCH  19  29
BRANCH  23  31
ATOM     31  N   UNL     1      -2.321  -0.472   0.647  0.00  0.00    -0.295 N 
ATOM     32  H   UNL     1      -2.909  -0.374  -0.167  0.00  0.00    +0.163 HD
ATOM     33  H   UNL     1      -2.717  -1.129   1.302  0.00  0.00    +0.163 HD
ENDBRANCH  23  31
ENDBRANCH  18  22
ENDBRANCH   1  18
TORSDOF 7
