REMARK  Name = ZINC65531029
REMARK  4 active torsions:
REMARK  status: ('A' for Active; 'I' for Inactive)
REMARK    1  A    between atoms: C_1  and  C_2
REMARK    2  A    between atoms: C_2  and  C_29
REMARK    3  A    between atoms: C_8  and  C_11
REMARK    4  A    between atoms: C_21  and  N_23
REMARK                            x       y       z     vdW  Elec       q    Type
REMARK                         _______ _______ _______ _____ _____    ______ ____
ROOT
ATOM      1  C   UNL     1       2.994  -0.735   3.127  0.00  0.00    +0.063 C 
ATOM      2  C   UNL     1       3.794   0.435   3.700  0.00  0.00    +0.109 C 
ATOM      3  C   UNL     1       5.267   0.136   3.624  0.00  0.00    +0.218 C 
ATOM      4  O   UNL     1       6.051   1.034   3.401  0.00  0.00    -0.275 OA
ATOM      5  N   UNL     1       5.725  -1.117   3.799  0.00  0.00    -0.285 N 
ATOM      6  C   UNL     1       4.836  -2.169   4.041  0.00  0.00    +0.039 A 
ATOM      7  C   UNL     1       3.490  -2.025   3.728  0.00  0.00    -0.018 A 
ATOM      8  C   UNL     1       2.609  -3.062   3.965  0.00  0.00    +0.008 A 
ATOM      9  C   UNL     1       3.063  -4.246   4.515  0.00  0.00    +0.024 A 
ATOM     10  C   UNL     1       4.407  -4.396   4.830  0.00  0.00    +0.040 A 
ATOM     11  C   UNL     1       5.294  -3.356   4.593  0.00  0.00    +0.047 A 
ATOM     12  H   UNL     1       6.678  -1.292   3.757  0.00  0.00    +0.155 HD
ENDROOT
BRANCH   1  20
ATOM     13  C   UNL     1       0.004   1.524  -0.013  0.00  0.00    +0.056 C 
ATOM     14  C   UNL     1       0.033  -0.006  -0.028  0.00  0.00    +0.109 C 
ATOM     15  C   UNL     1       0.879  -0.527  -1.214  0.00  0.00    +0.086 C 
ATOM     16  C   UNL     1       2.245  -0.692  -0.577  0.00  0.00    -0.002 A 
ATOM     17  C   UNL     1       3.502  -0.854  -1.115  0.00  0.00    +0.007 A 
ATOM     18  C   UNL     1       4.600  -0.977  -0.281  0.00  0.00    +0.001 A 
ATOM     19  C   UNL     1       4.428  -0.936   1.091  0.00  0.00    +0.008 A 
ATOM     20  C   UNL     1       3.169  -0.777   1.631  0.00  0.00    +0.002 A 
ATOM     21  C   UNL     1       2.059  -0.657   0.799  0.00  0.00    +0.128 A 
ATOM     22  O   UNL     1       0.743  -0.513   1.115  0.00  0.00    -0.485 OA
ATOM     23  C   UNL     1      -1.387  -0.572  -0.080  0.00  0.00    +0.056 C 
ENDBRANCH   1  20
BRANCH  10  24
ATOM     24  N   UNL     1       4.866  -5.595   5.386  0.00  0.00    -0.254 N 
ATOM     25  C   UNL     1       4.018  -6.727   5.790  0.00  0.00    +0.134 C 
ATOM     26  C   UNL     1       5.021  -7.765   6.330  0.00  0.00    +0.125 C 
ATOM     27  N   UNL     1       6.327  -7.109   6.172  0.00  0.00    -0.297 N 
ATOM     28  C   UNL     1       6.148  -5.897   5.630  0.00  0.00    +0.307 C 
ATOM     29  O   UNL     1       7.066  -5.138   5.386  0.00  0.00    -0.252 OA
ATOM     30  H   UNL     1       7.183  -7.494   6.418  0.00  0.00    +0.150 HD
ENDBRANCH  10  24
TORSDOF 2
