REMARK  Name = ZINC00090938
REMARK  3 active torsions:
REMARK  status: ('A' for Active; 'I' for Inactive)
REMARK    1  A    between atoms: C_1  and  C_2
REMARK    2  A    between atoms: N_7  and  S_8
REMARK    3  A    between atoms: S_8  and  C_11
REMARK                            x       y       z     vdW  Elec       q    Type
REMARK                         _______ _______ _______ _____ _____    ______ ____
ROOT
ATOM      1  S   UNL     1       3.591  -1.782  -0.042  0.00  0.00    +0.074 S 
ATOM      2  O   UNL     1       3.846  -3.180  -0.024  0.00  0.00    -0.150 OA
ATOM      3  O   UNL     1       4.083  -0.931  -1.067  0.00  0.00    -0.150 OA
ENDROOT
BRANCH   1  10
ATOM      4  C   UNL     1      -1.237   2.232   0.020  0.00  0.00    +0.089 C 
ATOM      5  C   UNL     1      -0.016   1.348   0.009  0.00  0.00    +0.136 A 
ATOM      6  C   UNL     1       0.002  -0.004   0.002  0.00  0.00    +0.092 A 
ATOM      7  C   UNL     1       1.385  -0.328  -0.013  0.00  0.00    +0.181 A 
ATOM      8  N   UNL     1       2.027   0.812  -0.013  0.00  0.00    -0.062 NA
ATOM      9  O   UNL     1       1.263   1.749  -0.001  0.00  0.00    -0.358 OA
ATOM     10  N   UNL     1       1.945  -1.601  -0.025  0.00  0.00    -0.197 N 
ATOM     11  H   UNL     1       1.371  -2.383  -0.023  0.00  0.00    +0.175 HD
ENDBRANCH   1  10
BRANCH   1  12
ATOM     12  C   UNL     1       4.201  -1.140   1.482  0.00  0.00    +0.111 A 
ATOM     13  C   UNL     1       4.560   0.192   1.575  0.00  0.00    +0.049 A 
ATOM     14  C   UNL     1       5.034   0.698   2.773  0.00  0.00    +0.044 A 
ATOM     15  C   UNL     1       5.159  -0.131   3.873  0.00  0.00    +0.040 A 
ATOM     16  C   UNL     1       4.806  -1.465   3.776  0.00  0.00    +0.044 A 
ATOM     17  C   UNL     1       4.327  -1.969   2.580  0.00  0.00    +0.049 A 
ATOM     18 CL   UNL     1       4.962  -2.506   5.157  0.00  0.00    -0.083 Cl
ATOM     19 CL   UNL     1       5.477   2.373   2.892  0.00  0.00    -0.083 Cl
ENDBRANCH   1  12
TORSDOF 2
