REMARK  Name = ZINC12907766
REMARK  10 active torsions:
REMARK  status: ('A' for Active; 'I' for Inactive)
REMARK    1  A    between atoms: C_1  and  C_2
REMARK    2  A    between atoms: C_2  and  C_4
REMARK    3  A    between atoms: C_2  and  N_52
REMARK    4  A    between atoms: C_6  and  O_12
REMARK    5  A    between atoms: C_9  and  O_10
REMARK    6  A    between atoms: O_10  and  C_11
REMARK    7  A    between atoms: O_12  and  C_13
REMARK    8  A    between atoms: C_14  and  C_15
REMARK    9  A    between atoms: C_14  and  N_52
REMARK   10  A    between atoms: C_21  and  C_26
REMARK                            x       y       z     vdW  Elec       q    Type
REMARK                         _______ _______ _______ _____ _____    ______ ____
ROOT
ATOM      1  C   UNL     1      -0.799   3.493  -1.076  0.00  0.00    +0.094 A 
ATOM      2  N   UNL     1      -1.468   4.188  -2.031  0.00  0.00    -0.312 N 
ATOM      3  H   UNL     1      -1.939   3.705  -2.729  0.00  0.00    +0.170 HD
ATOM      4  C   UNL     1      -1.491   5.534  -2.030  0.00  0.00    +0.260 A 
ATOM      5  O   UNL     1      -2.097   6.143  -2.895  0.00  0.00    -0.267 OA
ATOM      6  C   UNL     1      -0.794   6.239  -0.998  0.00  0.00    +0.080 A 
ATOM      7  C   UNL     1      -0.672   7.676  -0.782  0.00  0.00    +0.005 A 
ATOM      8  C   UNL     1       0.048   8.116   0.278  0.00  0.00    +0.056 A 
ATOM      9  S   UNL     1       0.606   6.611   1.052  0.00  0.00    -0.076 S 
ATOM     10  C   UNL     1      -0.132   5.437  -0.054  0.00  0.00    +0.116 A 
ATOM     11  N   UNL     1      -0.159   4.108  -0.118  0.00  0.00    -0.229 NA
ENDROOT
BRANCH   7  12
ATOM     12  C   UNL     1      -1.324   8.636  -1.704  0.00  0.00    +0.002 A 
ATOM     13  C   UNL     1      -0.549   9.498  -2.479  0.00  0.00    +0.010 A 
ATOM     14  C   UNL     1      -1.160  10.385  -3.341  0.00  0.00    +0.001 A 
ATOM     15  C   UNL     1      -2.540  10.430  -3.428  0.00  0.00    +0.001 A 
ATOM     16  C   UNL     1      -3.316   9.582  -2.658  0.00  0.00    +0.020 A 
ATOM     17  C   UNL     1      -2.715   8.685  -1.796  0.00  0.00    +0.049 A 
ATOM     18 CL   UNL     1      -3.689   7.621  -0.830  0.00  0.00    -0.083 Cl
ENDBRANCH   7  12
BRANCH   1  19
ATOM     19  C   UNL     1      -0.802   1.987  -1.117  0.00  0.00    -0.006 C 
BRANCH  19  20
ATOM     20  N   UNL     1      -0.013   1.471   0.017  0.00  0.00    +0.388 N 
ATOM     21  H   UNL     1       0.950   1.820  -0.053  0.00  0.00    -0.084 HD
ATOM     22  H   UNL     1      -0.432   1.796   0.897  0.00  0.00    -0.084 HD
BRANCH  20  24
ATOM     23  C   UNL     1       1.122  -0.494  -0.918  0.00  0.00    -0.009 C 
ATOM     24  C   UNL     1       0.002  -0.004   0.002  0.00  0.00    -0.040 C 
BRANCH  24  25
ATOM     25  C   UNL     1       0.243  -0.511   1.401  0.00  0.00    -0.017 A 
ATOM     26  C   UNL     1       0.810   0.320   2.348  0.00  0.00    +0.051 A 
ATOM     27  C   UNL     1       1.028  -0.145   3.636  0.00  0.00    +0.121 A 
ATOM     28  C   UNL     1       0.687  -1.448   3.971  0.00  0.00    +0.049 A 
ATOM     29  C   UNL     1       0.125  -2.279   3.022  0.00  0.00    +0.049 A 
ATOM     30  C   UNL     1      -0.098  -1.813   1.735  0.00  0.00    +0.122 A 
BRANCH  30  31
ATOM     31  O   UNL     1      -0.652  -2.632   0.801  0.00  0.00    -0.495 OA
ATOM     32  C   UNL     1      -0.979  -3.960   1.215  0.00  0.00    +0.277 C 
ENDBRANCH  30  31
BRANCH  27  33
ATOM     33  O   UNL     1       1.581   0.674   4.570  0.00  0.00    -0.495 OA
ATOM     34  C   UNL     1       1.782   0.127   5.875  0.00  0.00    +0.277 C 
ENDBRANCH  27  33
ENDBRANCH  24  25
ENDBRANCH  20  24
ENDBRANCH  19  20
ENDBRANCH   1  19
TORSDOF 7
