REMARK  Name = ZINC08769377
REMARK  12 active torsions:
REMARK  status: ('A' for Active; 'I' for Inactive)
REMARK    1  A    between atoms: C_1  and  C_2
REMARK    2  A    between atoms: C_2  and  C_3
REMARK    3  A    between atoms: C_3  and  C_4
REMARK    4  A    between atoms: C_4  and  C_5
REMARK    5  A    between atoms: C_11  and  C_15
REMARK    6  A    between atoms: C_15  and  C_16
REMARK    7  A    between atoms: C_16  and  N_17
REMARK    8  A    between atoms: C_18  and  C_19
REMARK    9  A    between atoms: C_18  and  C_36
REMARK   10  A    between atoms: N_25  and  C_28
REMARK   11  A    between atoms: C_31  and  O_34
REMARK   12  A    between atoms: O_34  and  C_35
REMARK                            x       y       z     vdW  Elec       q    Type
REMARK                         _______ _______ _______ _____ _____    ______ ____
ROOT
ATOM      1  N   UNL     1      -0.408   0.914  -0.775  0.00  0.00    -0.286 NA
ATOM      2  C   UNL     1      -1.569   1.541  -0.428  0.00  0.00    +0.064 C 
ENDROOT
BRANCH   2   3
ATOM      3  C   UNL     1      -2.518   0.875   0.352  0.00  0.00    +0.210 C 
ATOM      4  C   UNL     1      -2.378  -0.553   0.675  0.00  0.00    +0.238 C 
ATOM      5  O   UNL     1      -1.427  -1.195   0.270  0.00  0.00    -0.274 OA
ATOM      6  N   UNL     1      -3.329  -1.131   1.438  0.00  0.00    -0.238 N 
ATOM      7  C   UNL     1      -4.384  -0.437   1.887  0.00  0.00    +0.319 C 
ATOM      8  O   UNL     1      -5.209  -1.016   2.566  0.00  0.00    -0.251 OA
ATOM      9  N   UNL     1      -4.576   0.864   1.625  0.00  0.00    -0.193 N 
ATOM     10  C   UNL     1      -3.701   1.570   0.880  0.00  0.00    +0.245 C 
ATOM     11  O   UNL     1      -3.887   2.750   0.649  0.00  0.00    -0.274 OA
ATOM     12  H   UNL     1      -3.249  -2.071   1.663  0.00  0.00    +0.159 HD
BRANCH   9  13
ATOM     13  C   UNL     1      -5.713   1.506   2.139  0.00  0.00    +0.046 A 
ATOM     14  C   UNL     1      -5.580   2.457   3.142  0.00  0.00    +0.027 A 
ATOM     15  C   UNL     1      -6.698   3.092   3.644  0.00  0.00    +0.047 A 
ATOM     16  C   UNL     1      -7.956   2.773   3.154  0.00  0.00    +0.120 A 
ATOM     17  C   UNL     1      -8.090   1.819   2.156  0.00  0.00    +0.047 A 
ATOM     18  C   UNL     1      -6.972   1.187   1.649  0.00  0.00    +0.027 A 
BRANCH  16  19
ATOM     19  O   UNL     1      -9.057   3.396   3.652  0.00  0.00    -0.495 OA
ATOM     20  C   UNL     1      -8.845   4.367   4.678  0.00  0.00    +0.277 C 
ENDBRANCH  16  19
ENDBRANCH   9  13
ENDBRANCH   2   3
BRANCH   2  21
ATOM     21  C   UNL     1      -1.823   2.922  -0.877  0.00  0.00    -0.003 A 
ATOM     22  C   UNL     1      -0.892   3.930  -0.609  0.00  0.00    +0.010 A 
ATOM     23  C   UNL     1      -1.134   5.219  -1.036  0.00  0.00    +0.001 A 
ATOM     24  C   UNL     1      -2.300   5.518  -1.719  0.00  0.00    +0.000 A 
ATOM     25  C   UNL     1      -3.229   4.526  -1.983  0.00  0.00    +0.001 A 
ATOM     26  C   UNL     1      -2.999   3.232  -1.567  0.00  0.00    +0.010 A 
ENDBRANCH   2  21
BRANCH   1  27
ATOM     27  C   UNL     1       0.586   1.613  -1.593  0.00  0.00    +0.146 C 
BRANCH  27  28
ATOM     28  C   UNL     1       1.830   0.735  -1.744  0.00  0.00    +0.060 C 
BRANCH  28  35
ATOM     29  C   UNL     1       5.148   3.895  -0.754  0.00  0.00    -0.047 A 
ATOM     30  C   UNL     1       5.872   4.287  -1.871  0.00  0.00    +0.005 A 
ATOM     31  C   UNL     1       5.589   3.760  -3.112  0.00  0.00    +0.026 A 
ATOM     32  C   UNL     1       4.568   2.825  -3.250  0.00  0.00    +0.047 A 
ATOM     33  C   UNL     1       3.837   2.431  -2.114  0.00  0.00    +0.003 A 
ATOM     34  C   UNL     1       4.141   2.978  -0.866  0.00  0.00    +0.014 A 
ATOM     35  C   UNL     1       2.853   1.454  -2.585  0.00  0.00    -0.021 A 
ATOM     36  C   UNL     1       3.038   1.316  -3.907  0.00  0.00    +0.087 A 
ATOM     37  N   UNL     1       4.056   2.131  -4.323  0.00  0.00    -0.360 N 
ATOM     38  H   UNL     1       4.371   2.207  -5.237  0.00  0.00    +0.165 HD
BRANCH  29  39
ATOM     39  C   UNL     1       5.476   4.484   0.594  0.00  0.00    +0.035 C 
BRANCH  39  40
ATOM     40  C   UNL     1       4.644   5.750   0.812  0.00  0.00    +0.004 C 
BRANCH  40  42
ATOM     41  C   UNL     1       4.144   7.614   2.399  0.00  0.00    +0.004 C 
ATOM     42  C   UNL     1       4.976   6.348   2.181  0.00  0.00    -0.003 C 
ENDBRANCH  40  42
ENDBRANCH  39  40
ENDBRANCH  29  39
ENDBRANCH  28  35
ENDBRANCH  27  28
ENDBRANCH   1  27
TORSDOF 10
