REMARK  Name = ZINC40428620
REMARK  7 active torsions:
REMARK  status: ('A' for Active; 'I' for Inactive)
REMARK    1  A    between atoms: C_1  and  C_2
REMARK    2  A    between atoms: C_2  and  C_3
REMARK    3  A    between atoms: C_5  and  O_11
REMARK    4  A    between atoms: C_6  and  N_10
REMARK    5  A    between atoms: O_11  and  C_12
REMARK    6  A    between atoms: C_14  and  C_25
REMARK    7  A    between atoms: N_16  and  C_17
REMARK                            x       y       z     vdW  Elec       q    Type
REMARK                         _______ _______ _______ _____ _____    ______ ____
ROOT
ATOM      1  C   UNL     1       4.923  -1.091   0.598  0.00  0.00    +0.226 A 
ATOM      2  C   UNL     1       6.245  -1.364   0.430  0.00  0.00    +0.092 A 
ATOM      3  C   UNL     1       6.490  -1.466  -0.943  0.00  0.00    +0.064 A 
ATOM      4  N   UNL     1       5.366  -1.263  -1.581  0.00  0.00    -0.168 NA
ATOM      5  N   UNL     1       4.358  -1.030  -0.637  0.00  0.00    -0.200 N 
ATOM      6  C   UNL     1       7.824  -1.759  -1.580  0.00  0.00    +0.067 C 
ENDROOT
BRANCH   5   7
ATOM      7  C   UNL     1       3.008  -0.776  -0.916  0.00  0.00    +0.075 A 
ATOM      8  C   UNL     1       2.016  -1.351  -0.133  0.00  0.00    +0.066 A 
ATOM      9  C   UNL     1       0.684  -1.098  -0.409  0.00  0.00    +0.128 A 
ATOM     10  C   UNL     1       0.340  -0.273  -1.466  0.00  0.00    +0.076 A 
ATOM     11  C   UNL     1       1.328   0.301  -2.249  0.00  0.00    +0.128 A 
ATOM     12  C   UNL     1       2.661   0.055  -1.972  0.00  0.00    +0.066 A 
ATOM     13  F   UNL     1       0.989   1.106  -3.280  0.00  0.00    -0.205 F 
ATOM     14  F   UNL     1      -0.281  -1.658   0.353  0.00  0.00    -0.205 F 
ENDBRANCH   5   7
BRANCH   1  15
ATOM     15  O   UNL     1       4.284  -0.917   1.783  0.00  0.00    -0.418 OA
BRANCH  15  18
ATOM     16  C   UNL     1       6.965  -1.646   3.979  0.00  0.00    +0.134 A 
ATOM     17  N   UNL     1       6.280  -1.424   2.874  0.00  0.00    -0.196 NA
ATOM     18  C   UNL     1       4.983  -1.145   2.923  0.00  0.00    +0.248 A 
ATOM     19  C   UNL     1       4.349  -1.090   4.169  0.00  0.00    +0.125 A 
ATOM     20  C   UNL     1       5.111  -1.331   5.305  0.00  0.00    +0.157 A 
ATOM     21  N   UNL     1       6.401  -1.608   5.169  0.00  0.00    -0.218 NA
ATOM     22 CL   UNL     1       4.384  -1.278   6.881  0.00  0.00    -0.060 Cl
BRANCH  19  23
ATOM     23  N   UNL     1       2.982  -0.799   4.268  0.00  0.00    -0.351 N 
ATOM     24  H   UNL     1       2.463  -0.632   3.466  0.00  0.00    +0.143 HD
ATOM     25  H   UNL     1       2.556  -0.764   5.138  0.00  0.00    +0.143 HD
ENDBRANCH  19  23
BRANCH  16  27
ATOM     26  C   UNL     1       8.621  -3.456   3.618  0.00  0.00    +0.012 C 
ATOM     27  C   UNL     1       8.435  -1.960   3.877  0.00  0.00    +0.073 C 
ENDBRANCH  16  27
ENDBRANCH  15  18
ENDBRANCH   1  15
TORSDOF 5
