REMARK  Name = ZINC54580961
REMARK  6 active torsions:
REMARK  status: ('A' for Active; 'I' for Inactive)
REMARK    1  A    between atoms: C_1  and  C_2
REMARK    2  A    between atoms: C_2  and  C_4
REMARK    3  A    between atoms: C_2  and  N_15
REMARK    4  A    between atoms: C_7  and  S_10
REMARK    5  A    between atoms: S_10  and  N_13
REMARK    6  A    between atoms: N_13  and  C_14
REMARK                            x       y       z     vdW  Elec       q    Type
REMARK                         _______ _______ _______ _____ _____    ______ ____
ROOT
ATOM      1  C   UNL     1      -0.019   1.526   0.010  0.00  0.00    +0.033 C 
ATOM      2  C   UNL     1       0.002  -0.004   0.002  0.00  0.00    +0.102 C 
ENDROOT
BRANCH   2   3
ATOM      3  N   UNL     1      -1.372  -0.511   0.012  0.00  0.00    -0.293 N 
ATOM      4  C   UNL     1      -2.051  -0.643  -1.145  0.00  0.00    +0.303 C 
ATOM      5  O   UNL     1      -1.522  -0.341  -2.197  0.00  0.00    -0.253 OA
ATOM      6  N   UNL     1      -3.315  -1.109  -1.135  0.00  0.00    -0.286 N 
ATOM      7  C   UNL     1      -3.964  -1.471   0.133  0.00  0.00    +0.109 C 
ATOM      8  C   UNL     1      -4.204  -0.206   0.948  0.00  0.00    +0.019 C 
ATOM      9  C   UNL     1      -5.350   0.596   0.308  0.00  0.00    +0.002 C 
ATOM     10  C   UNL     1      -4.827   1.340  -0.915  0.00  0.00    +0.000 C 
ATOM     11  C   UNL     1      -5.470   0.792  -2.203  0.00  0.00    +0.002 C 
ATOM     12  C   UNL     1      -5.478  -0.736  -2.164  0.00  0.00    +0.019 C 
ATOM     13  C   UNL     1      -4.054  -1.254  -2.378  0.00  0.00    +0.109 C 
ATOM     14  H   UNL     1      -1.794  -0.752   0.852  0.00  0.00    +0.151 HD
ENDBRANCH   2   3
BRANCH   2  15
ATOM     15  C   UNL     1       0.731  -0.503   1.223  0.00  0.00    -0.027 A 
ATOM     16  C   UNL     1       0.081  -0.558   2.442  0.00  0.00    +0.007 A 
ATOM     17  C   UNL     1       0.749  -1.016   3.562  0.00  0.00    +0.029 A 
ATOM     18  C   UNL     1       2.068  -1.420   3.463  0.00  0.00    +0.105 A 
ATOM     19  C   UNL     1       2.718  -1.365   2.244  0.00  0.00    +0.029 A 
ATOM     20  C   UNL     1       2.048  -0.911   1.123  0.00  0.00    +0.007 A 
BRANCH  18  21
ATOM     21  S   UNL     1       2.921  -2.002   4.890  0.00  0.00    +0.058 S 
ATOM     22  O   UNL     1       4.306  -1.804   4.645  0.00  0.00    -0.153 OA
ATOM     23  O   UNL     1       2.259  -1.441   6.016  0.00  0.00    -0.153 OA
BRANCH  21  24
ATOM     24  N   UNL     1       2.683  -3.639   4.969  0.00  0.00    -0.193 NA
ATOM     25  C   UNL     1       3.227  -4.509   3.924  0.00  0.00    +0.127 C 
ATOM     26  H   UNL     1       2.183  -4.022   5.707  0.00  0.00    +0.148 HD
ENDBRANCH  21  24
ENDBRANCH  18  21
ENDBRANCH   2  15
TORSDOF 4
