REMARK  Name = ZINC66524831
REMARK  6 active torsions:
REMARK  status: ('A' for Active; 'I' for Inactive)
REMARK    1  A    between atoms: C_1  and  C_2
REMARK    2  A    between atoms: C_2  and  C_3
REMARK    3  A    between atoms: C_3  and  C_5
REMARK    4  A    between atoms: C_3  and  N_15
REMARK    5  A    between atoms: C_16  and  C_18
REMARK    6  A    between atoms: C_19  and  C_27
REMARK                            x       y       z     vdW  Elec       q    Type
REMARK                         _______ _______ _______ _____ _____    ______ ____
ROOT
ATOM      1  N   UNL     1      -2.082  -0.162   1.273  0.00  0.00    -0.299 N 
ATOM      2  C   UNL     1      -2.664   1.047   1.400  0.00  0.00    +0.280 C 
ATOM      3  O   UNL     1      -2.651   1.829   0.469  0.00  0.00    -0.267 OA
ATOM      4  H   UNL     1      -2.092  -0.785   2.016  0.00  0.00    +0.150 HD
ENDROOT
BRANCH   2   5
ATOM      5  C   UNL     1      -3.314   1.420   2.664  0.00  0.00    +0.193 A 
ATOM      6  C   UNL     1      -3.935   2.604   2.904  0.00  0.00    +0.008 A 
ATOM      7  C   UNL     1      -4.428   2.531   4.279  0.00  0.00    +0.024 A 
ATOM      8  C   UNL     1      -5.136   3.406   5.107  0.00  0.00    +0.012 A 
ATOM      9  C   UNL     1      -5.453   3.026   6.380  0.00  0.00    +0.001 A 
ATOM     10  C   UNL     1      -5.076   1.777   6.856  0.00  0.00    +0.004 A 
ATOM     11  C   UNL     1      -4.377   0.900   6.055  0.00  0.00    +0.047 A 
ATOM     12  C   UNL     1      -4.044   1.264   4.755  0.00  0.00    +0.136 A 
ATOM     13  O   UNL     1      -3.389   0.636   3.760  0.00  0.00    -0.450 OA
ATOM     14  C   UNL     1      -4.084   3.759   1.948  0.00  0.00    +0.048 C 
ENDBRANCH   2   5
BRANCH   1  15
ATOM     15  C   UNL     1      -1.433  -0.534   0.013  0.00  0.00    +0.139 C 
BRANCH  15  16
ATOM     16  C   UNL     1      -1.416  -2.035  -0.119  0.00  0.00    +0.129 A 
ATOM     17  N   UNL     1      -2.014  -2.900   0.743  0.00  0.00    -0.340 N 
ATOM     18  H   UNL     1      -2.518  -2.663   1.538  0.00  0.00    +0.167 HD
ATOM     19  C   UNL     1      -1.771  -4.177   0.279  0.00  0.00    +0.066 A 
ATOM     20  C   UNL     1      -2.115  -5.448   0.719  0.00  0.00    +0.028 A 
ATOM     21  C   UNL     1      -1.702  -6.553   0.006  0.00  0.00    +0.002 A 
ATOM     22  C   UNL     1      -0.947  -6.402  -1.149  0.00  0.00    +0.002 A 
ATOM     23  C   UNL     1      -0.599  -5.160  -1.597  0.00  0.00    +0.030 A 
ATOM     24  C   UNL     1      -1.007  -4.025  -0.890  0.00  0.00    +0.089 A 
ATOM     25  N   UNL     1      -0.831  -2.692  -1.078  0.00  0.00    -0.231 NA
ENDBRANCH  15  16
BRANCH  15  27
ATOM     26  C   UNL     1      -0.019   1.526   0.010  0.00  0.00    +0.006 C 
ATOM     27  C   UNL     1       0.002  -0.004   0.002  0.00  0.00    +0.027 C 
ENDBRANCH  15  27
ENDBRANCH   1  15
TORSDOF 4
