REMARK  Name = ZINC36992359
REMARK  4 active torsions:
REMARK  status: ('A' for Active; 'I' for Inactive)
REMARK    1  A    between atoms: C_1  and  C_2
REMARK    2  A    between atoms: C_2  and  C_4
REMARK    3  A    between atoms: C_2  and  N_10
REMARK    4  A    between atoms: N_10  and  C_11
REMARK                            x       y       z     vdW  Elec       q    Type
REMARK                         _______ _______ _______ _____ _____    ______ ____
ROOT
ATOM      1  C   UNL     1      -0.154  -0.330   2.373  0.00  0.00    +0.050 C 
ATOM      2  C   UNL     1       0.558  -0.818   3.614  0.00  0.00    -0.031 A 
ATOM      3  C   UNL     1       0.980  -2.063   4.022  0.00  0.00    +0.007 A 
ATOM      4  C   UNL     1       1.622  -2.211   5.239  0.00  0.00    +0.038 A 
ATOM      5  C   UNL     1       1.837  -1.103   6.043  0.00  0.00    +0.125 A 
ATOM      6  C   UNL     1       1.414   0.147   5.634  0.00  0.00    +0.061 A 
ATOM      7  C   UNL     1       0.767   0.301   4.410  0.00  0.00    +0.038 A 
ATOM      8  N   UNL     1       0.255   1.439   3.786  0.00  0.00    -0.286 N 
ATOM      9  C   UNL     1      -0.303   1.160   2.593  0.00  0.00    +0.208 C 
ATOM     10  O   UNL     1      -0.825   1.951   1.836  0.00  0.00    -0.277 OA
ATOM     11  F   UNL     1       2.463  -1.246   7.231  0.00  0.00    -0.205 F 
ATOM     12  H   UNL     1       0.294   2.330   4.169  0.00  0.00    +0.155 HD
ENDROOT
BRANCH   1  13
ATOM     13  N   UNL     1       0.655  -0.596   1.177  0.00  0.00    +0.394 N 
ATOM     14  H   UNL     1       0.832  -1.587   1.103  0.00  0.00    -0.083 HD
ATOM     15  H   UNL     1       1.533  -0.103   1.248  0.00  0.00    -0.083 HD
BRANCH  13  17
ATOM     16  C   UNL     1       0.824  -0.299  -1.248  0.00  0.00    -0.008 C 
ATOM     17  C   UNL     1      -0.069  -0.138  -0.016  0.00  0.00    -0.036 C 
BRANCH  17  18
ATOM     18  C   UNL     1      -1.319  -0.961  -0.191  0.00  0.00    -0.023 A 
ATOM     19  C   UNL     1      -2.555  -0.562  -0.579  0.00  0.00    +0.011 A 
ATOM     20  C   UNL     1      -3.565  -1.502  -0.671  0.00  0.00    +0.028 A 
ATOM     21  C   UNL     1      -3.287  -2.796  -0.371  0.00  0.00    +0.078 A 
ATOM     22  S   UNL     1      -1.554  -2.714   0.050  0.00  0.00    -0.083 S 
ATOM     23 CL   UNL     1      -4.342  -4.175  -0.398  0.00  0.00    -0.076 Cl
ENDBRANCH  17  18
ENDBRANCH  13  17
ENDBRANCH   1  13
TORSDOF 3
