REMARK  Name = ZINC15775609
REMARK  7 active torsions:
REMARK  status: ('A' for Active; 'I' for Inactive)
REMARK    1  A    between atoms: C_1  and  C_2
REMARK    2  A    between atoms: C_2  and  C_3
REMARK    3  A    between atoms: C_8  and  N_9
REMARK    4  A    between atoms: C_10  and  C_12
REMARK    5  A    between atoms: C_17  and  S_25
REMARK    6  A    between atoms: C_22  and  C_24
REMARK    7  A    between atoms: S_25  and  N_28
REMARK                            x       y       z     vdW  Elec       q    Type
REMARK                         _______ _______ _______ _____ _____    ______ ____
ROOT
ATOM      1  C   UNL     1       2.467   0.828   0.122  0.00  0.00    +0.172 C 
ATOM      2  C   UNL     1       2.826   0.280  -1.269  0.00  0.00    +0.069 C 
ATOM      3  C   UNL     1       4.178   0.884  -1.579  0.00  0.00    -0.022 A 
ATOM      4  C   UNL     1       4.996   0.754  -2.684  0.00  0.00    +0.034 A 
ATOM      5  C   UNL     1       6.207   1.419  -2.734  0.00  0.00    +0.106 A 
ATOM      6  C   UNL     1       6.598   2.216  -1.673  0.00  0.00    +0.030 A 
ATOM      7  C   UNL     1       5.785   2.348  -0.568  0.00  0.00    +0.026 A 
ATOM      8  C   UNL     1       4.560   1.680  -0.511  0.00  0.00    +0.040 A 
ATOM      9  N   UNL     1       3.597   1.678   0.506  0.00  0.00    -0.259 N 
ATOM     10  C   UNL     1       3.694   2.359   1.665  0.00  0.00    +0.217 C 
ATOM     11  O   UNL     1       4.625   3.113   1.850  0.00  0.00    -0.276 OA
ATOM     12  C   UNL     1       2.643   2.183   2.732  0.00  0.00    +0.109 C 
ENDROOT
BRANCH   1  14
ATOM     13  N   UNL     1       0.002   1.024   0.064  0.00  0.00    -0.284 N 
ATOM     14  C   UNL     1       1.201   1.641   0.053  0.00  0.00    +0.238 C 
ATOM     15  O   UNL     1       1.259   2.851  -0.011  0.00  0.00    -0.273 OA
ATOM     16  H   UNL     1      -0.045   0.056   0.032  0.00  0.00    +0.155 HD
BRANCH  13  22
ATOM     17  C   UNL     1      -2.362   1.252  -0.372  0.00  0.00    -0.026 A 
ATOM     18  C   UNL     1      -3.521   2.002  -0.321  0.00  0.00    +0.005 A 
ATOM     19  C   UNL     1      -3.499   3.276   0.214  0.00  0.00    +0.000 A 
ATOM     20  C   UNL     1      -2.317   3.805   0.699  0.00  0.00    +0.002 A 
ATOM     21  C   UNL     1      -1.156   3.059   0.656  0.00  0.00    +0.023 A 
ATOM     22  C   UNL     1      -1.174   1.780   0.114  0.00  0.00    +0.037 A 
BRANCH  17  24
ATOM     23  C   UNL     1      -2.565  -1.159   0.170  0.00  0.00    +0.009 C 
ATOM     24  C   UNL     1      -2.387  -0.137  -0.955  0.00  0.00    +0.033 C 
ENDBRANCH  17  24
ENDBRANCH  13  22
ENDBRANCH   1  14
BRANCH   5  25
ATOM     25  S   UNL     1       7.250   1.251  -4.145  0.00  0.00    +0.061 S 
ATOM     26  O   UNL     1       8.571   1.541  -3.709  0.00  0.00    -0.153 OA
ATOM     27  O   UNL     1       6.903   0.019  -4.761  0.00  0.00    -0.153 OA
BRANCH  25  28
ATOM     28  N   UNL     1       6.829   2.448  -5.209  0.00  0.00    -0.177 NA
ATOM     29  C   UNL     1       5.797   2.215  -6.228  0.00  0.00    +0.109 C 
ATOM     30  C   UNL     1       4.736   3.319  -6.111  0.00  0.00    +0.017 C 
ATOM     31  C   UNL     1       5.417   4.686  -6.208  0.00  0.00    +0.003 C 
ATOM     32  C   UNL     1       6.409   4.847  -5.054  0.00  0.00    +0.017 C 
ATOM     33  C   UNL     1       7.486   3.762  -5.156  0.00  0.00    +0.109 C 
ENDBRANCH  25  28
ENDBRANCH   5  25
TORSDOF 5
