REMARK  Name = ZINC61857396
REMARK  5 active torsions:
REMARK  status: ('A' for Active; 'I' for Inactive)
REMARK    1  A    between atoms: C_1  and  C_2
REMARK    2  A    between atoms: C_3  and  C_9
REMARK    3  A    between atoms: C_7  and  N_8
REMARK    4  A    between atoms: C_11  and  C_14
REMARK    5  A    between atoms: C_14  and  C_15
REMARK                            x       y       z     vdW  Elec       q    Type
REMARK                         _______ _______ _______ _____ _____    ______ ____
ROOT
ATOM      1  C   UNL     1      -0.167  -0.092  -2.554  0.00  0.00    +0.259 A 
ATOM      2  N   UNL     1      -0.348  -0.684  -3.713  0.00  0.00    -0.191 NA
ATOM      3  C   UNL     1      -0.387   0.225  -4.689  0.00  0.00    +0.176 A 
ATOM      4  N   UNL     1      -0.231   1.411  -4.174  0.00  0.00    -0.061 NA
ATOM      5  O   UNL     1      -0.090   1.233  -2.773  0.00  0.00    -0.333 OA
ENDROOT
BRANCH   1   8
ATOM      6  C   UNL     1      -1.681   0.931  -0.311  0.00  0.00    +0.046 C 
ATOM      7  C   UNL     1      -0.795  -0.279  -0.152  0.00  0.00    -0.018 A 
ATOM      8  C   UNL     1      -0.070  -0.763  -1.241  0.00  0.00    +0.044 A 
ATOM      9  C   UNL     1       0.748  -1.884  -1.086  0.00  0.00    +0.013 A 
ATOM     10  C   UNL     1       0.836  -2.509   0.141  0.00  0.00    +0.003 A 
ATOM     11  C   UNL     1       0.117  -2.030   1.220  0.00  0.00    +0.023 A 
ATOM     12  C   UNL     1      -0.695  -0.910   1.077  0.00  0.00    +0.028 A 
BRANCH  12  13
ATOM     13  N   UNL     1      -1.415  -0.426   2.172  0.00  0.00    -0.358 N 
ATOM     14  H   UNL     1      -1.986   0.352   2.072  0.00  0.00    +0.142 HD
ATOM     15  H   UNL     1      -1.345  -0.868   3.033  0.00  0.00    +0.142 HD
ENDBRANCH  12  13
ENDBRANCH   1   8
BRANCH   3  16
ATOM     16  C   UNL     1      -0.580  -0.073  -6.154  0.00  0.00    +0.116 C 
BRANCH  16  17
ATOM     17  C   UNL     1      -2.051  -0.059  -6.481  0.00  0.00    -0.026 A 
ATOM     18  C   UNL     1      -2.771  -1.239  -6.479  0.00  0.00    +0.005 A 
ATOM     19  C   UNL     1      -4.120  -1.225  -6.778  0.00  0.00    +0.000 A 
ATOM     20  C   UNL     1      -4.750  -0.032  -7.079  0.00  0.00    +0.001 A 
ATOM     21  C   UNL     1      -4.031   1.148  -7.081  0.00  0.00    +0.015 A 
ATOM     22  C   UNL     1      -2.682   1.136  -6.777  0.00  0.00    +0.021 A 
ATOM     23 BR   UNL     1      -1.699   2.751  -6.773  0.00  0.00    -0.050 Br
ENDBRANCH  16  17
ENDBRANCH   3  16
TORSDOF 4
