REMARK  Name = ZINC21283902
REMARK  8 active torsions:
REMARK  status: ('A' for Active; 'I' for Inactive)
REMARK    1  A    between atoms: C_1  and  C_2
REMARK    2  A    between atoms: C_7  and  N_8
REMARK    3  A    between atoms: C_9  and  C_11
REMARK    4  A    between atoms: C_11  and  N_12
REMARK    5  A    between atoms: C_13  and  C_15
REMARK    6  A    between atoms: C_15  and  O_16
REMARK    7  A    between atoms: O_16  and  C_17
REMARK    8  A    between atoms: C_17  and  C_19
REMARK                            x       y       z     vdW  Elec       q    Type
REMARK                         _______ _______ _______ _____ _____    ______ ____
ROOT
ATOM      1  C   UNL     1       4.830   0.547  -0.069  0.00  0.00    +0.328 C 
ENDROOT
BRANCH   1   3
ATOM      2  N   UNL     1       2.407   1.044  -0.032  0.00  0.00    -0.304 N 
ATOM      3  C   UNL     1       3.671   1.511  -0.051  0.00  0.00    +0.251 C 
ATOM      4  O   UNL     1       3.876   2.706  -0.055  0.00  0.00    -0.272 OA
ATOM      5  H   UNL     1       2.221  -0.040  -0.029  0.00  0.00    +0.149 HD
BRANCH   2   6
ATOM      6  C   UNL     1       1.280   1.980  -0.015  0.00  0.00    +0.200 C 
BRANCH   6   8
ATOM      7  N   UNL     1      -1.191   1.867   0.018  0.00  0.00    -0.284 N 
ATOM      8  C   UNL     1      -0.014   1.209   0.005  0.00  0.00    +0.234 C 
ATOM      9  O   UNL     1       0.003  -0.004   0.005  0.00  0.00    -0.274 OA
ATOM     10  H   UNL     1      -1.207   2.963   0.109  0.00  0.00    +0.155 HD
BRANCH   7  17
ATOM     11  C   UNL     1      -3.546   3.040   1.100  0.00  0.00    +0.046 C 
ATOM     12  C   UNL     1      -3.564   1.691   0.428  0.00  0.00    -0.028 A 
ATOM     13  C   UNL     1      -4.749   0.989   0.320  0.00  0.00    +0.020 A 
ATOM     14  C   UNL     1      -4.765  -0.252  -0.291  0.00  0.00    +0.018 A 
ATOM     15  C   UNL     1      -3.597  -0.791  -0.800  0.00  0.00    +0.017 A 
ATOM     16  C   UNL     1      -2.411  -0.091  -0.699  0.00  0.00    +0.024 A 
ATOM     17  C   UNL     1      -2.391   1.155  -0.086  0.00  0.00    +0.036 A 
ATOM     18 BR   UNL     1      -6.387  -1.214  -0.431  0.00  0.00    -0.050 Br
ENDBRANCH   7  17
ENDBRANCH   6   8
ENDBRANCH   2   6
ENDBRANCH   1   3
BRANCH   1  19
ATOM     19  O   UNL     1       6.077   1.291  -0.088  0.00  0.00    -0.452 OA
BRANCH  19  20
ATOM     20  C   UNL     1       7.217   0.573  -0.106  0.00  0.00    +0.340 C 
ATOM     21  O   UNL     1       7.170  -0.642  -0.105  0.00  0.00    -0.245 OA
BRANCH  20  22
ATOM     22  C   UNL     1       8.521   1.260  -0.126  0.00  0.00    +0.060 A 
ATOM     23  C   UNL     1       8.575   2.662  -0.133  0.00  0.00    +0.017 A 
ATOM     24  C   UNL     1       9.773   3.311  -0.145  0.00  0.00    +0.027 A 
ATOM     25  C   UNL     1      10.964   2.588  -0.162  0.00  0.00    +0.047 A 
ATOM     26  C   UNL     1      10.925   1.178  -0.163  0.00  0.00    +0.004 A 
ATOM     27  C   UNL     1       9.699   0.518  -0.144  0.00  0.00    +0.025 A 
ATOM     28  C   UNL     1      12.318   0.741  -0.185  0.00  0.00    -0.019 A 
ATOM     29  C   UNL     1      13.085   1.847  -0.193  0.00  0.00    +0.020 A 
ATOM     30  N   UNL     1      12.288   2.958  -0.180  0.00  0.00    -0.358 N 
ATOM     31  H   UNL     1      12.562   4.023  -0.183  0.00  0.00    +0.166 HD
ATOM     32  C   UNL     1      14.596   1.818  -0.214  0.00  0.00    +0.053 C 
ATOM     33  C   UNL     1      15.062   0.417   0.197  0.00  0.00    +0.006 C 
ATOM     34  C   UNL     1      14.317  -0.633  -0.631  0.00  0.00    +0.005 C 
ATOM     35  C   UNL     1      12.846  -0.670  -0.199  0.00  0.00    +0.037 C 
ENDBRANCH  20  22
ENDBRANCH  19  20
ENDBRANCH   1  19
TORSDOF 7
