REMARK  Name = ZINC15168727
REMARK  3 active torsions:
REMARK  status: ('A' for Active; 'I' for Inactive)
REMARK    1  A    between atoms: C_8  and  C_10
REMARK    2  A    between atoms: N_15  and  C_16
REMARK    3  A    between atoms: C_21  and  N_22
REMARK                            x       y       z     vdW  Elec       q    Type
REMARK                         _______ _______ _______ _____ _____    ______ ____
ROOT
ATOM      1  C   UNL     1       3.022  -4.157  -0.010  0.00  0.00    +0.129 C 
ATOM      2  C   UNL     1       3.449  -4.498  -1.454  0.00  0.00    +0.031 C 
ATOM      3  C   UNL     1       4.800  -5.234  -1.252  0.00  0.00    +0.021 C 
ATOM      4  C   UNL     1       5.394  -4.468  -0.044  0.00  0.00    +0.106 C 
ATOM      5  N   UNL     1       4.235  -4.166   0.821  0.00  0.00    -0.319 N 
ENDROOT
BRANCH   1  13
ATOM      6  C   UNL     1      -0.862   0.608   0.420  0.00  0.00    +0.002 A 
ATOM      7  C   UNL     1       0.152   1.525   0.185  0.00  0.00    +0.001 A 
ATOM      8  C   UNL     1       1.443   1.076  -0.022  0.00  0.00    +0.017 A 
ATOM      9  C   UNL     1       1.699  -0.273   0.008  0.00  0.00    +0.039 A 
ATOM     10  C   UNL     1       0.685  -1.229   0.246  0.00  0.00    +0.079 A 
ATOM     11  C   UNL     1      -0.619  -0.731   0.453  0.00  0.00    +0.029 A 
ATOM     12  N   UNL     1       1.135  -2.501   0.236  0.00  0.00    -0.242 NA
ATOM     13  C   UNL     1       2.385  -2.792   0.027  0.00  0.00    +0.100 A 
ATOM     14  S   UNL     1       3.131  -1.299  -0.192  0.00  0.00    -0.070 S 
ENDBRANCH   1  13
BRANCH   5  15
ATOM     15  C   UNL     1       4.281  -3.928   2.198  0.00  0.00    +0.061 A 
ATOM     16  C   UNL     1       4.545  -2.650   2.673  0.00  0.00    +0.028 A 
ATOM     17  C   UNL     1       4.591  -2.416   4.034  0.00  0.00    +0.040 A 
ATOM     18  C   UNL     1       4.373  -3.455   4.923  0.00  0.00    +0.126 A 
ATOM     19  C   UNL     1       4.109  -4.729   4.451  0.00  0.00    +0.073 A 
ATOM     20  C   UNL     1       4.057  -4.966   3.091  0.00  0.00    +0.150 A 
ATOM     21  F   UNL     1       4.417  -3.224   6.254  0.00  0.00    -0.205 F 
BRANCH  20  22
ATOM     22  N   UNL     1       3.769  -6.328   2.587  0.00  0.00    +0.058 N 
ATOM     23  O   UNL     1       3.480  -7.210   3.362  0.00  0.00    -0.126 OA
ATOM     24  O   UNL     1       3.823  -6.557   1.402  0.00  0.00    -0.126 OA
ENDBRANCH  20  22
ENDBRANCH   5  15
TORSDOF 3
