REMARK  Name = ZINC39359531
REMARK  2 active torsions:
REMARK  status: ('A' for Active; 'I' for Inactive)
REMARK    1  A    between atoms: C_3  and  C_8
REMARK    2  A    between atoms: C_13  and  C_18
REMARK                            x       y       z     vdW  Elec       q    Type
REMARK                         _______ _______ _______ _____ _____    ______ ____
ROOT
ATOM      1  C   UNL     1       3.672   2.184  -0.021  0.00  0.00    +0.092 C 
ATOM      2  C   UNL     1       4.485   1.821   1.205  0.00  0.00    +0.024 C 
ATOM      3  C   UNL     1       5.592   1.052   1.131  0.00  0.00    +0.017 C 
ATOM      4  C   UNL     1       6.381   0.715   2.375  0.00  0.00    +0.063 C 
ATOM      5  C   UNL     1       5.441   0.647   3.580  0.00  0.00    +0.068 C 
ATOM      6  C   UNL     1       4.745   2.004   3.725  0.00  0.00    +0.091 C 
ATOM      7  C   UNL     1       4.033   2.325   2.441  0.00  0.00    +0.162 C 
ATOM      8  O   UNL     1       3.046   3.033   2.469  0.00  0.00    -0.292 OA
ATOM      9  N   UNL     1       6.061   0.545  -0.057  0.00  0.00    -0.301 N 
ATOM     10  C   UNL     1       5.573   1.061  -1.232  0.00  0.00    +0.152 C 
ATOM     11  C   UNL     1       4.451   1.839  -1.249  0.00  0.00    +0.071 C 
ATOM     12  C   UNL     1       4.265   2.189  -2.656  0.00  0.00    +0.285 C 
ATOM     13  O   UNL     1       3.386   2.876  -3.134  0.00  0.00    -0.267 OA
ATOM     14  N   UNL     1       5.284   1.584  -3.312  0.00  0.00    -0.074 NA
ATOM     15  N   UNL     1       6.010   0.958  -2.526  0.00  0.00    -0.141 NA
ATOM     16  H   UNL     1       6.724  -0.163  -0.065  0.00  0.00    +0.153 HD
ENDROOT
BRANCH   1  19
ATOM     17  C   UNL     1      -0.017   1.378   0.010  0.00  0.00    +0.002 A 
ATOM     18  C   UNL     1       1.171   2.086   0.002  0.00  0.00    +0.004 A 
ATOM     19  C   UNL     1       2.378   1.412  -0.013  0.00  0.00    -0.034 A 
ATOM     20  C   UNL     1       2.398   0.029  -0.021  0.00  0.00    +0.024 A 
ATOM     21  C   UNL     1       1.210  -0.679  -0.013  0.00  0.00    +0.041 A 
ATOM     22  C   UNL     1       0.002  -0.004   0.002  0.00  0.00    +0.020 A 
ATOM     23 CL   UNL     1       1.234  -2.415  -0.024  0.00  0.00    -0.084 Cl
ENDBRANCH   1  19
BRANCH   5  24
ATOM     24  C   UNL     1       6.233   0.345   4.826  0.00  0.00    +0.109 A 
ATOM     25  C   UNL     1       6.070  -0.727   5.622  0.00  0.00    +0.045 A 
ATOM     26  C   UNL     1       7.016  -0.610   6.666  0.00  0.00    +0.041 A 
ATOM     27  C   UNL     1       7.700   0.527   6.447  0.00  0.00    +0.195 A 
ATOM     28  O   UNL     1       7.226   1.099   5.327  0.00  0.00    -0.468 OA
ENDBRANCH   5  24
TORSDOF 2
