REMARK  Name = ZINC05669585
REMARK  6 active torsions:
REMARK  status: ('A' for Active; 'I' for Inactive)
REMARK    1  A    between atoms: C_1  and  O_2
REMARK    2  A    between atoms: O_2  and  C_3
REMARK    3  A    between atoms: N_5  and  N_6
REMARK    4  A    between atoms: C_7  and  C_9
REMARK    5  A    between atoms: C_9  and  O_10
REMARK    6  A    between atoms: O_10  and  C_11
REMARK                            x       y       z     vdW  Elec       q    Type
REMARK                         _______ _______ _______ _____ _____    ______ ____
ROOT
ATOM      1  N   UNL     1       3.909  -2.193  -0.047  0.00  0.00    -0.229 N 
ATOM      2  C   UNL     1       3.713  -0.860  -0.038  0.00  0.00    +0.267 C 
ATOM      3  O   UNL     1       4.664  -0.107  -0.043  0.00  0.00    -0.271 OA
ATOM      4  H   UNL     1       3.149  -2.795  -0.043  0.00  0.00    +0.173 HD
ENDROOT
BRANCH   1   7
ATOM      5  C   UNL     1       5.408  -4.043  -0.071  0.00  0.00    +0.416 C 
ATOM      6  O   UNL     1       6.537  -4.490  -0.084  0.00  0.00    -0.225 OA
ATOM      7  N   UNL     1       5.212  -2.709  -0.062  0.00  0.00    -0.200 N 
ATOM      8  H   UNL     1       5.972  -2.107  -0.066  0.00  0.00    +0.176 HD
BRANCH   5  10
ATOM      9  C   UNL     1       4.639  -6.302  -0.076  0.00  0.00    +0.282 C 
ATOM     10  O   UNL     1       4.352  -4.878  -0.066  0.00  0.00    -0.453 OA
ENDBRANCH   5  10
ENDBRANCH   1   7
BRANCH   2  11
ATOM     11  C   UNL     1       2.312  -0.304  -0.022  0.00  0.00    +0.326 C 
BRANCH  11  12
ATOM     12  O   UNL     1       2.366   1.124  -0.015  0.00  0.00    -0.482 OA
BRANCH  12  13
ATOM     13  C   UNL     1       1.179   1.786   0.000  0.00  0.00    +0.135 A 
ATOM     14  C   UNL     1      -0.013   1.076   0.008  0.00  0.00    +0.048 A 
ATOM     15  C   UNL     1      -1.218   1.751   0.017  0.00  0.00    +0.019 A 
ATOM     16  C   UNL     1      -1.238   3.134   0.030  0.00  0.00    +0.019 A 
ATOM     17  C   UNL     1      -0.051   3.845   0.022  0.00  0.00    +0.034 A 
ATOM     18  C   UNL     1       1.157   3.174   0.008  0.00  0.00    +0.061 A 
ATOM     19 BR   UNL     1       2.779   4.146  -0.003  0.00  0.00    -0.046 Br
ATOM     20 BR   UNL     1      -2.889   4.054   0.050  0.00  0.00    -0.050 Br
ENDBRANCH  12  13
ENDBRANCH  11  12
ENDBRANCH   2  11
TORSDOF 5
