REMARK  Name = ZINC65917167
REMARK  8 active torsions:
REMARK  status: ('A' for Active; 'I' for Inactive)
REMARK    1  A    between atoms: C_1  and  C_2
REMARK    2  A    between atoms: C_2  and  C_3
REMARK    3  A    between atoms: C_2  and  C_4
REMARK    4  A    between atoms: C_2  and  N_20
REMARK    5  A    between atoms: N_6  and  C_7
REMARK    6  A    between atoms: N_10  and  C_13
REMARK    7  A    between atoms: C_13  and  C_14
REMARK    8  A    between atoms: N_23  and  C_24
REMARK                            x       y       z     vdW  Elec       q    Type
REMARK                         _______ _______ _______ _____ _____    ______ ____
ROOT
ATOM      1  C   UNL     1      -1.366  -1.150   0.075  0.00  0.00    +0.236 C 
ATOM      2  O   UNL     1      -1.924  -1.452   1.109  0.00  0.00    -0.273 OA
ATOM      3  N   UNL     1      -2.045  -1.173  -1.089  0.00  0.00    -0.311 N 
ATOM      4  H   UNL     1      -1.599  -0.931  -1.915  0.00  0.00    +0.149 HD
ENDROOT
BRANCH   3   5
ATOM      5  C   UNL     1      -3.457  -1.562  -1.106  0.00  0.00    +0.069 C 
ATOM      6  C   UNL     1      -4.329  -0.341  -0.801  0.00  0.00    +0.003 C 
ATOM      7  C   UNL     1      -5.804  -0.737  -0.898  0.00  0.00    -0.077 C 
ATOM      8  N   UNL     1      -6.096  -1.222  -2.252  0.00  0.00    +0.380 N 
ATOM      9  C   UNL     1      -5.316  -2.436  -2.525  0.00  0.00    -0.077 C 
ATOM     10  C   UNL     1      -3.822  -2.105  -2.490  0.00  0.00    +0.003 C 
ATOM     11  H   UNL     1      -5.853  -0.510  -2.924  0.00  0.00    -0.082 HD
BRANCH   8  12
ATOM     12  C   UNL     1      -7.528  -1.528  -2.364  0.00  0.00    -0.075 C 
BRANCH  12  13
ATOM     13  C   UNL     1      -7.862  -1.887  -3.813  0.00  0.00    -0.028 C 
ATOM     14  C   UNL     1      -9.323  -2.334  -3.904  0.00  0.00    +0.002 C 
ATOM     15  C   UNL     1      -9.656  -2.693  -5.353  0.00  0.00    +0.000 C 
ATOM     16  C   UNL     1      -9.441  -1.469  -6.245  0.00  0.00    +0.000 C 
ATOM     17  C   UNL     1      -7.981  -1.022  -6.154  0.00  0.00    +0.000 C 
ATOM     18  C   UNL     1      -7.647  -0.662  -4.705  0.00  0.00    +0.002 C 
ENDBRANCH  12  13
ENDBRANCH   8  12
ENDBRANCH   3   5
BRANCH   1  20
ATOM     19  C   UNL     1       0.194   0.775   0.169  0.00  0.00    +0.041 C 
ATOM     20  C   UNL     1       0.086  -0.749   0.092  0.00  0.00    +0.106 C 
ATOM     21  C   UNL     1       0.773  -1.371   1.310  0.00  0.00    +0.041 C 
BRANCH  20  22
ATOM     22  N   UNL     1       0.739  -1.224  -1.131  0.00  0.00    -0.286 N 
ATOM     23  C   UNL     1       2.048  -0.979  -1.334  0.00  0.00    +0.300 C 
ATOM     24  O   UNL     1       2.688  -0.365  -0.503  0.00  0.00    -0.253 OA
ATOM     25  N   UNL     1       2.648  -1.416  -2.459  0.00  0.00    -0.302 N 
ATOM     26  C   UNL     1       4.072  -1.150  -2.681  0.00  0.00    +0.129 C 
ATOM     27  H   UNL     1       0.228  -1.714  -1.794  0.00  0.00    +0.151 HD
ATOM     28  H   UNL     1       2.137  -1.906  -3.123  0.00  0.00    +0.150 HD
ENDBRANCH  20  22
ENDBRANCH   1  20
TORSDOF 5
