REMARK  Name = ZINC56228935
REMARK  6 active torsions:
REMARK  status: ('A' for Active; 'I' for Inactive)
REMARK    1  A    between atoms: C_4  and  N_7
REMARK    2  A    between atoms: C_10  and  C_15
REMARK    3  A    between atoms: C_15  and  S_16
REMARK    4  A    between atoms: S_16  and  C_17
REMARK    5  A    between atoms: C_17  and  C_18
REMARK    6  A    between atoms: C_20  and  C_23
REMARK                            x       y       z     vdW  Elec       q    Type
REMARK                         _______ _______ _______ _____ _____    ______ ____
ROOT
ATOM      1  N   UNL     1       3.621  -0.650  -0.037  0.00  0.00    -0.284 N 
ATOM      2  C   UNL     1       3.645  -2.028   0.059  0.00  0.00    +0.224 A 
ATOM      3  N   UNL     1       4.808  -2.670   0.150  0.00  0.00    -0.198 NA
ATOM      4  C   UNL     1       4.831  -3.987   0.242  0.00  0.00    +0.146 A 
ATOM      5  N   UNL     1       3.702  -4.674   0.245  0.00  0.00    -0.199 NA
ATOM      6  C   UNL     1       2.535  -4.039   0.155  0.00  0.00    +0.217 A 
ATOM      7  N   UNL     1       2.507  -2.714   0.068  0.00  0.00    -0.181 NA
ATOM      8  N   UNL     1       1.356  -4.757   0.158  0.00  0.00    -0.327 N 
ATOM      9  H   UNL     1       4.451  -0.155  -0.124  0.00  0.00    +0.155 HD
ATOM     10  H   UNL     1       1.378  -5.724   0.226  0.00  0.00    +0.145 HD
ATOM     11  H   UNL     1       0.507  -4.293   0.093  0.00  0.00    +0.145 HD
ENDROOT
BRANCH   1  15
ATOM     12  C   UNL     1      -0.014   1.382   0.044  0.00  0.00    +0.000 A 
ATOM     13  C   UNL     1       0.143   0.219   0.777  0.00  0.00    +0.002 A 
ATOM     14  C   UNL     1       1.347  -0.457   0.752  0.00  0.00    +0.023 A 
ATOM     15  C   UNL     1       2.400   0.032  -0.010  0.00  0.00    +0.034 A 
ATOM     16  C   UNL     1       2.239   1.199  -0.745  0.00  0.00    +0.023 A 
ATOM     17  C   UNL     1       1.032   1.871  -0.716  0.00  0.00    +0.002 A 
ENDBRANCH   1  15
BRANCH   4  18
ATOM     18  C   UNL     1       6.150  -4.710   0.344  0.00  0.00    +0.145 C 
BRANCH  18  19
ATOM     19  S   UNL     1       6.612  -4.881   2.090  0.00  0.00    -0.145 S 
BRANCH  19  20
ATOM     20  C   UNL     1       8.199  -5.759   2.039  0.00  0.00    +0.149 C 
BRANCH  20  21
ATOM     21  C   UNL     1       8.702  -5.969   3.444  0.00  0.00    +0.182 A 
ATOM     22  N   UNL     1       9.480  -5.124   4.121  0.00  0.00    -0.191 NA
ATOM     23  C   UNL     1       9.736  -5.609   5.319  0.00  0.00    +0.265 A 
ATOM     24  O   UNL     1       9.111  -6.797   5.427  0.00  0.00    -0.332 OA
ATOM     25  N   UNL     1       8.441  -7.004   4.193  0.00  0.00    -0.060 NA
BRANCH  23  26
ATOM     26  C   UNL     1      10.557  -4.968   6.354  0.00  0.00    +0.077 A 
ATOM     27  C   UNL     1      10.870  -5.421   7.625  0.00  0.00    +0.021 A 
ATOM     28  C   UNL     1      11.671  -4.590   8.375  0.00  0.00    +0.008 A 
ATOM     29  C   UNL     1      12.090  -3.419   7.838  0.00  0.00    +0.046 A 
ATOM     30  S   UNL     1      11.417  -3.408   6.299  0.00  0.00    -0.092 S 
ENDBRANCH  23  26
ENDBRANCH  20  21
ENDBRANCH  19  20
ENDBRANCH  18  19
ENDBRANCH   4  18
TORSDOF 6
