REMARK  Name = ZINC22863257
REMARK  12 active torsions:
REMARK  status: ('A' for Active; 'I' for Inactive)
REMARK    1  A    between atoms: C_1  and  C_2
REMARK    2  A    between atoms: C_2  and  O_3
REMARK    3  A    between atoms: O_3  and  C_4
REMARK    4  A    between atoms: C_4  and  C_6
REMARK    5  A    between atoms: C_7  and  C_14
REMARK    6  A    between atoms: C_8  and  C_12
REMARK    7  A    between atoms: C_9  and  N_11
REMARK    8  A    between atoms: C_14  and  O_15
REMARK    9  A    between atoms: O_15  and  C_16
REMARK   10  A    between atoms: C_16  and  C_18
REMARK   11  A    between atoms: C_22  and  N_23
REMARK   12  A    between atoms: C_24  and  C_26
REMARK                            x       y       z     vdW  Elec       q    Type
REMARK                         _______ _______ _______ _____ _____    ______ ____
ROOT
ATOM      1  O   UNL     1       2.923   1.267  -1.387  0.00  0.00    -0.456 OA
ENDROOT
BRANCH   1   2
ATOM      2  C   UNL     1       4.114   0.664  -1.579  0.00  0.00    +0.342 C 
ATOM      3  O   UNL     1       4.784   0.324  -0.622  0.00  0.00    -0.245 OA
BRANCH   2   4
ATOM      4  C   UNL     1       4.601   0.419  -2.938  0.00  0.00    +0.091 A 
ATOM      5  C   UNL     1       5.408   1.403  -3.639  0.00  0.00    -0.021 A 
ATOM      6  C   UNL     1       5.795   1.049  -4.883  0.00  0.00    -0.004 A 
ATOM      7  S   UNL     1       5.095  -0.557  -5.135  0.00  0.00    -0.077 S 
ATOM      8  C   UNL     1       4.304  -0.761  -3.607  0.00  0.00    +0.086 A 
ATOM      9  C   UNL     1       6.629   1.853  -5.833  0.00  0.00    +0.043 C 
ATOM     10  C   UNL     1       6.679   3.301  -5.325  0.00  0.00    +0.005 C 
ATOM     11  C   UNL     1       7.013   3.289  -3.831  0.00  0.00    +0.005 C 
ATOM     12  C   UNL     1       5.825   2.740  -3.038  0.00  0.00    +0.037 C 
BRANCH   8  13
ATOM     13  N   UNL     1       3.556  -1.840  -3.162  0.00  0.00    -0.280 N 
ATOM     14  C   UNL     1       3.373  -2.909  -3.961  0.00  0.00    +0.214 C 
ATOM     15  O   UNL     1       3.863  -2.928  -5.070  0.00  0.00    -0.276 OA
ATOM     16  C   UNL     1       2.560  -4.082  -3.477  0.00  0.00    +0.109 C 
ATOM     17  H   UNL     1       3.112  -1.823  -2.155  0.00  0.00    +0.155 HD
ENDBRANCH   8  13
ENDBRANCH   2   4
ENDBRANCH   1   2
BRANCH   1  18
ATOM     18  C   UNL     1       2.503   1.478  -0.013  0.00  0.00    +0.270 C 
BRANCH  18  20
ATOM     19  C   UNL     1       1.052   3.535   0.011  0.00  0.00    +0.106 A 
ATOM     20  C   UNL     1       1.159   2.159   0.003  0.00  0.00    +0.030 A 
ATOM     21  C   UNL     1      -0.017   1.428   0.010  0.00  0.00    +0.087 A 
ATOM     22  C   UNL     1      -1.226   2.134   0.019  0.00  0.00    +0.082 A 
ATOM     23  S   UNL     1      -0.713   3.789   0.029  0.00  0.00    -0.066 S 
BRANCH  22  24
ATOM     24  N   UNL     1      -2.509   1.635   0.022  0.00  0.00    -0.352 N 
ATOM     25  H   UNL     1      -3.366   2.324   0.030  0.00  0.00    +0.143 HD
ATOM     26  H   UNL     1      -2.676   0.548   0.016  0.00  0.00    +0.143 HD
ENDBRANCH  22  24
BRANCH  19  27
ATOM     27  C   UNL     1       2.087   4.504   0.006  0.00  0.00    +0.346 C 
ATOM     28  O   UNL     1       3.251   4.151  -0.007  0.00  0.00    -0.244 OA
BRANCH  27  29
ATOM     29  O   UNL     1       1.780   5.819   0.016  0.00  0.00    -0.461 OA
BRANCH  29  31
ATOM     30  C   UNL     1       2.333   8.171   0.023  0.00  0.00    +0.048 C 
ATOM     31  C   UNL     1       2.873   6.739   0.010  0.00  0.00    +0.229 C 
ENDBRANCH  29  31
ENDBRANCH  27  29
ENDBRANCH  19  27
BRANCH  21  32
ATOM     32  C   UNL     1       0.002  -0.004   0.002  0.00  0.00    +0.102 C 
ATOM     33  N   UNL     1       0.018  -1.140  -0.004  0.00  0.00    -0.191 NA
ENDBRANCH  21  32
ENDBRANCH  18  20
ENDBRANCH   1  18
TORSDOF 10
