REMARK  Name = ZINC67220427
REMARK  13 active torsions:
REMARK  status: ('A' for Active; 'I' for Inactive)
REMARK    1  A    between atoms: C_1  and  C_2
REMARK    2  A    between atoms: C_2  and  C_4
REMARK    3  A    between atoms: C_2  and  N_16
REMARK    4  A    between atoms: C_7  and  S_10
REMARK    5  A    between atoms: S_10  and  N_13
REMARK    6  A    between atoms: N_13  and  C_14
REMARK    7  A    between atoms: N_13  and  C_15
REMARK    8  A    between atoms: N_16  and  C_17
REMARK    9  A    between atoms: C_17  and  C_18
REMARK   10  A    between atoms: C_23  and  C_24
REMARK   11  A    between atoms: C_24  and  C_25
REMARK   12  A    between atoms: C_24  and  C_26
REMARK   13  A    between atoms: C_24  and  C_27
REMARK                            x       y       z     vdW  Elec       q    Type
REMARK                         _______ _______ _______ _____ _____    ______ ____
ROOT
ATOM      1  C   UNL     1       3.255   2.336  -0.725  0.00  0.00    -0.009 C 
ATOM      2  C   UNL     1       2.501   1.005  -0.754  0.00  0.00    -0.044 C 
ENDROOT
BRANCH   2   3
ATOM      3  C   UNL     1       1.147   1.208  -1.384  0.00  0.00    -0.062 A 
ATOM      4  C   UNL     1       0.113   1.745  -0.641  0.00  0.00    +0.004 A 
ATOM      5  C   UNL     1      -1.129   1.932  -1.218  0.00  0.00    +0.029 A 
ATOM      6  C   UNL     1      -1.336   1.582  -2.540  0.00  0.00    +0.105 A 
ATOM      7  C   UNL     1      -0.301   1.046  -3.283  0.00  0.00    +0.029 A 
ATOM      8  C   UNL     1       0.942   0.864  -2.707  0.00  0.00    +0.004 A 
BRANCH   6   9
ATOM      9  S   UNL     1      -2.920   1.819  -3.276  0.00  0.00    +0.060 S 
ATOM     10  O   UNL     1      -3.003   0.906  -4.362  0.00  0.00    -0.153 OA
ATOM     11  O   UNL     1      -3.864   1.827  -2.214  0.00  0.00    -0.153 OA
BRANCH   9  12
ATOM     12  N   UNL     1      -2.932   3.339  -3.933  0.00  0.00    -0.183 NA
ATOM     13  C   UNL     1      -2.498   3.542  -5.317  0.00  0.00    +0.131 C 
ATOM     14  C   UNL     1      -3.376   4.480  -3.129  0.00  0.00    +0.131 C 
ENDBRANCH   9  12
ENDBRANCH   6   9
ENDBRANCH   2   3
BRANCH   2  15
ATOM     15  N   UNL     1       2.333   0.508   0.618  0.00  0.00    +0.386 N 
ATOM     16  H   UNL     1       1.881   1.214   1.179  0.00  0.00    -0.085 HD
ATOM     17  H   UNL     1       1.766  -0.327   0.606  0.00  0.00    -0.085 HD
BRANCH  15  18
ATOM     18  C   UNL     1       3.650   0.196   1.191  0.00  0.00    -0.043 C 
BRANCH  18  19
ATOM     19  C   UNL     1       3.470  -0.449   2.541  0.00  0.00    -0.023 A 
ATOM     20  C   UNL     1       3.381   0.197   3.726  0.00  0.00    +0.106 A 
ATOM     21  N   UNL     1       3.227  -0.733   4.691  0.00  0.00    -0.284 N 
ATOM     22  H   UNL     1       3.135  -0.560   5.641  0.00  0.00    +0.188 HD
ATOM     23  N   UNL     1       3.220  -1.993   4.079  0.00  0.00    -0.178 NA
ATOM     24  C   UNL     1       3.360  -1.821   2.789  0.00  0.00    +0.069 A 
BRANCH  24  25
ATOM     25  C   UNL     1       3.401  -2.913   1.752  0.00  0.00    +0.006 C 
ATOM     26  C   UNL     1       4.732  -2.854   1.000  0.00  0.00    +0.017 C 
ATOM     27  C   UNL     1       3.262  -4.274   2.437  0.00  0.00    +0.017 C 
ATOM     28  C   UNL     1       2.248  -2.720   0.763  0.00  0.00    +0.017 C 
ENDBRANCH  24  25
ENDBRANCH  18  19
ENDBRANCH  15  18
ENDBRANCH   2  15
TORSDOF 7
