REMARK  Name = ZINC00138029
REMARK  3 active torsions:
REMARK  status: ('A' for Active; 'I' for Inactive)
REMARK    1  A    between atoms: C_1  and  C_2
REMARK    2  A    between atoms: N_4  and  C_5
REMARK    3  A    between atoms: C_6  and  C_14
REMARK                            x       y       z     vdW  Elec       q    Type
REMARK                         _______ _______ _______ _____ _____    ______ ____
ROOT
ATOM      1  C   UNL     1      -1.632   5.683  -1.235  0.00  0.00    +0.085 A 
ATOM      2  C   UNL     1      -1.276   5.181   0.004  0.00  0.00    +0.069 A 
ATOM      3  C   UNL     1      -0.956   3.769   0.102  0.00  0.00    -0.023 A 
ATOM      4  C   UNL     1      -1.036   3.058  -1.048  0.00  0.00    -0.004 A 
ATOM      5  S   UNL     1      -1.533   4.236  -2.274  0.00  0.00    -0.077 S 
ATOM      6  C   UNL     1      -0.761   1.597  -1.231  0.00  0.00    +0.043 C 
ATOM      7  C   UNL     1      -0.013   1.086   0.008  0.00  0.00    +0.005 C 
ATOM      8  C   UNL     1      -0.736   1.583   1.263  0.00  0.00    +0.005 C 
ATOM      9  C   UNL     1      -0.550   3.093   1.408  0.00  0.00    +0.037 C 
ENDROOT
BRANCH   2  10
ATOM     10  C   UNL     1      -1.223   6.055   1.191  0.00  0.00    +0.241 A 
ATOM     11  N   UNL     1      -0.889   5.561   2.355  0.00  0.00    -0.167 NA
ATOM     12  S   UNL     1      -0.967   6.926   3.383  0.00  0.00    +0.098 S 
ATOM     13  C   UNL     1      -1.455   8.100   2.203  0.00  0.00    +0.397 A 
ATOM     14  O   UNL     1      -1.678   9.288   2.345  0.00  0.00    -0.235 OA
ATOM     15  O   UNL     1      -1.520   7.346   1.082  0.00  0.00    -0.397 OA
ENDBRANCH   2  10
BRANCH   1  19
ATOM     16  C   UNL     1      -2.676   8.690  -3.233  0.00  0.00    +0.109 C 
ATOM     17  C   UNL     1      -2.299   7.280  -2.858  0.00  0.00    +0.214 C 
ATOM     18  O   UNL     1      -2.284   6.410  -3.703  0.00  0.00    -0.276 OA
ATOM     19  N   UNL     1      -1.980   6.985  -1.582  0.00  0.00    -0.280 N 
ATOM     20  H   UNL     1      -1.992   7.680  -0.906  0.00  0.00    +0.155 HD
ENDBRANCH   1  19
TORSDOF 2
