REMARK  Name = ZINC09092102
REMARK  8 active torsions:
REMARK  status: ('A' for Active; 'I' for Inactive)
REMARK    1  A    between atoms: C_1  and  C_2
REMARK    2  A    between atoms: C_2  and  C_4
REMARK    3  A    between atoms: C_2  and  N_14
REMARK    4  A    between atoms: C_15  and  C_17
REMARK    5  A    between atoms: C_17  and  S_18
REMARK    6  A    between atoms: S_18  and  C_19
REMARK    7  A    between atoms: C_22  and  C_25
REMARK    8  A    between atoms: N_23  and  N_24
REMARK                            x       y       z     vdW  Elec       q    Type
REMARK                         _______ _______ _______ _____ _____    ______ ____
ROOT
ATOM      1  C   UNL     1       3.427   9.936   1.927  0.00  0.00    +0.173 C 
ENDROOT
BRANCH   1   3
ATOM      2  N   UNL     1       2.683   8.383   0.151  0.00  0.00    -0.308 N 
ATOM      3  C   UNL     1       2.466   9.518   0.844  0.00  0.00    +0.224 C 
ATOM      4  O   UNL     1       1.497  10.205   0.596  0.00  0.00    -0.275 OA
ATOM      5  H   UNL     1       3.458   7.834   0.350  0.00  0.00    +0.149 HD
BRANCH   2   7
ATOM      6  C   UNL     1       2.123   8.674  -2.212  0.00  0.00    +0.033 C 
ATOM      7  C   UNL     1       1.748   7.978  -0.902  0.00  0.00    +0.100 C 
BRANCH   7   8
ATOM      8  C   UNL     1       1.820   6.484  -1.089  0.00  0.00    -0.027 A 
ATOM      9  C   UNL     1       3.058   5.845  -1.040  0.00  0.00    +0.006 A 
ATOM     10  C   UNL     1       3.157   4.497  -1.205  0.00  0.00    +0.009 A 
ATOM     11  C   UNL     1       1.997   3.736  -1.429  0.00  0.00    -0.018 A 
ATOM     12  C   UNL     1       2.060   2.343  -1.604  0.00  0.00    +0.008 A 
ATOM     13  C   UNL     1       0.916   1.639  -1.818  0.00  0.00    +0.001 A 
ATOM     14  C   UNL     1      -0.321   2.279  -1.872  0.00  0.00    +0.001 A 
ATOM     15  C   UNL     1      -0.422   3.626  -1.701  0.00  0.00    +0.008 A 
ATOM     16  C   UNL     1       0.739   4.386  -1.478  0.00  0.00    -0.018 A 
ATOM     17  C   UNL     1       0.676   5.779  -1.303  0.00  0.00    +0.014 A 
ENDBRANCH   7   8
ENDBRANCH   2   7
ENDBRANCH   1   3
BRANCH   1  18
ATOM     18  S   UNL     1       2.866  11.490   2.665  0.00  0.00    -0.075 S 
BRANCH  18  19
ATOM     19  C   UNL     1       4.136  11.735   3.863  0.00  0.00    +0.209 A 
ATOM     20  N   UNL     1       5.161  10.944   4.085  0.00  0.00    -0.121 NA
ATOM     21  N   UNL     1       5.893  11.424   5.026  0.00  0.00    -0.127 NA
ATOM     22  C   UNL     1       5.375  12.546   5.468  0.00  0.00    +0.183 A 
ATOM     23  N   UNL     1       4.234  12.780   4.737  0.00  0.00    -0.224 N 
BRANCH  22  24
ATOM     24  C   UNL     1       5.916  13.398   6.549  0.00  0.00    +0.035 A 
ATOM     25  C   UNL     1       5.075  13.868   7.559  0.00  0.00    +0.013 A 
ATOM     26  C   UNL     1       5.586  14.662   8.564  0.00  0.00    +0.001 A 
ATOM     27  C   UNL     1       6.930  14.993   8.574  0.00  0.00    +0.001 A 
ATOM     28  C   UNL     1       7.770  14.531   7.576  0.00  0.00    +0.016 A 
ATOM     29  C   UNL     1       7.272  13.731   6.567  0.00  0.00    +0.029 A 
ATOM     30 BR   UNL     1       8.423  13.094   5.208  0.00  0.00    -0.050 Br
ENDBRANCH  22  24
BRANCH  23  31
ATOM     31  N   UNL     1       3.376  13.836   4.860  0.00  0.00    -0.295 N 
ATOM     32  H   UNL     1       2.696  13.668   5.587  0.00  0.00    +0.163 HD
ATOM     33  H   UNL     1       3.881  14.694   5.029  0.00  0.00    +0.163 HD
ENDBRANCH  23  31
ENDBRANCH  18  19
ENDBRANCH   1  18
TORSDOF 7
