REMARK  Name = ZINC00366225
REMARK  7 active torsions:
REMARK  status: ('A' for Active; 'I' for Inactive)
REMARK    1  A    between atoms: C_1  and  C_2
REMARK    2  A    between atoms: C_2  and  C_3
REMARK    3  A    between atoms: C_2  and  O_4
REMARK    4  A    between atoms: O_4  and  C_5
REMARK    5  A    between atoms: C_8  and  C_11
REMARK    6  A    between atoms: C_11  and  C_19
REMARK    7  A    between atoms: N_14  and  C_18
REMARK                            x       y       z     vdW  Elec       q    Type
REMARK                         _______ _______ _______ _____ _____    ______ ____
ROOT
ATOM      1  C   UNL     1       0.110   0.002   0.015  0.00  0.00    +0.121 A 
ATOM      2  C   UNL     1       1.365  -0.579  -0.099  0.00  0.00    +0.046 A 
ATOM      3  C   UNL     1       1.491  -1.955  -0.087  0.00  0.00    +0.010 A 
ATOM      4  C   UNL     1       0.368  -2.753   0.025  0.00  0.00    -0.015 A 
ATOM      5  C   UNL     1      -0.884  -2.176   0.133  0.00  0.00    +0.010 A 
ATOM      6  C   UNL     1      -1.016  -0.801   0.128  0.00  0.00    +0.046 A 
ENDROOT
BRANCH   4   7
ATOM      7  C   UNL     1       0.508  -4.253   0.031  0.00  0.00    +0.135 C 
ATOM      8  C   UNL     1       1.818  -4.664   0.674  0.00  0.00    +0.251 C 
ATOM      9  O   UNL     1       2.937  -4.386   0.299  0.00  0.00    -0.272 OA
ATOM     10  N   UNL     1       1.475  -5.403   1.752  0.00  0.00    -0.227 N 
ATOM     11  C   UNL     1       0.147  -5.515   1.873  0.00  0.00    +0.309 C 
ATOM     12  O   UNL     1      -0.400  -6.134   2.764  0.00  0.00    -0.252 OA
ATOM     13  N   UNL     1      -0.514  -4.866   0.897  0.00  0.00    -0.281 N 
ATOM     14  C   UNL     1       2.439  -6.008   2.674  0.00  0.00    +0.143 C 
ATOM     15  C   UNL     1       0.410  -4.807  -1.392  0.00  0.00    +0.047 C 
ATOM     16  H   UNL     1      -1.476  -4.811   0.786  0.00  0.00    +0.152 HD
ENDBRANCH   4   7
BRANCH   1  17
ATOM     17  O   UNL     1      -0.016   1.355   0.009  0.00  0.00    -0.489 OA
BRANCH  17  19
ATOM     18  C   UNL     1       0.789   3.483  -0.804  0.00  0.00    +0.051 C 
ATOM     19  C   UNL     1       1.169   2.116  -0.231  0.00  0.00    +0.167 C 
ATOM     20  C   UNL     1       1.928   2.307   1.084  0.00  0.00    +0.051 C 
ENDBRANCH  17  19
ENDBRANCH   1  17
TORSDOF 3
