REMARK  Name = ZINC21257044
REMARK  10 active torsions:
REMARK  status: ('A' for Active; 'I' for Inactive)
REMARK    1  A    between atoms: C_1  and  C_2
REMARK    2  A    between atoms: C_2  and  O_3
REMARK    3  A    between atoms: O_3  and  C_4
REMARK    4  A    between atoms: C_7  and  C_10
REMARK    5  A    between atoms: C_15  and  C_20
REMARK    6  A    between atoms: C_23  and  O_28
REMARK    7  A    between atoms: C_24  and  O_26
REMARK    8  A    between atoms: O_26  and  C_27
REMARK    9  A    between atoms: O_28  and  C_29
REMARK   10  A    between atoms: C_29  and  C_30
REMARK                            x       y       z     vdW  Elec       q    Type
REMARK                         _______ _______ _______ _____ _____    ______ ____
ROOT
ATOM      1  C   UNL     1       1.527   0.036   6.140  0.00  0.00    +0.136 C 
ATOM      2  C   UNL     1       0.997  -1.330   6.503  0.00  0.00    +0.036 C 
ATOM      3  C   UNL     1       1.706  -2.473   6.519  0.00  0.00    +0.017 C 
ATOM      4  C   UNL     1       1.047  -3.784   6.912  0.00  0.00    +0.059 C 
ATOM      5  C   UNL     1      -0.423  -3.776   6.498  0.00  0.00    +0.032 C 
ATOM      6  C   UNL     1      -1.102  -2.600   7.210  0.00  0.00    +0.088 C 
ATOM      7  C   UNL     1      -0.376  -1.340   6.844  0.00  0.00    +0.163 C 
ATOM      8  O   UNL     1      -0.989  -0.290   6.841  0.00  0.00    -0.292 OA
ATOM      9  N   UNL     1       3.025  -2.567   6.215  0.00  0.00    -0.316 N 
ATOM     10  C   UNL     1       3.631  -1.980   5.110  0.00  0.00    +0.052 A 
ATOM     11  C   UNL     1       4.195  -2.727   4.090  0.00  0.00    +0.025 A 
ATOM     12  C   UNL     1       4.825  -2.078   3.042  0.00  0.00    +0.002 A 
ATOM     13  C   UNL     1       4.892  -0.697   3.016  0.00  0.00    +0.002 A 
ATOM     14  C   UNL     1       4.313   0.052   4.026  0.00  0.00    +0.025 A 
ATOM     15  C   UNL     1       3.663  -0.595   5.065  0.00  0.00    +0.049 A 
ATOM     16  N   UNL     1       2.969   0.116   6.043  0.00  0.00    -0.331 N 
ATOM     17  H   UNL     1       3.700  -3.142   6.866  0.00  0.00    +0.152 HD
ATOM     18  H   UNL     1       3.533   0.745   6.747  0.00  0.00    +0.147 HD
ENDROOT
BRANCH   1  22
ATOM     19  C   UNL     1      -0.149   1.182   2.380  0.00  0.00    +0.121 A 
ATOM     20  C   UNL     1       0.676   0.070   2.463  0.00  0.00    +0.046 A 
ATOM     21  C   UNL     1       1.221  -0.295   3.679  0.00  0.00    +0.009 A 
ATOM     22  C   UNL     1       0.936   0.440   4.814  0.00  0.00    -0.023 A 
ATOM     23  C   UNL     1       0.109   1.546   4.735  0.00  0.00    +0.009 A 
ATOM     24  C   UNL     1      -0.434   1.918   3.521  0.00  0.00    +0.046 A 
BRANCH  19  25
ATOM     25  O   UNL     1      -0.682   1.547   1.184  0.00  0.00    -0.492 OA
BRANCH  25  27
ATOM     26  C   UNL     1      -1.033   1.303  -1.195  0.00  0.00    +0.048 C 
ATOM     27  C   UNL     1      -0.345   0.743   0.051  0.00  0.00    +0.225 C 
ENDBRANCH  25  27
ENDBRANCH  19  25
ENDBRANCH   1  22
BRANCH   5  28
ATOM     28  C   UNL     1      -1.077  -5.070   6.911  0.00  0.00    -0.040 A 
ATOM     29  C   UNL     1      -1.080  -5.447   8.241  0.00  0.00    +0.008 A 
ATOM     30  C   UNL     1      -1.679  -6.633   8.624  0.00  0.00    +0.050 A 
ATOM     31  C   UNL     1      -2.277  -7.445   7.675  0.00  0.00    +0.162 A 
ATOM     32  C   UNL     1      -2.274  -7.066   6.337  0.00  0.00    +0.162 A 
ATOM     33  C   UNL     1      -1.677  -5.873   5.959  0.00  0.00    +0.053 A 
BRANCH  32  34
ATOM     34  O   UNL     1      -2.861  -7.860   5.402  0.00  0.00    -0.491 OA
ATOM     35  C   UNL     1      -2.819  -7.407   4.047  0.00  0.00    +0.277 C 
ENDBRANCH  32  34
BRANCH  31  36
ATOM     36  O   UNL     1      -2.867  -8.612   8.051  0.00  0.00    -0.489 OA
BRANCH  36  37
ATOM     37  C   UNL     1      -2.832  -8.937   9.442  0.00  0.00    +0.226 C 
ATOM     38  C   UNL     1      -3.540 -10.275   9.671  0.00  0.00    +0.048 C 
ENDBRANCH  36  37
ENDBRANCH  31  36
ENDBRANCH   5  28
TORSDOF 7
