REMARK  Name = ZINC14544798
REMARK  7 active torsions:
REMARK  status: ('A' for Active; 'I' for Inactive)
REMARK    1  A    between atoms: C_1  and  C_2
REMARK    2  A    between atoms: C_2  and  O_3
REMARK    3  A    between atoms: O_3  and  C_4
REMARK    4  A    between atoms: C_7  and  N_10
REMARK    5  A    between atoms: N_10  and  S_11
REMARK    6  A    between atoms: S_11  and  C_14
REMARK    7  A    between atoms: C_27  and  C_30
REMARK                            x       y       z     vdW  Elec       q    Type
REMARK                         _______ _______ _______ _____ _____    ______ ____
ROOT
ATOM      1  C   UNL     1      -4.265   2.975   0.686  0.00  0.00    +0.109 A 
ATOM      2  C   UNL     1      -3.648   4.131   1.129  0.00  0.00    +0.030 A 
ATOM      3  C   UNL     1      -4.162   5.365   0.788  0.00  0.00    +0.025 A 
ATOM      4  C   UNL     1      -5.310   5.456   0.009  0.00  0.00    +0.031 A 
ATOM      5  C   UNL     1      -5.926   4.282  -0.438  0.00  0.00    -0.018 A 
ATOM      6  C   UNL     1      -5.402   3.054  -0.096  0.00  0.00    +0.034 A 
ATOM      7  C   UNL     1      -7.129   4.423  -1.287  0.00  0.00    +0.049 C 
ATOM      8  C   UNL     1      -8.171   3.367  -1.353  0.00  0.00    -0.023 C 
ATOM      9  C   UNL     1      -9.347   3.943  -1.573  0.00  0.00    -0.030 C 
ATOM     10  C   UNL     1      -9.180   5.463  -1.640  0.00  0.00    +0.033 C 
ATOM     11  C   UNL     1      -7.918   5.672  -0.791  0.00  0.00    +0.029 C 
ATOM     12  C   UNL     1      -7.034   6.863  -1.112  0.00  0.00    +0.107 C 
ATOM     13  N   UNL     1      -5.831   6.705  -0.266  0.00  0.00    -0.336 N 
ATOM     14  H   UNL     1      -5.387   7.493   0.084  0.00  0.00    +0.147 HD
ENDROOT
BRANCH  12  15
ATOM     15  C   UNL     1      -6.651   6.850  -2.569  0.00  0.00    -0.002 A 
ATOM     16  C   UNL     1      -5.527   6.338  -3.095  0.00  0.00    +0.089 A 
ATOM     17  N   UNL     1      -5.526   6.509  -4.452  0.00  0.00    -0.360 N 
ATOM     18  H   UNL     1      -4.819   6.220  -5.050  0.00  0.00    +0.165 HD
ATOM     19  C   UNL     1      -6.679   7.152  -4.843  0.00  0.00    +0.047 A 
ATOM     20  C   UNL     1      -7.437   7.388  -3.682  0.00  0.00    +0.005 A 
ATOM     21  C   UNL     1      -8.668   8.040  -3.774  0.00  0.00    +0.010 A 
ATOM     22  C   UNL     1      -9.137   8.434  -4.996  0.00  0.00    +0.001 A 
ATOM     23  C   UNL     1      -8.396   8.198  -6.145  0.00  0.00    +0.002 A 
ATOM     24  C   UNL     1      -7.176   7.562  -6.076  0.00  0.00    +0.026 A 
ENDBRANCH  12  15
BRANCH   1  25
ATOM     25  S   UNL     1      -3.605   1.401   1.125  0.00  0.00    +0.072 S 
ATOM     26  O   UNL     1      -4.664   0.464   0.986  0.00  0.00    -0.150 OA
ATOM     27  O   UNL     1      -2.902   1.581   2.347  0.00  0.00    -0.150 OA
BRANCH  25  28
ATOM     28  N   UNL     1      -2.473   1.009  -0.019  0.00  0.00    -0.216 N 
ATOM     29  H   UNL     1      -2.607   0.236  -0.589  0.00  0.00    +0.174 HD
BRANCH  28  33
ATOM     30  C   UNL     1       0.950   3.349  -0.443  0.00  0.00    +0.121 A 
ATOM     31  C   UNL     1      -0.069   3.435  -1.380  0.00  0.00    +0.047 A 
ATOM     32  C   UNL     1      -1.202   2.657  -1.242  0.00  0.00    +0.028 A 
ATOM     33  C   UNL     1      -1.323   1.793  -0.162  0.00  0.00    +0.048 A 
ATOM     34  C   UNL     1      -0.300   1.703   0.772  0.00  0.00    +0.028 A 
ATOM     35  C   UNL     1       0.832   2.482   0.633  0.00  0.00    +0.047 A 
BRANCH  30  36
ATOM     36  O   UNL     1       2.065   4.116  -0.579  0.00  0.00    -0.492 OA
BRANCH  36  38
ATOM     37  C   UNL     1       4.243   4.911   0.103  0.00  0.00    +0.048 C 
ATOM     38  C   UNL     1       3.075   3.976   0.423  0.00  0.00    +0.225 C 
ENDBRANCH  36  38
ENDBRANCH  30  36
ENDBRANCH  28  33
ENDBRANCH  25  28
ENDBRANCH   1  25
TORSDOF 6
