REMARK  Name = ZINC59258817
REMARK  8 active torsions:
REMARK  status: ('A' for Active; 'I' for Inactive)
REMARK    1  A    between atoms: C_1  and  C_2
REMARK    2  A    between atoms: C_2  and  C_4
REMARK    3  A    between atoms: C_2  and  N_14
REMARK    4  A    between atoms: C_15  and  C_17
REMARK    5  A    between atoms: C_17  and  N_18
REMARK    6  A    between atoms: C_21  and  C_24
REMARK    7  A    between atoms: N_26  and  C_27
REMARK    8  A    between atoms: C_32  and  O_33
REMARK                            x       y       z     vdW  Elec       q    Type
REMARK                         _______ _______ _______ _____ _____    ______ ____
ROOT
ATOM      1  N   UNL     1       4.223  -1.088   2.140  0.00  0.00    +0.385 N 
ATOM      2  C   UNL     1       4.716   0.277   1.921  0.00  0.00    -0.077 C 
ATOM      3  C   UNL     1       6.201   0.235   1.556  0.00  0.00    -0.006 C 
ATOM      4  C   UNL     1       6.984  -0.414   2.701  0.00  0.00    +0.072 C 
ATOM      5  C   UNL     1       6.413  -1.809   2.970  0.00  0.00    -0.006 C 
ATOM      6  C   UNL     1       4.920  -1.691   3.283  0.00  0.00    -0.077 C 
ATOM      7  H   UNL     1       4.393  -1.641   1.314  0.00  0.00    -0.081 HD
ENDROOT
BRANCH   4   8
ATOM      8  C   UNL     1       8.437  -0.530   2.316  0.00  0.00    +0.220 C 
ATOM      9  O   UNL     1       8.810  -0.133   1.232  0.00  0.00    -0.275 OA
ATOM     10  N   UNL     1       9.320  -1.075   3.175  0.00  0.00    -0.282 N 
ATOM     11  H   UNL     1       9.035  -1.333   4.066  0.00  0.00    +0.155 HD
BRANCH  10  12
ATOM     12  C   UNL     1      10.651  -1.268   2.783  0.00  0.00    +0.077 A 
ATOM     13  C   UNL     1      11.265  -0.360   1.932  0.00  0.00    +0.047 A 
ATOM     14  C   UNL     1      12.579  -0.553   1.546  0.00  0.00    +0.043 A 
ATOM     15  C   UNL     1      13.284  -1.651   2.007  0.00  0.00    +0.023 A 
ATOM     16  C   UNL     1      12.678  -2.560   2.855  0.00  0.00    +0.049 A 
ATOM     17  C   UNL     1      11.364  -2.370   3.250  0.00  0.00    +0.138 A 
ATOM     18 CL   UNL     1      13.345   0.584   0.482  0.00  0.00    -0.083 Cl
BRANCH  17  19
ATOM     19  O   UNL     1      10.769  -3.260   4.089  0.00  0.00    -0.505 OA
ATOM     20  H   UNL     1      10.324  -3.989   3.637  0.00  0.00    +0.292 HD
ENDBRANCH  17  19
ENDBRANCH  10  12
ENDBRANCH   4   8
BRANCH   1  21
ATOM     21  C   UNL     1       2.780  -1.048   2.413  0.00  0.00    +0.019 C 
BRANCH  21  23
ATOM     22  N   UNL     1       0.710  -0.422   1.214  0.00  0.00    -0.310 N 
ATOM     23  C   UNL     1       2.052  -0.543   1.195  0.00  0.00    +0.197 C 
ATOM     24  O   UNL     1       2.673  -0.246   0.197  0.00  0.00    -0.278 OA
ATOM     25  H   UNL     1       0.213  -0.660   2.012  0.00  0.00    +0.149 HD
BRANCH  22  27
ATOM     26  C   UNL     1      -0.007   1.598   0.037  0.00  0.00    +0.033 C 
ATOM     27  C   UNL     1       0.002   0.068   0.029  0.00  0.00    +0.100 C 
BRANCH  27  28
ATOM     28  C   UNL     1      -1.416  -0.442   0.044  0.00  0.00    -0.027 A 
ATOM     29  C   UNL     1      -2.127  -0.483   1.229  0.00  0.00    +0.006 A 
ATOM     30  C   UNL     1      -3.423  -0.955   1.235  0.00  0.00    +0.004 A 
ATOM     31  C   UNL     1      -4.022  -1.388   0.059  0.00  0.00    -0.044 A 
ATOM     32  C   UNL     1      -3.316  -1.343  -1.122  0.00  0.00    -0.044 A 
ATOM     33  C   UNL     1      -2.012  -0.866  -1.126  0.00  0.00    +0.009 A 
ATOM     34  C   UNL     1      -3.907  -1.781  -2.436  0.00  0.00    +0.035 C 
ATOM     35  C   UNL     1      -5.142  -2.650  -2.207  0.00  0.00    +0.005 C 
ATOM     36  C   UNL     1      -6.081  -1.914  -1.245  0.00  0.00    +0.005 C 
ATOM     37  C   UNL     1      -5.437  -1.898   0.140  0.00  0.00    +0.035 C 
ENDBRANCH  27  28
ENDBRANCH  22  27
ENDBRANCH  21  23
ENDBRANCH   1  21
TORSDOF 7
