REMARK  Name = ZINC19791498
REMARK  11 active torsions:
REMARK  status: ('A' for Active; 'I' for Inactive)
REMARK    1  A    between atoms: C_1  and  C_2
REMARK    2  A    between atoms: C_4  and  S_25
REMARK    3  A    between atoms: C_5  and  C_23
REMARK    4  A    between atoms: C_6  and  C_16
REMARK    5  A    between atoms: C_9  and  O_11
REMARK    6  A    between atoms: O_11  and  C_12
REMARK    7  A    between atoms: C_12  and  C_13
REMARK    8  A    between atoms: C_12  and  C_14
REMARK    9  A    between atoms: C_12  and  C_15
REMARK   10  A    between atoms: S_25  and  C_26
REMARK   11  A    between atoms: C_26  and  C_27
REMARK                            x       y       z     vdW  Elec       q    Type
REMARK                         _______ _______ _______ _____ _____    ______ ____
ROOT
ATOM      1  C   UNL     1       0.018   1.503   0.007  0.00  0.00    +0.066 C 
ATOM      2  C   UNL     1       0.019  -0.004   0.000  0.00  0.00    +0.050 C 
ATOM      3  N   UNL     1      -0.077  -0.634  -1.143  0.00  0.00    -0.244 NA
ATOM      4  C   UNL     1      -0.088  -1.959  -1.295  0.00  0.00    +0.112 C 
ATOM      5  C   UNL     1       0.006  -2.823  -0.214  0.00  0.00    +0.073 C 
ATOM      6  C   UNL     1       0.122  -2.204   1.167  0.00  0.00    +0.101 C 
ATOM      7  C   UNL     1       0.130  -0.687   1.216  0.00  0.00    +0.070 C 
ATOM      8  C   UNL     1       0.235  -0.016   2.400  0.00  0.00    +0.338 C 
ATOM      9  O   UNL     1       0.458  -0.696   3.543  0.00  0.00    -0.245 OA
ENDROOT
BRANCH   6  10
ATOM     10  C   UNL     1       1.402  -2.693   1.795  0.00  0.00    -0.034 A 
ATOM     11  C   UNL     1       2.615  -2.425   1.190  0.00  0.00    +0.006 A 
ATOM     12  C   UNL     1       3.789  -2.873   1.765  0.00  0.00    +0.020 A 
ATOM     13  C   UNL     1       3.750  -3.590   2.947  0.00  0.00    +0.041 A 
ATOM     14  C   UNL     1       2.536  -3.858   3.553  0.00  0.00    +0.020 A 
ATOM     15  C   UNL     1       1.363  -3.405   2.980  0.00  0.00    +0.006 A 
ATOM     16 CL   UNL     1       5.224  -4.153   3.671  0.00  0.00    -0.084 Cl
ENDBRANCH   6  10
BRANCH   5  17
ATOM     17  C   UNL     1      -0.008  -4.244  -0.394  0.00  0.00    +0.098 C 
ATOM     18  N   UNL     1      -0.019  -5.371  -0.536  0.00  0.00    -0.191 NA
ENDBRANCH   5  17
BRANCH   8  19
ATOM     19  O   UNL     1       0.116   1.327   2.426  0.00  0.00    -0.456 OA
BRANCH  19  20
ATOM     20  C   UNL     1       0.237   1.964   3.700  0.00  0.00    +0.106 C 
ATOM     21  C   UNL     1       1.615   1.661   4.292  0.00  0.00    +0.055 C 
ATOM     22  C   UNL     1       0.076   3.476   3.531  0.00  0.00    +0.055 C 
ATOM     23  C   UNL     1      -0.849   1.437   4.639  0.00  0.00    +0.055 C 
ENDBRANCH  19  20
ENDBRANCH   8  19
BRANCH   4  24
ATOM     24  S   UNL     1      -0.225  -2.633  -2.917  0.00  0.00    -0.096 S 
BRANCH  24  25
ATOM     25  C   UNL     1      -0.319  -1.174  -3.991  0.00  0.00    +0.171 C 
BRANCH  25  26
ATOM     26  C   UNL     1      -0.441  -1.615  -5.427  0.00  0.00    +0.221 C 
ATOM     27  O   UNL     1      -0.462  -2.797  -5.699  0.00  0.00    -0.275 OA
ATOM     28  N   UNL     1      -0.527  -0.696  -6.409  0.00  0.00    -0.329 N 
ATOM     29  H   UNL     1      -0.510   0.249  -6.192  0.00  0.00    +0.145 HD
ATOM     30  H   UNL     1      -0.605  -0.979  -7.333  0.00  0.00    +0.145 HD
ENDBRANCH  25  26
ENDBRANCH  24  25
ENDBRANCH   4  24
TORSDOF 7
