REMARK  Name = ZINC44868652
REMARK  2 active torsions:
REMARK  status: ('A' for Active; 'I' for Inactive)
REMARK    1  A    between atoms: C_1  and  C_2
REMARK    2  A    between atoms: C_12  and  C_14
REMARK                            x       y       z     vdW  Elec       q    Type
REMARK                         _______ _______ _______ _____ _____    ______ ____
ROOT
ATOM      1  C   UNL     1      -0.005   1.536   0.015  0.00  0.00    +0.029 C 
ATOM      2  C   UNL     1       0.009   0.006   0.002  0.00  0.00    +0.083 C 
ATOM      3  C   UNL     1       0.675  -0.510  -1.284  0.00  0.00    +0.059 C 
ATOM      4  C   UNL     1       1.871  -1.299  -0.801  0.00  0.00    -0.024 A 
ATOM      5  C   UNL     1       2.841  -1.993  -1.500  0.00  0.00    +0.005 A 
ATOM      6  C   UNL     1       3.852  -2.648  -0.820  0.00  0.00    +0.000 A 
ATOM      7  C   UNL     1       3.890  -2.607   0.561  0.00  0.00    +0.002 A 
ATOM      8  C   UNL     1       2.925  -1.916   1.263  0.00  0.00    +0.024 A 
ATOM      9  C   UNL     1       1.901  -1.252   0.584  0.00  0.00    +0.040 A 
ATOM     10  N   UNL     1       0.836  -0.504   1.098  0.00  0.00    -0.264 N 
ATOM     11  C   UNL     1       0.605  -0.284   2.407  0.00  0.00    +0.251 C 
ATOM     12  O   UNL     1       1.403  -0.671   3.239  0.00  0.00    -0.270 OA
ENDROOT
BRANCH  11  13
ATOM     13  C   UNL     1      -0.617   0.426   2.832  0.00  0.00    +0.041 A 
ATOM     14  C   UNL     1      -1.589   0.771   1.889  0.00  0.00    +0.015 A 
ATOM     15  C   UNL     1      -2.730   1.434   2.285  0.00  0.00    +0.028 A 
ATOM     16  C   UNL     1      -2.915   1.761   3.621  0.00  0.00    +0.076 A 
ATOM     17  C   UNL     1      -1.947   1.421   4.568  0.00  0.00    +0.143 A 
ATOM     18  C   UNL     1      -0.806   0.750   4.179  0.00  0.00    +0.060 A 
ATOM     19  O   UNL     1      -2.143   1.752   5.873  0.00  0.00    -0.481 OA
ATOM     20  C   UNL     1      -2.861   2.962   6.128  0.00  0.00    +0.325 C 
ATOM     21  C   UNL     1      -4.088   3.014   5.254  0.00  0.00    +0.255 C 
ATOM     22  O   UNL     1      -5.089   3.577   5.644  0.00  0.00    -0.272 OA
ATOM     23  N   UNL     1      -4.069   2.433   4.035  0.00  0.00    -0.280 N 
ATOM     24  H   UNL     1      -4.845   2.480   3.455  0.00  0.00    +0.155 HD
ENDBRANCH  11  13
TORSDOF 1
