REMARK  Name = ZINC44854601
REMARK  4 active torsions:
REMARK  status: ('A' for Active; 'I' for Inactive)
REMARK    1  A    between atoms: C_5  and  C_7
REMARK    2  A    between atoms: C_9  and  N_31
REMARK    3  A    between atoms: N_10  and  C_23
REMARK    4  A    between atoms: N_16  and  C_17
REMARK                            x       y       z     vdW  Elec       q    Type
REMARK                         _______ _______ _______ _____ _____    ______ ____
ROOT
ATOM      1  C   UNL     1       1.213  -2.166  -0.276  0.00  0.00    +0.091 A 
ATOM      2  C   UNL     1       0.038  -2.912  -0.028  0.00  0.00    +0.086 A 
ATOM      3  C   UNL     1      -1.298  -2.614   0.211  0.00  0.00    +0.131 A 
ATOM      4  N   UNL     1      -1.950  -3.781   0.377  0.00  0.00    -0.216 N 
ATOM      5  N   UNL     1      -1.055  -4.849   0.248  0.00  0.00    -0.144 NA
ATOM      6  C   UNL     1       0.150  -4.381   0.005  0.00  0.00    +0.189 A 
ATOM      7  N   UNL     1       1.365  -4.925  -0.203  0.00  0.00    -0.193 NA
ATOM      8  C   UNL     1       2.409  -4.154  -0.428  0.00  0.00    +0.218 A 
ATOM      9  N   UNL     1       2.348  -2.827  -0.469  0.00  0.00    -0.214 NA
ATOM     10  N   UNL     1       3.635  -4.759  -0.636  0.00  0.00    -0.311 N 
ATOM     11  H   UNL     1       4.421  -4.216  -0.804  0.00  0.00    +0.149 HD
ENDROOT
BRANCH   4  12
ATOM     12  C   UNL     1      -3.320  -3.906   0.639  0.00  0.00    +0.069 A 
ATOM     13  C   UNL     1      -3.968  -2.961   1.423  0.00  0.00    +0.029 A 
ATOM     14  C   UNL     1      -5.319  -3.086   1.679  0.00  0.00    +0.023 A 
ATOM     15  C   UNL     1      -6.028  -4.153   1.157  0.00  0.00    +0.059 A 
ATOM     16  C   UNL     1      -5.385  -5.098   0.374  0.00  0.00    +0.061 A 
ATOM     17  C   UNL     1      -4.034  -4.974   0.110  0.00  0.00    +0.049 A 
ATOM     18 CL   UNL     1      -6.277  -6.436  -0.280  0.00  0.00    -0.082 Cl
ATOM     19 CL   UNL     1      -7.726  -4.309   1.482  0.00  0.00    -0.082 Cl
ENDBRANCH   4  12
BRANCH   1  24
ATOM     20  C   UNL     1       0.680   1.417   0.721  0.00  0.00    +0.001 A 
ATOM     21  C   UNL     1       1.110   2.081  -0.415  0.00  0.00    +0.003 A 
ATOM     22  C   UNL     1       1.574   1.370  -1.506  0.00  0.00    +0.039 A 
ATOM     23  C   UNL     1       1.611  -0.012  -1.468  0.00  0.00    +0.133 A 
ATOM     24  C   UNL     1       1.178  -0.688  -0.324  0.00  0.00    +0.036 A 
ATOM     25  C   UNL     1       0.712   0.039   0.772  0.00  0.00    +0.013 A 
ATOM     26  F   UNL     1       2.063  -0.707  -2.535  0.00  0.00    -0.205 F 
ENDBRANCH   1  24
BRANCH  10  27
ATOM     27  C   UNL     1       3.747  -6.220  -0.602  0.00  0.00    +0.073 C 
ATOM     28  C   UNL     1       3.398  -6.789  -1.979  0.00  0.00    +0.022 C 
ATOM     29  C   UNL     1       3.514  -8.315  -1.944  0.00  0.00    +0.002 C 
ATOM     30  C   UNL     1       4.947  -8.708  -1.577  0.00  0.00    +0.000 C 
ATOM     31  C   UNL     1       5.296  -8.138  -0.201  0.00  0.00    +0.002 C 
ATOM     32  C   UNL     1       5.179  -6.613  -0.236  0.00  0.00    +0.022 C 
ENDBRANCH  10  27
BRANCH   3  33
ATOM     33  N   UNL     1      -1.855  -1.350   0.270  0.00  0.00    -0.342 N 
ATOM     34  H   UNL     1      -1.296  -0.567   0.148  0.00  0.00    +0.144 HD
ATOM     35  H   UNL     1      -2.806  -1.247   0.432  0.00  0.00    +0.144 HD
ENDBRANCH   3  33
TORSDOF 4
