REMARK  Name = ZINC31120195
REMARK  11 active torsions:
REMARK  status: ('A' for Active; 'I' for Inactive)
REMARK    1  A    between atoms: C_1  and  C_2
REMARK    2  A    between atoms: C_3  and  S_26
REMARK    3  A    between atoms: C_8  and  C_10
REMARK    4  A    between atoms: C_10  and  C_12
REMARK    5  A    between atoms: C_10  and  N_16
REMARK    6  A    between atoms: C_12  and  C_13
REMARK    7  A    between atoms: C_13  and  C_14
REMARK    8  A    between atoms: C_13  and  C_15
REMARK    9  A    between atoms: C_17  and  C_19
REMARK   10  A    between atoms: S_26  and  C_27
REMARK   11  A    between atoms: C_27  and  C_28
REMARK                            x       y       z     vdW  Elec       q    Type
REMARK                         _______ _______ _______ _____ _____    ______ ____
ROOT
ATOM      1  C   UNL     1       0.203   1.792   0.154  0.00  0.00    +0.067 C 
ATOM      2  C   UNL     1       0.236   0.285   0.161  0.00  0.00    +0.061 A 
ATOM      3  C   UNL     1       0.369  -0.402  -1.008  0.00  0.00    +0.070 A 
ATOM      4  S   UNL     1       0.347  -2.085  -0.405  0.00  0.00    -0.045 S 
ATOM      5  C   UNL     1       0.165  -1.696   1.330  0.00  0.00    +0.166 A 
ATOM      6  N   UNL     1       0.143  -0.376   1.299  0.00  0.00    -0.229 NA
ATOM      7  N   UNL     1       0.075  -2.554   2.422  0.00  0.00    -0.263 N 
ATOM      8  C   UNL     1       0.124  -3.888   2.236  0.00  0.00    +0.239 C 
ATOM      9  O   UNL     1       0.246  -4.341   1.118  0.00  0.00    -0.273 OA
ATOM     10  H   UNL     1      -0.023  -2.192   3.317  0.00  0.00    +0.157 HD
ENDROOT
BRANCH   8  11
ATOM     11  C   UNL     1       0.026  -4.818   3.418  0.00  0.00    +0.160 C 
BRANCH  11  12
ATOM     12  N   UNL     1       0.122  -6.205   2.958  0.00  0.00    -0.300 N 
ATOM     13  C   UNL     1       0.564  -7.164   3.796  0.00  0.00    +0.245 C 
ATOM     14  O   UNL     1       0.794  -6.896   4.959  0.00  0.00    -0.270 OA
ATOM     15  H   UNL     1      -0.133  -6.434   2.050  0.00  0.00    +0.150 HD
BRANCH  13  16
ATOM     16  C   UNL     1       0.768  -8.541   3.300  0.00  0.00    +0.037 A 
ATOM     17  C   UNL     1       0.510  -8.851   1.963  0.00  0.00    +0.014 A 
ATOM     18  C   UNL     1       0.703 -10.137   1.506  0.00  0.00    +0.021 A 
ATOM     19  C   UNL     1       1.152 -11.122   2.371  0.00  0.00    +0.041 A 
ATOM     20  C   UNL     1       1.410 -10.821   3.698  0.00  0.00    +0.021 A 
ATOM     21  C   UNL     1       1.226  -9.537   4.165  0.00  0.00    +0.014 A 
ATOM     22 CL   UNL     1       1.392 -12.740   1.789  0.00  0.00    -0.084 Cl
ENDBRANCH  13  16
ENDBRANCH  11  12
BRANCH  11  23
ATOM     23  C   UNL     1      -1.314  -4.606   4.125  0.00  0.00    +0.034 C 
BRANCH  23  24
ATOM     24  C   UNL     1      -2.452  -5.048   3.202  0.00  0.00    -0.015 C 
ATOM     25  C   UNL     1      -3.770  -5.040   3.979  0.00  0.00    +0.007 C 
ATOM     26  C   UNL     1      -2.552  -4.086   2.017  0.00  0.00    +0.007 C 
ENDBRANCH  23  24
ENDBRANCH  11  23
ENDBRANCH   8  11
BRANCH   3  27
ATOM     27  S   UNL     1       0.519   0.201  -2.657  0.00  0.00    -0.107 S 
BRANCH  27  28
ATOM     28  C   UNL     1       0.655  -1.302  -3.663  0.00  0.00    +0.170 C 
BRANCH  28  29
ATOM     29  C   UNL     1       0.791  -0.924  -5.116  0.00  0.00    +0.221 C 
ATOM     30  O   UNL     1       0.796   0.244  -5.440  0.00  0.00    -0.275 OA
ATOM     31  N   UNL     1       0.907  -1.885  -6.054  0.00  0.00    -0.329 N 
ATOM     32  H   UNL     1       0.903  -2.819  -5.795  0.00  0.00    +0.145 HD
ATOM     33  H   UNL     1       0.995  -1.641  -6.989  0.00  0.00    +0.145 HD
ENDBRANCH  28  29
ENDBRANCH  27  28
ENDBRANCH   3  27
TORSDOF 8
