REMARK  Name = ZINC01786665
REMARK  6 active torsions:
REMARK  status: ('A' for Active; 'I' for Inactive)
REMARK    1  A    between atoms: C_6  and  C_7
REMARK    2  A    between atoms: N_9  and  N_10
REMARK    3  A    between atoms: C_11  and  C_13
REMARK    4  A    between atoms: C_13  and  C_14
REMARK    5  A    between atoms: C_14  and  N_15
REMARK    6  A    between atoms: C_19  and  C_20
REMARK                            x       y       z     vdW  Elec       q    Type
REMARK                         _______ _______ _______ _____ _____    ______ ____
ROOT
ATOM      1  C   UNL     1      -2.826  -7.724   0.147  0.00  0.00    +0.124 C 
ENDROOT
BRANCH   1   2
ATOM      2  N   UNL     1      -4.221  -8.170   0.117  0.00  0.00    -0.255 N 
ATOM      3  C   UNL     1      -4.919  -8.186   1.241  0.00  0.00    +0.258 C 
ATOM      4  O   UNL     1      -4.431  -7.840   2.301  0.00  0.00    -0.269 OA
ATOM      5  C   UNL     1      -6.319  -8.645   1.144  0.00  0.00    +0.077 C 
ATOM      6  C   UNL     1      -7.259  -8.766   2.115  0.00  0.00    +0.028 C 
ATOM      7  S   UNL     1      -6.435  -8.999  -0.605  0.00  0.00    -0.061 S 
ATOM      8  C   UNL     1      -4.767  -8.549  -1.056  0.00  0.00    +0.121 C 
ATOM      9  S   UNL     1      -4.037  -8.591  -2.604  0.00  0.00    -0.027 S 
BRANCH   6  10
ATOM     10  C   UNL     1      -8.547  -9.405   1.816  0.00  0.00    -0.020 A 
ATOM     11  C   UNL     1      -8.692 -10.185   0.663  0.00  0.00    +0.012 A 
ATOM     12  C   UNL     1      -9.901 -10.784   0.385  0.00  0.00    +0.050 A 
ATOM     13  C   UNL     1     -10.979 -10.617   1.244  0.00  0.00    +0.166 A 
ATOM     14  C   UNL     1     -10.842  -9.840   2.396  0.00  0.00    +0.167 A 
ATOM     15  C   UNL     1      -9.632  -9.241   2.686  0.00  0.00    +0.057 A 
ATOM     16  O   UNL     1     -12.034  -9.835   3.062  0.00  0.00    -0.453 OA
ATOM     17  C   UNL     1     -13.012 -10.276   2.102  0.00  0.00    +0.466 C 
ATOM     18  O   UNL     1     -12.255 -11.096   1.193  0.00  0.00    -0.453 OA
ENDBRANCH   6  10
ENDBRANCH   1   2
BRANCH   1  19
ATOM     19  C   UNL     1      -2.769  -6.212  -0.082  0.00  0.00    +0.116 C 
BRANCH  19  21
ATOM     20  N   UNL     1      -1.039  -4.451  -0.231  0.00  0.00    -0.234 N 
ATOM     21  C   UNL     1      -1.334  -5.753  -0.051  0.00  0.00    +0.231 C 
ATOM     22  O   UNL     1      -0.445  -6.556   0.136  0.00  0.00    -0.274 OA
ATOM     23  H   UNL     1      -1.750  -3.808  -0.381  0.00  0.00    +0.173 HD
BRANCH  20  26
ATOM     24  C   UNL     1       0.590  -2.721  -0.383  0.00  0.00    +0.260 C 
ATOM     25  O   UNL     1      -0.301  -1.917  -0.570  0.00  0.00    -0.269 OA
ATOM     26  N   UNL     1       0.295  -4.024  -0.203  0.00  0.00    -0.230 N 
ATOM     27  H   UNL     1       1.007  -4.666  -0.053  0.00  0.00    +0.173 HD
BRANCH  24  33
ATOM     28  C   UNL     1       2.307  -0.923  -0.539  0.00  0.00    +0.014 A 
ATOM     29  C   UNL     1       3.622  -0.509  -0.509  0.00  0.00    +0.016 A 
ATOM     30  C   UNL     1       4.635  -1.429  -0.296  0.00  0.00    +0.018 A 
ATOM     31  C   UNL     1       4.335  -2.768  -0.111  0.00  0.00    +0.016 A 
ATOM     32  C   UNL     1       3.024  -3.193  -0.138  0.00  0.00    +0.014 A 
ATOM     33  C   UNL     1       1.998  -2.272  -0.352  0.00  0.00    +0.038 A 
ATOM     34 BR   UNL     1       6.436  -0.853  -0.259  0.00  0.00    -0.050 Br
ENDBRANCH  24  33
ENDBRANCH  20  26
ENDBRANCH  19  21
ENDBRANCH   1  19
TORSDOF 6
