REMARK  Name = ZINC12075560
REMARK  7 active torsions:
REMARK  status: ('A' for Active; 'I' for Inactive)
REMARK    1  A    between atoms: C_1  and  C_2
REMARK    2  A    between atoms: C_5  and  C_7
REMARK    3  A    between atoms: C_7  and  N_8
REMARK    4  A    between atoms: C_9  and  C_11
REMARK    5  A    between atoms: C_11  and  C_12
REMARK    6  A    between atoms: C_19  and  C_20
REMARK    7  A    between atoms: C_19  and  N_47
REMARK                            x       y       z     vdW  Elec       q    Type
REMARK                         _______ _______ _______ _____ _____    ______ ____
ROOT
ATOM      1  C   UNL     1       2.006   8.781   3.171  0.00  0.00    +0.028 C 
ATOM      2  C   UNL     1       2.070   9.185   4.616  0.00  0.00    +0.200 C 
ATOM      3  O   UNL     1       1.199   8.798   5.367  0.00  0.00    -0.278 OA
ATOM      4  N   UNL     1       3.047   9.953   5.111  0.00  0.00    -0.318 N 
ATOM      5  C   UNL     1       4.160  10.441   4.301  0.00  0.00    +0.085 C 
ATOM      6  C   UNL     1       3.809  10.343   2.815  0.00  0.00    -0.058 C 
ATOM      7  H   UNL     1       3.015  10.197   6.049  0.00  0.00    +0.149 HD
ATOM      8  N   UNL     1       3.329   8.972   2.547  0.00  0.00    +0.391 N 
ATOM      9  H   UNL     1       3.991   8.300   2.952  0.00  0.00    -0.080 HD
ENDROOT
BRANCH   1  10
ATOM     10  C   UNL     1       1.619   7.304   3.072  0.00  0.00    +0.089 C 
BRANCH  10  12
ATOM     11  N   UNL     1       2.490   5.134   3.878  0.00  0.00    -0.309 N 
ATOM     12  C   UNL     1       2.674   6.463   3.742  0.00  0.00    +0.212 C 
ATOM     13  O   UNL     1       3.688   6.980   4.159  0.00  0.00    -0.276 OA
ATOM     14  H   UNL     1       1.679   4.720   3.545  0.00  0.00    +0.149 HD
BRANCH  11  15
ATOM     15  C   UNL     1       3.516   4.316   4.529  0.00  0.00    +0.167 C 
BRANCH  15  20
ATOM     16  C   UNL     1       3.072  -0.361   2.810  0.00  0.00    +0.066 C 
ATOM     17  C   UNL     1       2.820   0.712   3.838  0.00  0.00    +0.046 A 
ATOM     18  C   UNL     1       2.113   0.442   4.965  0.00  0.00    +0.070 A 
ATOM     19  S   UNL     1       2.152   2.039   5.766  0.00  0.00    -0.079 S 
ATOM     20  C   UNL     1       3.070   2.877   4.553  0.00  0.00    +0.096 A 
ATOM     21  N   UNL     1       3.277   1.934   3.663  0.00  0.00    -0.248 NA
ENDBRANCH  15  20
ENDBRANCH  11  15
ENDBRANCH  10  12
ENDBRANCH   1  10
BRANCH   8  22
ATOM     22  C   UNL     1       3.240   8.741   1.087  0.00  0.00    -0.039 C 
BRANCH  22  23
ATOM     23  C   UNL     1       4.632   8.589   0.531  0.00  0.00    -0.029 A 
ATOM     24  C   UNL     1       5.237   9.649  -0.117  0.00  0.00    +0.004 A 
ATOM     25  C   UNL     1       6.517   9.511  -0.622  0.00  0.00    +0.000 A 
ATOM     26  C   UNL     1       7.188   8.310  -0.489  0.00  0.00    +0.003 A 
ATOM     27  C   UNL     1       6.583   7.247   0.154  0.00  0.00    +0.038 A 
ATOM     28  C   UNL     1       5.303   7.386   0.665  0.00  0.00    +0.125 A 
ATOM     29  F   UNL     1       4.711   6.347   1.294  0.00  0.00    -0.205 F 
ENDBRANCH  22  23
ENDBRANCH   8  22
TORSDOF 6
