REMARK  Name = ZINC20116903
REMARK  11 active torsions:
REMARK  status: ('A' for Active; 'I' for Inactive)
REMARK    1  A    between atoms: C_1  and  C_2
REMARK    2  A    between atoms: C_2  and  N_3
REMARK    3  A    between atoms: C_7  and  C_9
REMARK    4  A    between atoms: C_9  and  N_10
REMARK    5  A    between atoms: C_11  and  C_13
REMARK    6  A    between atoms: C_13  and  N_14
REMARK    7  A    between atoms: C_21  and  S_25
REMARK    8  A    between atoms: C_22  and  C_24
REMARK    9  A    between atoms: S_25  and  N_28
REMARK   10  A    between atoms: C_30  and  C_37
REMARK   11  A    between atoms: C_33  and  C_36
REMARK                            x       y       z     vdW  Elec       q    Type
REMARK                         _______ _______ _______ _____ _____    ______ ____
ROOT
ATOM      1  N   UNL     1      -4.224  -2.876   2.119  0.00  0.00    -0.290 N 
ATOM      2  C   UNL     1      -4.702  -4.143   2.222  0.00  0.00    +0.203 A 
ATOM      3  N   UNL     1      -5.388  -4.524   3.266  0.00  0.00    -0.230 NA
ATOM      4  C   UNL     1      -5.640  -3.683   4.265  0.00  0.00    +0.117 A 
ATOM      5  C   UNL     1      -5.186  -2.352   4.248  0.00  0.00    +0.099 A 
ATOM      6  C   UNL     1      -4.434  -1.968   3.091  0.00  0.00    +0.264 A 
ATOM      7  O   UNL     1      -3.994  -0.836   2.985  0.00  0.00    -0.267 OA
ATOM      8  C   UNL     1      -5.546  -1.567   5.414  0.00  0.00    +0.130 A 
ATOM      9  C   UNL     1      -6.262  -2.140   6.395  0.00  0.00    +0.016 A 
ATOM     10  S   UNL     1      -6.506  -3.806   5.809  0.00  0.00    -0.072 S 
ATOM     11  C   UNL     1      -6.744  -1.523   7.683  0.00  0.00    +0.053 C 
ENDROOT
BRANCH   8  12
ATOM     12  S   UNL     1      -5.050   0.119   5.541  0.00  0.00    +0.062 S 
ATOM     13  O   UNL     1      -4.983   0.624   4.215  0.00  0.00    -0.153 OA
ATOM     14  O   UNL     1      -5.870   0.710   6.540  0.00  0.00    -0.153 OA
BRANCH  12  15
ATOM     15  N   UNL     1      -3.503   0.131   6.131  0.00  0.00    -0.176 NA
ATOM     16  C   UNL     1      -3.254   0.174   7.578  0.00  0.00    +0.112 C 
ATOM     17  C   UNL     1      -2.326  -0.986   7.954  0.00  0.00    +0.002 C 
ATOM     18  C   UNL     1      -1.061  -0.921   7.096  0.00  0.00    +0.009 C 
ATOM     19  C   UNL     1      -1.436  -1.060   5.618  0.00  0.00    +0.002 C 
ATOM     20  C   UNL     1      -2.353   0.093   5.217  0.00  0.00    +0.112 C 
ATOM     21  C   UNL     1      -0.167  -1.028   4.764  0.00  0.00    +0.009 C 
ATOM     22  C   UNL     1      -1.948  -0.880   9.432  0.00  0.00    +0.009 C 
ENDBRANCH  12  15
ENDBRANCH   8  12
BRANCH   1  23
ATOM     23  C   UNL     1      -3.461  -2.491   0.930  0.00  0.00    +0.221 C 
BRANCH  23  25
ATOM     24  N   UNL     1      -1.098  -2.489   0.197  0.00  0.00    -0.315 N 
ATOM     25  C   UNL     1      -1.997  -2.767   1.162  0.00  0.00    +0.233 C 
ATOM     26  O   UNL     1      -1.629  -3.238   2.217  0.00  0.00    -0.274 OA
ATOM     27  H   UNL     1      -1.393  -2.112  -0.646  0.00  0.00    +0.149 HD
BRANCH  24  28
ATOM     28  C   UNL     1       0.325  -2.757   0.423  0.00  0.00    +0.089 C 
BRANCH  28  33
ATOM     29  N   UNL     1       2.576  -2.399  -0.500  0.00  0.00    +0.382 N 
ATOM     30  C   UNL     1       3.153  -3.316  -1.506  0.00  0.00    -0.078 C 
ATOM     31  C   UNL     1       2.195  -3.225  -2.720  0.00  0.00    -0.020 C 
ATOM     32  C   UNL     1       0.815  -3.099  -2.021  0.00  0.00    -0.016 C 
ATOM     33  C   UNL     1       1.135  -2.250  -0.772  0.00  0.00    -0.051 C 
ATOM     34  H   UNL     1       3.028  -1.499  -0.565  0.00  0.00    -0.081 HD
BRANCH  29  36
ATOM     35  C   UNL     1       4.266  -3.017   1.161  0.00  0.00    -0.017 C 
ATOM     36  C   UNL     1       2.771  -2.955   0.846  0.00  0.00    -0.082 C 
ENDBRANCH  29  36
ENDBRANCH  28  33
ENDBRANCH  24  28
ENDBRANCH  23  25
ENDBRANCH   1  23
TORSDOF 7
