REMARK  Name = ZINC20137226
REMARK  8 active torsions:
REMARK  status: ('A' for Active; 'I' for Inactive)
REMARK    1  A    between atoms: C_4  and  C_7
REMARK    2  A    between atoms: C_7  and  N_8
REMARK    3  A    between atoms: C_11  and  N_14
REMARK    4  A    between atoms: C_15  and  C_17
REMARK    5  A    between atoms: C_17  and  C_18
REMARK    6  A    between atoms: C_18  and  N_19
REMARK    7  A    between atoms: N_19  and  S_20
REMARK    8  A    between atoms: S_20  and  C_23
REMARK                            x       y       z     vdW  Elec       q    Type
REMARK                         _______ _______ _______ _____ _____    ______ ____
ROOT
ATOM      1  N   UNL     1      -4.872   0.798  -0.646  0.00  0.00    -0.313 N 
ATOM      2  C   UNL     1      -3.732   1.452  -0.346  0.00  0.00    +0.215 C 
ATOM      3  O   UNL     1      -3.764   2.632  -0.067  0.00  0.00    -0.276 OA
ATOM      4  H   UNL     1      -4.842  -0.272  -0.899  0.00  0.00    +0.149 HD
ENDROOT
BRANCH   1   8
ATOM      5  N   UNL     1      -8.992   1.508  -0.121  0.00  0.00    +0.382 N 
ATOM      6  C   UNL     1      -8.492   1.519  -1.502  0.00  0.00    -0.077 C 
ATOM      7  C   UNL     1      -7.141   0.803  -1.563  0.00  0.00    +0.003 C 
ATOM      8  C   UNL     1      -6.150   1.514  -0.636  0.00  0.00    +0.069 C 
ATOM      9  C   UNL     1      -6.716   1.530   0.787  0.00  0.00    +0.003 C 
ATOM     10  C   UNL     1      -8.080   2.225   0.780  0.00  0.00    -0.077 C 
ATOM     11  H   UNL     1      -9.035   0.460   0.211  0.00  0.00    -0.081 HD
BRANCH   5  12
ATOM     12  C   UNL     1     -10.350   2.063  -0.047  0.00  0.00    -0.043 C 
BRANCH  12  16
ATOM     13  C   UNL     1     -11.970   1.354   3.841  0.00  0.00    +0.000 A 
ATOM     14  C   UNL     1     -11.260   2.513   3.589  0.00  0.00    +0.000 A 
ATOM     15  C   UNL     1     -10.736   2.742   2.331  0.00  0.00    +0.002 A 
ATOM     16  C   UNL     1     -10.921   1.813   1.325  0.00  0.00    -0.064 A 
ATOM     17  C   UNL     1     -11.636   0.657   1.575  0.00  0.00    +0.002 A 
ATOM     18  C   UNL     1     -12.156   0.424   2.835  0.00  0.00    +0.000 A 
ENDBRANCH  12  16
ENDBRANCH   5  12
ENDBRANCH   1   8
BRANCH   2  19
ATOM     19  C   UNL     1      -2.417   0.716  -0.356  0.00  0.00    +0.112 C 
BRANCH  19  20
ATOM     20  C   UNL     1      -1.290   1.681   0.017  0.00  0.00    +0.115 C 
BRANCH  20  21
ATOM     21  N   UNL     1      -0.011   0.966   0.007  0.00  0.00    -0.189 NA
ATOM     22  H   UNL     1       0.012  -0.122   0.171  0.00  0.00    +0.148 HD
BRANCH  21  23
ATOM     23  S   UNL     1       1.412   1.813  -0.002  0.00  0.00    +0.065 S 
ATOM     24  O   UNL     1       2.457   0.851   0.010  0.00  0.00    -0.153 OA
ATOM     25  O   UNL     1       1.292   2.796  -1.021  0.00  0.00    -0.153 OA
BRANCH  23  26
ATOM     26  C   UNL     1       1.510   2.683   1.528  0.00  0.00    +0.143 A 
ATOM     27  C   UNL     1       2.050   2.282   2.704  0.00  0.00    +0.037 A 
ATOM     28  C   UNL     1       2.013   3.141   3.787  0.00  0.00    +0.025 A 
ATOM     29  C   UNL     1       1.438   4.360   3.638  0.00  0.00    +0.057 A 
ATOM     30  S   UNL     1       0.931   4.324   1.927  0.00  0.00    -0.062 S 
ATOM     31 BR   UNL     1       1.233   5.744   4.912  0.00  0.00    -0.043 Br
ENDBRANCH  23  26
ENDBRANCH  21  23
ENDBRANCH  20  21
ENDBRANCH  19  20
ENDBRANCH   2  19
TORSDOF 8
