REMARK  Name = ZINC64525614
REMARK  6 active torsions:
REMARK  status: ('A' for Active; 'I' for Inactive)
REMARK    1  A    between atoms: C_1  and  C_2
REMARK    2  A    between atoms: C_2  and  C_3
REMARK    3  A    between atoms: C_2  and  N_15
REMARK    4  A    between atoms: C_5  and  C_8
REMARK    5  A    between atoms: C_16  and  C_18
REMARK    6  A    between atoms: C_18  and  N_19
REMARK                            x       y       z     vdW  Elec       q    Type
REMARK                         _______ _______ _______ _____ _____    ______ ____
ROOT
ATOM      1  N   UNL     1       0.711  -0.489   1.189  0.00  0.00    -0.306 N 
ATOM      2  C   UNL     1       0.051  -0.633   2.355  0.00  0.00    +0.197 C 
ATOM      3  O   UNL     1      -1.129  -0.361   2.423  0.00  0.00    -0.278 OA
ATOM      4  H   UNL     1       1.654  -0.707   1.135  0.00  0.00    +0.149 HD
ENDROOT
BRANCH   1   6
ATOM      5  C   UNL     1      -0.019   1.526   0.010  0.00  0.00    +0.038 C 
ATOM      6  C   UNL     1       0.002  -0.004   0.002  0.00  0.00    +0.158 C 
BRANCH   6   7
ATOM      7  C   UNL     1       0.707  -0.490  -1.238  0.00  0.00    +0.248 A 
ATOM      8  N   UNL     1       0.133  -0.999  -2.290  0.00  0.00    -0.190 NA
ATOM      9  C   UNL     1       1.060  -1.326  -3.208  0.00  0.00    +0.202 A 
ATOM     10  N   UNL     1       2.243  -1.021  -2.735  0.00  0.00    -0.056 NA
ATOM     11  O   UNL     1       2.030  -0.466  -1.446  0.00  0.00    -0.336 OA
BRANCH   9  12
ATOM     12  C   UNL     1       0.788  -1.930  -4.536  0.00  0.00    +0.023 A 
ATOM     13  C   UNL     1      -0.522  -2.202  -4.925  0.00  0.00    +0.014 A 
ATOM     14  C   UNL     1      -0.770  -2.764  -6.160  0.00  0.00    +0.039 A 
ATOM     15  C   UNL     1       0.281  -3.058  -7.014  0.00  0.00    +0.123 A 
ATOM     16  C   UNL     1       1.585  -2.790  -6.631  0.00  0.00    +0.039 A 
ATOM     17  C   UNL     1       1.842  -2.223  -5.400  0.00  0.00    +0.014 A 
ATOM     18  F   UNL     1       0.033  -3.608  -8.222  0.00  0.00    -0.205 F 
ENDBRANCH   9  12
ENDBRANCH   6   7
ENDBRANCH   1   6
BRANCH   2  19
ATOM     19  C   UNL     1       0.780  -1.133   3.576  0.00  0.00    +0.019 C 
BRANCH  19  20
ATOM     20  N   UNL     1      -0.152  -1.201   4.710  0.00  0.00    +0.388 N 
ATOM     21  C   UNL     1       0.593  -1.541   5.929  0.00  0.00    -0.073 C 
ATOM     22  C   UNL     1      -0.308  -1.288   7.150  0.00  0.00    +0.024 C 
ATOM     23  C   UNL     1      -1.638  -1.907   6.863  0.00  0.00    -0.011 A 
ATOM     24  C   UNL     1      -2.082  -2.345   5.652  0.00  0.00    -0.054 A 
ATOM     25  C   UNL     1      -3.361  -2.895   5.620  0.00  0.00    +0.009 A 
ATOM     26  C   UNL     1      -4.094  -2.969   6.756  0.00  0.00    +0.045 A 
ATOM     27  S   UNL     1      -2.986  -2.248   7.958  0.00  0.00    -0.101 S 
ATOM     28  C   UNL     1      -1.181  -2.209   4.428  0.00  0.00    -0.042 C 
ATOM     29  H   UNL     1      -0.594  -0.302   4.831  0.00  0.00    -0.081 HD
ENDBRANCH  19  20
ENDBRANCH   2  19
TORSDOF 5
