REMARK  Name = ZINC63373538
REMARK  13 active torsions:
REMARK  status: ('A' for Active; 'I' for Inactive)
REMARK    1  A    between atoms: C_1  and  C_2
REMARK    2  A    between atoms: C_2  and  C_3
REMARK    3  A    between atoms: C_3  and  C_4
REMARK    4  A    between atoms: C_4  and  C_5
REMARK    5  A    between atoms: C_5  and  N_6
REMARK    6  A    between atoms: C_12  and  C_28
REMARK    7  A    between atoms: C_24  and  C_27
REMARK    8  A    between atoms: C_31  and  O_36
REMARK    9  A    between atoms: C_32  and  O_34
REMARK   10  A    between atoms: O_34  and  C_35
REMARK   11  A    between atoms: O_36  and  C_37
REMARK   12  A    between atoms: C_37  and  C_38
REMARK   13  A    between atoms: C_38  and  C_39
REMARK                            x       y       z     vdW  Elec       q    Type
REMARK                         _______ _______ _______ _____ _____    ______ ____
ROOT
ATOM      1  N   UNL     1      -2.828  -4.058   0.007  0.00  0.00    -0.291 N 
ATOM      2  C   UNL     1      -2.825  -4.738  -1.277  0.00  0.00    +0.203 C 
ATOM      3  C   UNL     1      -2.827  -6.223  -1.128  0.00  0.00    +0.234 C 
ATOM      4  O   UNL     1      -2.827  -6.889  -2.142  0.00  0.00    -0.274 OA
ATOM      5  N   UNL     1      -2.828  -6.874   0.041  0.00  0.00    -0.283 N 
ATOM      6  C   UNL     1      -2.870  -8.349   0.013  0.00  0.00    +0.121 C 
ATOM      7  C   UNL     1      -1.634  -8.906   0.742  0.00  0.00    +0.065 C 
ATOM      8  C   UNL     1      -1.511  -8.139   2.034  0.00  0.00    -0.027 C 
ATOM      9  C   UNL     1      -1.392  -8.544   3.292  0.00  0.00    -0.000 A 
ATOM     10  C   UNL     1      -1.219  -9.883   3.878  0.00  0.00    +0.010 A 
ATOM     11  C   UNL     1      -1.153  -9.939   5.235  0.00  0.00    +0.001 A 
ATOM     12  C   UNL     1      -1.240  -8.812   6.057  0.00  0.00    +0.002 A 
ATOM     13  C   UNL     1      -1.389  -7.542   5.604  0.00  0.00    +0.026 A 
ATOM     14  C   UNL     1      -1.462  -7.353   4.193  0.00  0.00    +0.043 A 
ATOM     15  N   UNL     1      -1.577  -6.261   3.495  0.00  0.00    -0.375 N 
ATOM     16  C   UNL     1      -1.530  -6.615   2.076  0.00  0.00    +0.139 C 
ATOM     17  C   UNL     1      -2.794  -6.179   1.328  0.00  0.00    +0.135 C 
ATOM     18  C   UNL     1      -2.808  -4.694   1.177  0.00  0.00    +0.242 C 
ATOM     19  O   UNL     1      -2.806  -4.022   2.187  0.00  0.00    -0.273 OA
ATOM     20  C   UNL     1      -4.019  -6.593   2.146  0.00  0.00    +0.044 C 
ATOM     21  H   UNL     1      -1.679  -5.366   3.854  0.00  0.00    +0.160 HD
ENDROOT
BRANCH   7  22
ATOM     22  C   UNL     1      -1.822 -10.374   1.028  0.00  0.00    -0.035 A 
ATOM     23  C   UNL     1      -2.884 -10.795   1.807  0.00  0.00    +0.008 A 
ATOM     24  C   UNL     1      -3.061 -12.140   2.072  0.00  0.00    +0.050 A 
ATOM     25  C   UNL     1      -2.173 -13.070   1.556  0.00  0.00    +0.162 A 
ATOM     26  C   UNL     1      -1.104 -12.647   0.771  0.00  0.00    +0.162 A 
ATOM     27  C   UNL     1      -0.936 -11.297   0.505  0.00  0.00    +0.053 A 
BRANCH  26  28
ATOM     28  O   UNL     1      -0.230 -13.556   0.263  0.00  0.00    -0.491 OA
ATOM     29  C   UNL     1       0.843 -13.049  -0.534  0.00  0.00    +0.277 C 
ENDBRANCH  26  28
BRANCH  25  30
ATOM     30  O   UNL     1      -2.345 -14.394   1.816  0.00  0.00    -0.488 OA
BRANCH  30  31
ATOM     31  C   UNL     1      -3.463 -14.755   2.629  0.00  0.00    +0.229 C 
BRANCH  31  32
ATOM     32  C   UNL     1      -3.492 -16.274   2.811  0.00  0.00    +0.038 C 
ATOM     33  C   UNL     1      -4.690 -16.661   3.681  0.00  0.00    +0.007 C 
ENDBRANCH  31  32
ENDBRANCH  30  31
ENDBRANCH  25  30
ENDBRANCH   7  22
BRANCH   1  34
ATOM     34  C   UNL     1      -2.848  -2.593   0.015  0.00  0.00    +0.108 C 
BRANCH  34  35
ATOM     35  C   UNL     1      -1.413  -2.063   0.004  0.00  0.00    +0.019 C 
BRANCH  35  36
ATOM     36  C   UNL     1      -1.433  -0.534   0.013  0.00  0.00    +0.001 C 
BRANCH  36  38
ATOM     37  C   UNL     1      -0.019   1.526   0.010  0.00  0.00    +0.004 C 
ATOM     38  C   UNL     1       0.002  -0.004   0.002  0.00  0.00    -0.003 C 
ENDBRANCH  36  38
ENDBRANCH  35  36
ENDBRANCH  34  35
ENDBRANCH   1  34
TORSDOF 9
