REMARK  Name = ZINC47540306
REMARK  11 active torsions:
REMARK  status: ('A' for Active; 'I' for Inactive)
REMARK    1  A    between atoms: C_1  and  C_2
REMARK    2  A    between atoms: C_2  and  C_4
REMARK    3  A    between atoms: C_2  and  N_14
REMARK    4  A    between atoms: C_15  and  C_17
REMARK    5  A    between atoms: C_17  and  N_18
REMARK    6  A    between atoms: C_21  and  N_24
REMARK    7  A    between atoms: C_25  and  O_27
REMARK    8  A    between atoms: O_27  and  C_28
REMARK    9  A    between atoms: C_28  and  C_29
REMARK   10  A    between atoms: C_28  and  C_30
REMARK   11  A    between atoms: C_28  and  C_31
REMARK                            x       y       z     vdW  Elec       q    Type
REMARK                         _______ _______ _______ _____ _____    ______ ____
ROOT
ATOM      1  C   UNL     1       0.780  -1.133   3.576  0.00  0.00    +0.019 C 
ENDROOT
BRANCH   1   2
ATOM      2  N   UNL     1      -0.152  -1.201   4.710  0.00  0.00    +0.385 N 
ATOM      3  C   UNL     1      -0.610   0.152   5.046  0.00  0.00    -0.076 C 
ATOM      4  C   UNL     1      -1.643   0.079   6.173  0.00  0.00    +0.004 C 
ATOM      5  C   UNL     1      -1.002  -0.566   7.405  0.00  0.00    +0.073 C 
ATOM      6  C   UNL     1      -0.462  -1.947   7.023  0.00  0.00    +0.004 C 
ATOM      7  C   UNL     1       0.527  -1.799   5.865  0.00  0.00    -0.076 C 
ATOM      8  H   UNL     1      -0.947  -1.769   4.456  0.00  0.00    -0.081 HD
BRANCH   5   9
ATOM      9  N   UNL     1      -2.007  -0.708   8.462  0.00  0.00    -0.278 N 
ATOM     10  C   UNL     1      -1.624  -0.764   9.753  0.00  0.00    +0.401 C 
ATOM     11  O   UNL     1      -0.445  -0.696  10.040  0.00  0.00    -0.226 OA
ATOM     12  H   UNL     1      -2.948  -0.763   8.233  0.00  0.00    +0.152 HD
BRANCH  10  13
ATOM     13  O   UNL     1      -2.547  -0.894  10.724  0.00  0.00    -0.445 OA
BRANCH  13  14
ATOM     14  C   UNL     1      -2.070  -0.946  12.070  0.00  0.00    +0.107 C 
ATOM     15  C   UNL     1      -1.313   0.344  12.393  0.00  0.00    +0.055 C 
ATOM     16  C   UNL     1      -3.255  -1.095  13.026  0.00  0.00    +0.055 C 
ATOM     17  C   UNL     1      -1.130  -2.143  12.232  0.00  0.00    +0.055 C 
ENDBRANCH  13  14
ENDBRANCH  10  13
ENDBRANCH   5   9
ENDBRANCH   1   2
BRANCH   1  19
ATOM     18  N   UNL     1       0.711  -0.489   1.189  0.00  0.00    -0.310 N 
ATOM     19  C   UNL     1       0.051  -0.633   2.355  0.00  0.00    +0.197 C 
ATOM     20  O   UNL     1      -1.129  -0.361   2.423  0.00  0.00    -0.278 OA
ATOM     21  H   UNL     1       1.654  -0.707   1.135  0.00  0.00    +0.149 HD
BRANCH  18  23
ATOM     22  C   UNL     1      -0.019   1.526   0.010  0.00  0.00    +0.033 C 
ATOM     23  C   UNL     1       0.002  -0.004   0.002  0.00  0.00    +0.100 C 
BRANCH  23  24
ATOM     24  C   UNL     1       0.707  -0.490  -1.238  0.00  0.00    -0.027 A 
ATOM     25  C   UNL     1       2.089  -0.512  -1.286  0.00  0.00    +0.006 A 
ATOM     26  C   UNL     1       2.727  -0.955  -2.426  0.00  0.00    +0.004 A 
ATOM     27  C   UNL     1       1.994  -1.382  -3.526  0.00  0.00    -0.044 A 
ATOM     28  C   UNL     1       0.618  -1.365  -3.475  0.00  0.00    -0.044 A 
ATOM     29  C   UNL     1      -0.023  -0.920  -2.326  0.00  0.00    +0.009 A 
ATOM     30  C   UNL     1      -0.241  -1.828  -4.623  0.00  0.00    +0.035 C 
ATOM     31  C   UNL     1       0.570  -1.873  -5.917  0.00  0.00    +0.005 C 
ATOM     32  C   UNL     1       1.853  -2.670  -5.656  0.00  0.00    +0.005 C 
ATOM     33  C   UNL     1       2.755  -1.846  -4.740  0.00  0.00    +0.035 C 
ENDBRANCH  23  24
ENDBRANCH  18  23
ENDBRANCH   1  19
TORSDOF 7
