REMARK  Name = ZINC12822023
REMARK  9 active torsions:
REMARK  status: ('A' for Active; 'I' for Inactive)
REMARK    1  A    between atoms: C_1  and  C_2
REMARK    2  A    between atoms: C_2  and  C_4
REMARK    3  A    between atoms: C_2  and  N_53
REMARK    4  A    between atoms: N_6  and  C_7
REMARK    5  A    between atoms: C_12  and  O_13
REMARK    6  A    between atoms: O_13  and  C_14
REMARK    7  A    between atoms: C_17  and  N_20
REMARK    8  A    between atoms: N_20  and  S_21
REMARK    9  A    between atoms: S_21  and  C_24
REMARK                            x       y       z     vdW  Elec       q    Type
REMARK                         _______ _______ _______ _____ _____    ______ ____
ROOT
ATOM      1  C   UNL     1       2.405  -0.155  -1.157  0.00  0.00    -0.076 C 
ATOM      2  C   UNL     1       3.481  -1.227  -0.973  0.00  0.00    +0.002 C 
ATOM      3  C   UNL     1       4.844  -0.552  -0.799  0.00  0.00    +0.073 C 
ATOM      4  C   UNL     1       4.784   0.398   0.400  0.00  0.00    +0.002 C 
ATOM      5  C   UNL     1       3.670   1.424   0.177  0.00  0.00    -0.076 C 
ATOM      6  N   UNL     1       2.382   0.712   0.041  0.00  0.00    +0.387 N 
ATOM      7  H   UNL     1       2.236   0.127   0.872  0.00  0.00    -0.081 HD
ENDROOT
BRANCH   6   9
ATOM      8  C   UNL     1      -0.034   0.928  -0.290  0.00  0.00    -0.004 C 
ATOM      9  C   UNL     1       1.275   1.685  -0.061  0.00  0.00    +0.016 C 
BRANCH   9  10
ATOM     10  C   UNL     1       1.188   2.460   1.229  0.00  0.00    +0.203 C 
ATOM     11  O   UNL     1       1.579   1.962   2.263  0.00  0.00    -0.277 OA
ATOM     12  N   UNL     1       0.671   3.705   1.233  0.00  0.00    -0.284 N 
ATOM     13  H   UNL     1       0.296   4.077   0.420  0.00  0.00    +0.155 HD
BRANCH  12  14
ATOM     14  C   UNL     1       0.677   4.461   2.413  0.00  0.00    +0.076 A 
ATOM     15  C   UNL     1       0.658   3.826   3.646  0.00  0.00    +0.027 A 
ATOM     16  C   UNL     1       0.668   4.574   4.808  0.00  0.00    +0.002 A 
ATOM     17  C   UNL     1       0.687   5.955   4.745  0.00  0.00    +0.004 A 
ATOM     18  C   UNL     1       0.700   6.595   3.520  0.00  0.00    +0.047 A 
ATOM     19  C   UNL     1       0.695   5.852   2.350  0.00  0.00    +0.141 A 
BRANCH  19  20
ATOM     20  O   UNL     1       0.706   6.480   1.144  0.00  0.00    -0.493 OA
ATOM     21  C   UNL     1       0.725   7.909   1.157  0.00  0.00    +0.277 C 
ENDBRANCH  19  20
ENDBRANCH  12  14
ENDBRANCH   9  10
ENDBRANCH   6   9
BRANCH   3  22
ATOM     22  N   UNL     1       5.869  -1.571  -0.565  0.00  0.00    -0.187 NA
ATOM     23  H   UNL     1       6.022  -1.909   0.331  0.00  0.00    +0.148 HD
BRANCH  22  24
ATOM     24  S   UNL     1       6.768  -2.147  -1.831  0.00  0.00    +0.065 S 
ATOM     25  O   UNL     1       7.681  -3.090  -1.286  0.00  0.00    -0.153 OA
ATOM     26  O   UNL     1       5.849  -2.485  -2.861  0.00  0.00    -0.153 OA
BRANCH  24  27
ATOM     27  C   UNL     1       7.734  -0.804  -2.438  0.00  0.00    +0.142 A 
ATOM     28  C   UNL     1       8.976  -0.410  -2.066  0.00  0.00    +0.036 A 
ATOM     29  C   UNL     1       9.546   0.686  -2.687  0.00  0.00    +0.010 A 
ATOM     30  C   UNL     1       8.845   1.333  -3.651  0.00  0.00    +0.047 A 
ATOM     31  S   UNL     1       7.333   0.385  -3.708  0.00  0.00    -0.077 S 
ENDBRANCH  24  27
ENDBRANCH  22  24
ENDBRANCH   3  22
TORSDOF 7
