REMARK  Name = ZINC33033083
REMARK  5 active torsions:
REMARK  status: ('A' for Active; 'I' for Inactive)
REMARK    1  A    between atoms: C_6  and  S_7
REMARK    2  A    between atoms: S_7  and  N_10
REMARK    3  A    between atoms: N_10  and  C_11
REMARK    4  A    between atoms: C_13  and  C_23
REMARK    5  A    between atoms: C_16  and  N_17
REMARK                            x       y       z     vdW  Elec       q    Type
REMARK                         _______ _______ _______ _____ _____    ______ ____
ROOT
ATOM      1  C   UNL     1      -3.635   1.587   0.284  0.00  0.00    +0.070 A 
ATOM      2  C   UNL     1      -2.333   1.129   0.350  0.00  0.00    +0.039 A 
ATOM      3  C   UNL     1      -1.272   2.037   0.281  0.00  0.00    +0.039 A 
ATOM      4  C   UNL     1      -1.532   3.404   0.150  0.00  0.00    +0.015 A 
ATOM      5  C   UNL     1      -2.831   3.855   0.080  0.00  0.00    +0.026 A 
ATOM      6  C   UNL     1      -3.888   2.955   0.148  0.00  0.00    +0.052 A 
ENDROOT
BRANCH   6   7
ATOM      7  N   UNL     1      -5.201   3.416   0.081  0.00  0.00    -0.332 N 
ATOM      8  C   UNL     1      -5.250   4.881   0.188  0.00  0.00    +0.086 C 
ATOM      9  C   UNL     1      -6.710   5.341   0.190  0.00  0.00    -0.063 C 
ATOM     10  N   UNL     1      -7.367   4.883  -1.042  0.00  0.00    +0.381 N 
ATOM     11  C   UNL     1      -7.317   3.419  -1.149  0.00  0.00    -0.063 C 
ATOM     12  C   UNL     1      -5.857   2.959  -1.152  0.00  0.00    +0.086 C 
ATOM     13  H   UNL     1      -8.419   5.203  -1.037  0.00  0.00    -0.086 HD
ATOM     14  H   UNL     1      -6.856   5.319  -1.913  0.00  0.00    -0.086 HD
ENDBRANCH   6   7
BRANCH   3  15
ATOM     15  C   UNL     1       0.120   1.553   0.352  0.00  0.00    +0.247 C 
ATOM     16  O   UNL     1       0.351   0.359   0.336  0.00  0.00    -0.270 OA
ATOM     17  N   UNL     1       1.137   2.435   0.429  0.00  0.00    -0.298 N 
ATOM     18  C   UNL     1       1.013   3.896   0.328  0.00  0.00    +0.108 C 
ATOM     19  C   UNL     1       2.434   4.486   0.448  0.00  0.00    +0.020 C 
ATOM     20  C   UNL     1       3.338   3.295   0.034  0.00  0.00    +0.020 C 
ATOM     21  C   UNL     1       2.558   2.093   0.622  0.00  0.00    +0.108 C 
ENDBRANCH   3  15
BRANCH   1  22
ATOM     22  N   UNL     1      -4.700   0.681   0.353  0.00  0.00    -0.214 N 
ATOM     23  H   UNL     1      -5.172   0.315  -0.572  0.00  0.00    +0.174 HD
BRANCH  22  24
ATOM     24  S   UNL     1      -5.251   0.160   1.825  0.00  0.00    +0.072 S 
ATOM     25  O   UNL     1      -6.322  -0.737   1.564  0.00  0.00    -0.150 OA
ATOM     26  O   UNL     1      -4.106  -0.219   2.576  0.00  0.00    -0.150 OA
BRANCH  24  32
ATOM     27  C   UNL     1      -5.160   2.348   3.455  0.00  0.00    +0.030 A 
ATOM     28  C   UNL     1      -5.707   3.446   4.092  0.00  0.00    +0.022 A 
ATOM     29  C   UNL     1      -7.047   3.745   3.927  0.00  0.00    +0.041 A 
ATOM     30  C   UNL     1      -7.839   2.948   3.119  0.00  0.00    +0.022 A 
ATOM     31  C   UNL     1      -7.290   1.853   2.478  0.00  0.00    +0.030 A 
ATOM     32  C   UNL     1      -5.950   1.555   2.643  0.00  0.00    +0.109 A 
ATOM     33 CL   UNL     1      -7.736   5.120   4.733  0.00  0.00    -0.084 Cl
ENDBRANCH  24  32
ENDBRANCH  22  24
ENDBRANCH   1  22
TORSDOF 5
