REMARK  Name = ZINC25155672
REMARK  6 active torsions:
REMARK  status: ('A' for Active; 'I' for Inactive)
REMARK    1  A    between atoms: C_1  and  C_2
REMARK    2  A    between atoms: C_2  and  C_4
REMARK    3  A    between atoms: C_2  and  S_19
REMARK    4  A    between atoms: C_4  and  N_6
REMARK    5  A    between atoms: C_10  and  C_13
REMARK    6  A    between atoms: S_19  and  C_20
REMARK                            x       y       z     vdW  Elec       q    Type
REMARK                         _______ _______ _______ _____ _____    ______ ____
ROOT
ATOM      1  N   UNL     1      -2.585  -0.415   0.611  0.00  0.00    -0.145 NA
ATOM      2  C   UNL     1      -3.862  -0.735   0.398  0.00  0.00    +0.216 A 
ATOM      3  N   UNL     1      -4.426  -1.042  -0.801  0.00  0.00    -0.310 N 
ATOM      4  H   UNL     1      -3.968  -1.067  -1.655  0.00  0.00    +0.170 HD
ATOM      5  C   UNL     1      -5.761  -1.311  -0.590  0.00  0.00    +0.161 A 
ATOM      6  N   UNL     1      -6.019  -1.178   0.681  0.00  0.00    -0.153 NA
ATOM      7  N   UNL     1      -4.832  -0.818   1.334  0.00  0.00    -0.246 N 
ATOM      8  H   UNL     1      -4.727  -0.656   2.285  0.00  0.00    +0.192 HD
ENDROOT
BRANCH   5   9
ATOM      9  C   UNL     1      -6.740  -1.689  -1.634  0.00  0.00    +0.019 A 
ATOM     10  C   UNL     1      -6.336  -1.804  -2.964  0.00  0.00    +0.011 A 
ATOM     11  C   UNL     1      -7.253  -2.156  -3.933  0.00  0.00    +0.001 A 
ATOM     12  C   UNL     1      -8.571  -2.396  -3.587  0.00  0.00    +0.000 A 
ATOM     13  C   UNL     1      -8.978  -2.283  -2.269  0.00  0.00    +0.001 A 
ATOM     14  C   UNL     1      -8.069  -1.937  -1.291  0.00  0.00    +0.011 A 
ENDBRANCH   5   9
BRANCH   1  15
ATOM     15  C   UNL     1      -1.734  -0.371  -0.407  0.00  0.00    +0.252 C 
ATOM     16  O   UNL     1      -2.118  -0.622  -1.533  0.00  0.00    -0.272 OA
BRANCH  15  18
ATOM     17  C   UNL     1      -0.159   1.509  -0.040  0.00  0.00    +0.029 C 
ATOM     18  C   UNL     1      -0.290  -0.010  -0.166  0.00  0.00    +0.136 C 
BRANCH  18  19
ATOM     19  S   UNL     1       0.718  -0.591  -1.558  0.00  0.00    -0.113 S 
BRANCH  19  20
ATOM     20  C   UNL     1       0.672  -2.346  -1.415  0.00  0.00    +0.009 A 
ATOM     21  C   UNL     1       0.059  -2.940  -0.318  0.00  0.00    +0.015 A 
ATOM     22  C   UNL     1       0.025  -4.316  -0.209  0.00  0.00    +0.001 A 
ATOM     23  C   UNL     1       0.601  -5.103  -1.190  0.00  0.00    +0.000 A 
ATOM     24  C   UNL     1       1.213  -4.516  -2.282  0.00  0.00    +0.001 A 
ATOM     25  C   UNL     1       1.245  -3.141  -2.401  0.00  0.00    +0.015 A 
ENDBRANCH  19  20
ENDBRANCH  18  19
ENDBRANCH  15  18
ENDBRANCH   1  15
TORSDOF 5
