REMARK  Name = ZINC20720289
REMARK  6 active torsions:
REMARK  status: ('A' for Active; 'I' for Inactive)
REMARK    1  A    between atoms: C_1  and  C_2
REMARK    2  A    between atoms: C_6  and  C_38
REMARK    3  A    between atoms: C_7  and  N_8
REMARK    4  A    between atoms: N_8  and  S_9
REMARK    5  A    between atoms: S_9  and  C_12
REMARK    6  A    between atoms: C_25  and  C_28
REMARK                            x       y       z     vdW  Elec       q    Type
REMARK                         _______ _______ _______ _____ _____    ______ ____
ROOT
ATOM      1  C   UNL     1      -4.228   2.377  -1.715  0.00  0.00    +0.109 A 
ATOM      2  C   UNL     1      -4.588   2.207  -0.390  0.00  0.00    +0.030 A 
ATOM      3  C   UNL     1      -3.608   2.131   0.580  0.00  0.00    +0.025 A 
ATOM      4  C   UNL     1      -2.269   2.225   0.225  0.00  0.00    +0.031 A 
ATOM      5  C   UNL     1      -1.904   2.396  -1.102  0.00  0.00    -0.018 A 
ATOM      6  C   UNL     1      -2.897   2.471  -2.068  0.00  0.00    +0.034 A 
ATOM      7  C   UNL     1      -0.475   2.503  -1.531  0.00  0.00    +0.049 C 
ATOM      8  C   UNL     1      -0.109   3.926  -1.878  0.00  0.00    -0.023 C 
ATOM      9  C   UNL     1       1.122   4.182  -1.509  0.00  0.00    -0.030 C 
ATOM     10  C   UNL     1       1.749   2.958  -0.869  0.00  0.00    +0.033 C 
ATOM     11  C   UNL     1       0.519   2.116  -0.419  0.00  0.00    +0.029 C 
ATOM     12  C   UNL     1       0.058   2.669   0.933  0.00  0.00    +0.107 C 
ATOM     13  N   UNL     1      -1.288   2.150   1.219  0.00  0.00    -0.336 N 
ATOM     14  H   UNL     1      -1.511   1.712   2.203  0.00  0.00    +0.147 HD
ENDROOT
BRANCH  12  15
ATOM     15  C   UNL     1       0.002   4.174   0.870  0.00  0.00    -0.002 A 
ATOM     16  C   UNL     1      -1.064   4.920   0.537  0.00  0.00    +0.089 A 
ATOM     17  N   UNL     1      -0.739   6.248   0.591  0.00  0.00    -0.360 N 
ATOM     18  H   UNL     1      -1.494   7.009   0.348  0.00  0.00    +0.165 HD
ATOM     19  C   UNL     1       0.578   6.393   0.968  0.00  0.00    +0.047 A 
ATOM     20  C   UNL     1       1.098   5.100   1.165  0.00  0.00    +0.005 A 
ATOM     21  C   UNL     1       2.426   4.937   1.563  0.00  0.00    +0.010 A 
ATOM     22  C   UNL     1       3.214   6.035   1.762  0.00  0.00    +0.001 A 
ATOM     23  C   UNL     1       2.705   7.312   1.573  0.00  0.00    +0.002 A 
ATOM     24  C   UNL     1       1.399   7.496   1.173  0.00  0.00    +0.026 A 
ENDBRANCH  12  15
BRANCH   1  25
ATOM     25  S   UNL     1      -5.474   2.475  -2.957  0.00  0.00    +0.072 S 
ATOM     26  O   UNL     1      -4.834   2.205  -4.196  0.00  0.00    -0.150 OA
ATOM     27  O   UNL     1      -6.577   1.712  -2.486  0.00  0.00    -0.150 OA
BRANCH  25  28
ATOM     28  N   UNL     1      -5.981   4.050  -3.019  0.00  0.00    -0.216 N 
ATOM     29  H   UNL     1      -7.006   4.310  -2.716  0.00  0.00    +0.174 HD
BRANCH  28  36
ATOM     30  C   UNL     1      -4.819   5.765  -1.068  0.00  0.00    +0.046 C 
ATOM     31  C   UNL     1      -4.517   5.908  -2.538  0.00  0.00    -0.028 A 
ATOM     32  C   UNL     1      -3.650   6.891  -2.973  0.00  0.00    +0.005 A 
ATOM     33  C   UNL     1      -3.377   7.026  -4.322  0.00  0.00    +0.001 A 
ATOM     34  C   UNL     1      -3.966   6.175  -5.239  0.00  0.00    +0.005 A 
ATOM     35  C   UNL     1      -4.830   5.187  -4.810  0.00  0.00    -0.028 A 
ATOM     36  C   UNL     1      -5.107   5.048  -3.456  0.00  0.00    +0.054 A 
ATOM     37  C   UNL     1      -5.473   4.261  -5.810  0.00  0.00    +0.046 C 
ENDBRANCH  28  36
ENDBRANCH  25  28
ENDBRANCH   1  25
TORSDOF 4
