REMARK  Name = ZINC39850295
REMARK  9 active torsions:
REMARK  status: ('A' for Active; 'I' for Inactive)
REMARK    1  A    between atoms: C_1  and  C_2
REMARK    2  A    between atoms: C_2  and  C_3
REMARK    3  A    between atoms: C_2  and  O_4
REMARK    4  A    between atoms: O_4  and  C_5
REMARK    5  A    between atoms: C_8  and  C_11
REMARK    6  A    between atoms: C_13  and  C_25
REMARK    7  A    between atoms: C_15  and  C_20
REMARK    8  A    between atoms: C_15  and  O_24
REMARK    9  A    between atoms: C_25  and  C_27
REMARK                            x       y       z     vdW  Elec       q    Type
REMARK                         _______ _______ _______ _____ _____    ______ ____
ROOT
ATOM      1  C   UNL     1      -1.915  -5.682  -2.189  0.00  0.00    +0.120 C 
ATOM      2  C   UNL     1      -2.310  -5.546  -3.664  0.00  0.00    +0.144 C 
ATOM      3  C   UNL     1      -2.889  -6.883  -4.139  0.00  0.00    +0.243 C 
ATOM      4  N   UNL     1      -3.999  -7.264  -3.264  0.00  0.00    -0.264 N 
ATOM      5  C   UNL     1      -4.037  -6.883  -1.978  0.00  0.00    +0.302 C 
ATOM      6  O   UNL     1      -4.976  -7.235  -1.292  0.00  0.00    -0.253 OA
ATOM      7  N   UNL     1      -3.077  -6.129  -1.419  0.00  0.00    -0.292 N 
ATOM      8  H   UNL     1      -4.722  -7.803  -3.621  0.00  0.00    +0.153 HD
ATOM      9  H   UNL     1      -3.155  -5.875  -0.486  0.00  0.00    +0.151 HD
ENDROOT
BRANCH   1  13
ATOM     10  C   UNL     1      -0.591  -1.898  -0.711  0.00  0.00    +0.121 A 
ATOM     11  C   UNL     1       0.331  -2.822  -1.180  0.00  0.00    +0.046 A 
ATOM     12  C   UNL     1      -0.100  -4.045  -1.657  0.00  0.00    +0.009 A 
ATOM     13  C   UNL     1      -1.448  -4.348  -1.668  0.00  0.00    -0.026 A 
ATOM     14  C   UNL     1      -2.370  -3.428  -1.202  0.00  0.00    +0.009 A 
ATOM     15  C   UNL     1      -1.944  -2.206  -0.718  0.00  0.00    +0.046 A 
BRANCH  10  16
ATOM     16  O   UNL     1      -0.170  -0.694  -0.241  0.00  0.00    -0.489 OA
BRANCH  16  18
ATOM     17  C   UNL     1      -0.491   1.101   1.345  0.00  0.00    +0.051 C 
ATOM     18  C   UNL     1      -1.159   0.156   0.344  0.00  0.00    +0.167 C 
ATOM     19  C   UNL     1      -1.841   0.975  -0.754  0.00  0.00    +0.051 C 
ENDBRANCH  16  18
ENDBRANCH  10  16
ENDBRANCH   1  13
BRANCH   3  20
ATOM     20  C   UNL     1      -3.397  -6.739  -5.575  0.00  0.00    +0.436 C 
ATOM     21  F   UNL     1      -2.371  -6.239  -6.385  0.00  0.00    -0.166 F 
ATOM     22  F   UNL     1      -3.802  -7.989  -6.054  0.00  0.00    -0.166 F 
ATOM     23  F   UNL     1      -4.482  -5.856  -5.600  0.00  0.00    -0.166 F 
ENDBRANCH   3  20
BRANCH   3  24
ATOM     24  O   UNL     1      -1.875  -7.888  -4.089  0.00  0.00    -0.364 OA
ATOM     25  H   UNL     1      -2.172  -8.762  -4.377  0.00  0.00    +0.212 HD
ENDBRANCH   3  24
BRANCH   2  26
ATOM     26  C   UNL     1      -3.345  -4.461  -3.812  0.00  0.00    +0.173 C 
ATOM     27  O   UNL     1      -4.436  -4.588  -3.298  0.00  0.00    -0.292 OA
BRANCH  26  28
ATOM     28  C   UNL     1      -3.032  -3.247  -4.581  0.00  0.00    +0.018 A 
ATOM     29  C   UNL     1      -1.822  -3.147  -5.277  0.00  0.00    +0.013 A 
ATOM     30  C   UNL     1      -1.536  -2.007  -5.995  0.00  0.00    +0.020 A 
ATOM     31  C   UNL     1      -2.443  -0.960  -6.030  0.00  0.00    +0.041 A 
ATOM     32  C   UNL     1      -3.643  -1.051  -5.344  0.00  0.00    +0.020 A 
ATOM     33  C   UNL     1      -3.945  -2.188  -4.626  0.00  0.00    +0.013 A 
ATOM     34 CL   UNL     1      -2.073   0.474  -6.937  0.00  0.00    -0.084 Cl
ENDBRANCH  26  28
ENDBRANCH   2  26
TORSDOF 7
