REMARK  Name = ZINC07495783
REMARK  6 active torsions:
REMARK  status: ('A' for Active; 'I' for Inactive)
REMARK    1  A    between atoms: C_1  and  C_2
REMARK    2  A    between atoms: C_11  and  C_13
REMARK    3  A    between atoms: N_19  and  C_20
REMARK    4  A    between atoms: C_23  and  C_26
REMARK    5  A    between atoms: C_26  and  C_27
REMARK    6  A    between atoms: C_26  and  C_28
REMARK                            x       y       z     vdW  Elec       q    Type
REMARK                         _______ _______ _______ _____ _____    ______ ____
ROOT
ATOM      1  C   UNL     1       5.782  -3.459  -2.644  0.00  0.00    +0.066 C 
ATOM      2  C   UNL     1       4.532  -3.021  -1.925  0.00  0.00    +0.047 A 
ATOM      3  C   UNL     1       4.564  -2.805  -0.578  0.00  0.00    +0.093 A 
ATOM      4  C   UNL     1       3.387  -2.388   0.074  0.00  0.00    +0.257 A 
ATOM      5  O   UNL     1       3.376  -2.194   1.279  0.00  0.00    -0.267 OA
ATOM      6  N   UNL     1       2.276  -2.208  -0.662  0.00  0.00    -0.255 N 
ATOM      7  C   UNL     1       2.301  -2.458  -2.005  0.00  0.00    +0.207 A 
ATOM      8  N   UNL     1       3.401  -2.844  -2.607  0.00  0.00    -0.221 NA
ATOM      9  N   UNL     1       1.116  -2.289  -2.697  0.00  0.00    -0.259 N 
ATOM     10  C   UNL     1      -0.045  -2.639  -2.015  0.00  0.00    +0.166 C 
ATOM     11  C   UNL     1       1.024  -1.741  -0.060  0.00  0.00    +0.220 C 
ATOM     12  N   UNL     1      -1.102  -3.224  -2.674  0.00  0.00    -0.289 N 
ATOM     13  H   UNL     1       1.096  -1.947  -3.604  0.00  0.00    +0.158 HD
ATOM     14  H   UNL     1      -1.077  -3.323  -3.639  0.00  0.00    +0.155 HD
ATOM     15  N   UNL     1      -0.163  -2.416  -0.697  0.00  0.00    -0.336 N 
ATOM     16  H   UNL     1      -0.997  -2.685  -0.163  0.00  0.00    +0.164 HD
ENDROOT
BRANCH  11  17
ATOM     17  C   UNL     1       0.911  -0.247  -0.228  0.00  0.00    -0.005 A 
ATOM     18  C   UNL     1      -0.334   0.343  -0.343  0.00  0.00    +0.007 A 
ATOM     19  C   UNL     1      -0.437   1.713  -0.496  0.00  0.00    +0.000 A 
ATOM     20  C   UNL     1       0.704   2.493  -0.534  0.00  0.00    +0.000 A 
ATOM     21  C   UNL     1       1.948   1.902  -0.420  0.00  0.00    +0.000 A 
ATOM     22  C   UNL     1       2.052   0.532  -0.266  0.00  0.00    +0.007 A 
ENDBRANCH  11  17
BRANCH  12  23
ATOM     23  C   UNL     1      -2.213  -3.674  -1.953  0.00  0.00    +0.033 A 
ATOM     24  C   UNL     1      -2.052  -4.177  -0.669  0.00  0.00    +0.023 A 
ATOM     25  C   UNL     1      -3.151  -4.616   0.042  0.00  0.00    +0.006 A 
ATOM     26  C   UNL     1      -4.410  -4.565  -0.527  0.00  0.00    -0.045 A 
ATOM     27  C   UNL     1      -4.574  -4.071  -1.808  0.00  0.00    +0.006 A 
ATOM     28  C   UNL     1      -3.479  -3.625  -2.523  0.00  0.00    +0.023 A 
BRANCH  26  29
ATOM     29  C   UNL     1      -5.607  -5.051   0.249  0.00  0.00    +0.013 C 
ATOM     30  C   UNL     1      -5.420  -6.527   0.605  0.00  0.00    +0.012 C 
ATOM     31  C   UNL     1      -5.748  -4.231   1.533  0.00  0.00    +0.012 C 
ENDBRANCH  26  29
ENDBRANCH  12  23
TORSDOF 3
