REMARK  Name = ZINC28632376
REMARK  8 active torsions:
REMARK  status: ('A' for Active; 'I' for Inactive)
REMARK    1  A    between atoms: C_1  and  C_2
REMARK    2  A    between atoms: C_2  and  O_3
REMARK    3  A    between atoms: O_3  and  C_4
REMARK    4  A    between atoms: C_6  and  C_12
REMARK    5  A    between atoms: C_9  and  O_10
REMARK    6  A    between atoms: N_13  and  N_14
REMARK    7  A    between atoms: C_15  and  C_17
REMARK    8  A    between atoms: C_19  and  C_25
REMARK                            x       y       z     vdW  Elec       q    Type
REMARK                         _______ _______ _______ _____ _____    ______ ____
ROOT
ATOM      1  N   UNL     1       1.883   3.784   1.963  0.00  0.00    -0.206 N 
ATOM      2  C   UNL     1       2.726   3.215   1.079  0.00  0.00    +0.245 C 
ATOM      3  O   UNL     1       3.561   2.421   1.462  0.00  0.00    -0.273 OA
ATOM      4  H   UNL     1       1.126   4.503   1.616  0.00  0.00    +0.177 HD
ENDROOT
BRANCH   2   5
ATOM      5  C   UNL     1       2.632   3.563  -0.384  0.00  0.00    +0.171 C 
ATOM      6  C   UNL     1       3.595   4.723  -0.727  0.00  0.00    +0.057 C 
ATOM      7  C   UNL     1       4.852   3.959  -1.202  0.00  0.00    +0.113 C 
ATOM      8  N   UNL     1       4.362   2.662  -1.683  0.00  0.00    -0.314 N 
ATOM      9  C   UNL     1       3.120   2.411  -1.235  0.00  0.00    +0.226 C 
ATOM     10  O   UNL     1       2.482   1.409  -1.480  0.00  0.00    -0.275 OA
ATOM     11  H   UNL     1       5.000   2.038  -2.327  0.00  0.00    +0.149 HD
BRANCH   6  12
ATOM     12  C   UNL     1       3.898   5.552   0.494  0.00  0.00    -0.042 A 
ATOM     13  C   UNL     1       3.378   6.828   0.610  0.00  0.00    +0.004 A 
ATOM     14  C   UNL     1       3.652   7.587   1.732  0.00  0.00    +0.000 A 
ATOM     15  C   UNL     1       4.453   7.073   2.735  0.00  0.00    +0.000 A 
ATOM     16  C   UNL     1       4.976   5.799   2.618  0.00  0.00    +0.000 A 
ATOM     17  C   UNL     1       4.699   5.039   1.497  0.00  0.00    +0.004 A 
ENDBRANCH   6  12
ENDBRANCH   2   5
BRANCH   1  19
ATOM     18  C   UNL     1       1.070   3.893   4.152  0.00  0.00    +0.138 C 
ATOM     19  N   UNL     1       1.970   3.461   3.323  0.00  0.00    -0.188 NA
BRANCH  18  22
ATOM     20  C   UNL     1      -2.188   5.748   3.953  0.00  0.00    +0.163 A 
ATOM     21  C   UNL     1      -0.990   5.259   4.437  0.00  0.00    +0.059 A 
ATOM     22  C   UNL     1      -0.212   4.413   3.643  0.00  0.00    -0.001 A 
ATOM     23  C   UNL     1      -0.655   4.056   2.367  0.00  0.00    +0.027 A 
ATOM     24  C   UNL     1      -1.855   4.543   1.892  0.00  0.00    +0.059 A 
ATOM     25  C   UNL     1      -2.624   5.388   2.680  0.00  0.00    +0.172 A 
ATOM     26  I   UNL     1      -2.518   4.006  -0.021  0.00  0.00    -0.040 I 
BRANCH  25  27
ATOM     27  O   UNL     1      -3.806   5.867   2.207  0.00  0.00    -0.503 OA
ATOM     28  H   UNL     1      -4.152   5.584   1.202  0.00  0.00    +0.292 HD
ENDBRANCH  25  27
BRANCH  20  29
ATOM     29  O   UNL     1      -2.945   6.578   4.721  0.00  0.00    -0.489 OA
BRANCH  29  31
ATOM     30  C   UNL     1      -3.417   7.840   6.727  0.00  0.00    +0.048 C 
ATOM     31  C   UNL     1      -2.437   6.905   6.016  0.00  0.00    +0.226 C 
ENDBRANCH  29  31
ENDBRANCH  20  29
ENDBRANCH  18  22
ENDBRANCH   1  19
TORSDOF 7
