REMARK  Name = ZINC39352306
REMARK  6 active torsions:
REMARK  status: ('A' for Active; 'I' for Inactive)
REMARK    1  A    between atoms: C_1  and  C_2
REMARK    2  A    between atoms: C_2  and  C_3
REMARK    3  A    between atoms: C_3  and  C_4
REMARK    4  A    between atoms: C_6  and  C_18
REMARK    5  A    between atoms: C_8  and  C_16
REMARK    6  A    between atoms: C_9  and  N_15
REMARK                            x       y       z     vdW  Elec       q    Type
REMARK                         _______ _______ _______ _____ _____    ______ ____
ROOT
ATOM      1  C   UNL     1       0.599  -1.520  -1.307  0.00  0.00    +0.069 C 
ATOM      2  C   UNL     1      -0.101  -2.463  -1.890  0.00  0.00    +0.030 C 
ATOM      3  C   UNL     1      -1.423  -2.480  -2.608  0.00  0.00    +0.102 C 
ATOM      4  C   UNL     1      -2.133  -3.731  -2.122  0.00  0.00    +0.098 C 
ATOM      5  C   UNL     1      -1.504  -4.655  -1.366  0.00  0.00    +0.195 C 
ATOM      6  O   UNL     1      -0.234  -4.604  -0.925  0.00  0.00    -0.448 OA
ATOM      7  C   UNL     1       0.676  -3.754  -1.629  0.00  0.00    +0.343 C 
ATOM      8  N   UNL     1       1.770  -3.284  -0.773  0.00  0.00    -0.138 NA
ATOM      9  N   UNL     1       1.672  -2.054  -0.670  0.00  0.00    -0.155 NA
ENDROOT
BRANCH   3  10
ATOM     10  C   UNL     1      -1.206  -2.546  -4.098  0.00  0.00    +0.019 A 
ATOM     11  C   UNL     1      -0.664  -3.684  -4.669  0.00  0.00    +0.129 A 
ATOM     12  C   UNL     1      -0.466  -3.743  -6.038  0.00  0.00    +0.039 A 
ATOM     13  C   UNL     1      -0.809  -2.666  -6.833  0.00  0.00    +0.004 A 
ATOM     14  C   UNL     1      -1.349  -1.529  -6.263  0.00  0.00    +0.020 A 
ATOM     15  C   UNL     1      -1.554  -1.471  -4.895  0.00  0.00    +0.048 A 
ATOM     16 CL   UNL     1      -2.240  -0.045  -4.180  0.00  0.00    -0.083 Cl
ATOM     17  F   UNL     1      -0.329  -4.737  -3.892  0.00  0.00    -0.205 F 
ENDBRANCH   3  10
BRANCH   5  18
ATOM     18  N   UNL     1      -2.236  -5.760  -1.010  0.00  0.00    -0.329 N 
ATOM     19  H   UNL     1      -3.157  -5.846  -1.302  0.00  0.00    +0.145 HD
ATOM     20  H   UNL     1      -1.832  -6.454  -0.467  0.00  0.00    +0.145 HD
ENDBRANCH   5  18
BRANCH   4  21
ATOM     21  C   UNL     1      -3.505  -3.935  -2.476  0.00  0.00    +0.101 C 
ATOM     22  N   UNL     1      -4.594  -4.096  -2.756  0.00  0.00    -0.191 NA
ENDBRANCH   4  21
BRANCH   1  23
ATOM     23  C   UNL     1       0.262  -0.051  -1.343  0.00  0.00    +0.057 C 
BRANCH  23  25
ATOM     24  C   UNL     1      -0.876   1.812  -0.127  0.00  0.00    +0.004 C 
ATOM     25  C   UNL     1      -0.534   0.321  -0.090  0.00  0.00    +0.003 C 
ENDBRANCH  23  25
ENDBRANCH   1  23
TORSDOF 5
