REMARK  Name = ZINC20664526
REMARK  6 active torsions:
REMARK  status: ('A' for Active; 'I' for Inactive)
REMARK    1  A    between atoms: C_1  and  C_2
REMARK    2  A    between atoms: C_4  and  N_9
REMARK    3  A    between atoms: C_13  and  C_29
REMARK    4  A    between atoms: C_19  and  S_20
REMARK    5  A    between atoms: S_20  and  C_21
REMARK    6  A    between atoms: C_21  and  C_22
REMARK                            x       y       z     vdW  Elec       q    Type
REMARK                         _______ _______ _______ _____ _____    ______ ____
ROOT
ATOM      1  N   UNL     1      -4.042  -2.389  -2.477  0.00  0.00    -0.275 N 
ATOM      2  C   UNL     1      -5.224  -3.094  -2.305  0.00  0.00    +0.124 A 
ATOM      3  N   UNL     1      -5.928  -3.502  -3.327  0.00  0.00    -0.384 N 
ATOM      4  C   UNL     1      -5.652  -3.363  -0.921  0.00  0.00    +0.082 A 
ATOM      5  C   UNL     1      -6.712  -4.000  -0.333  0.00  0.00    +0.072 A 
ATOM      6  N   UNL     1      -6.552  -3.919   1.000  0.00  0.00    -0.177 NA
ATOM      7  H   UNL     1      -4.913  -2.956   2.255  0.00  0.00    +0.191 HD
ATOM      8  N   UNL     1      -5.374  -3.221   1.292  0.00  0.00    -0.260 N 
ATOM      9  C   UNL     1      -4.797  -2.866   0.167  0.00  0.00    +0.162 A 
ATOM     10  N   UNL     1      -3.659  -2.192  -0.155  0.00  0.00    -0.204 NA
ATOM     11  C   UNL     1      -3.316  -1.968  -1.395  0.00  0.00    +0.177 A 
ATOM     12  C   UNL     1      -7.854  -4.672  -1.051  0.00  0.00    +0.068 C 
ATOM     13  H   UNL     1      -6.862  -4.060  -3.164  0.00  0.00    +0.157 HD
ATOM     14  H   UNL     1      -5.587  -3.288  -4.351  0.00  0.00    +0.157 HD
ENDROOT
BRANCH   1  18
ATOM     15  C   UNL     1      -0.666  -2.979  -6.003  0.00  0.00    +0.045 C 
ATOM     16  C   UNL     1      -1.954  -2.377  -5.505  0.00  0.00    -0.030 A 
ATOM     17  C   UNL     1      -2.401  -2.659  -4.229  0.00  0.00    +0.031 A 
ATOM     18  C   UNL     1      -3.587  -2.103  -3.771  0.00  0.00    +0.051 A 
ATOM     19  C   UNL     1      -4.326  -1.269  -4.599  0.00  0.00    +0.028 A 
ATOM     20  C   UNL     1      -3.873  -0.985  -5.872  0.00  0.00    +0.022 A 
ATOM     21  C   UNL     1      -2.689  -1.541  -6.327  0.00  0.00    +0.044 A 
ATOM     22 CL   UNL     1      -2.126  -1.188  -7.930  0.00  0.00    -0.083 Cl
ENDBRANCH   1  18
BRANCH  11  23
ATOM     23  S   UNL     1      -1.825  -1.077  -1.694  0.00  0.00    -0.083 S 
BRANCH  23  24
ATOM     24  C   UNL     1      -1.291  -0.778   0.010  0.00  0.00    +0.114 C 
BRANCH  24  25
ATOM     25  C   UNL     1       0.004  -0.007   0.002  0.00  0.00    -0.019 A 
ATOM     26  C   UNL     1       1.210  -0.682  -0.013  0.00  0.00    +0.006 A 
ATOM     27  C   UNL     1       2.398   0.024  -0.021  0.00  0.00    +0.000 A 
ATOM     28  C   UNL     1       2.381   1.407  -0.013  0.00  0.00    +0.001 A 
ATOM     29  C   UNL     1       1.175   2.083   0.002  0.00  0.00    +0.020 A 
ATOM     30  C   UNL     1      -0.014   1.376   0.009  0.00  0.00    +0.045 A 
ATOM     31 CL   UNL     1      -1.529   2.224   0.021  0.00  0.00    -0.083 Cl
ENDBRANCH  24  25
ENDBRANCH  23  24
ENDBRANCH  11  23
TORSDOF 4
