REMARK  Name = ZINC13065276
REMARK  12 active torsions:
REMARK  status: ('A' for Active; 'I' for Inactive)
REMARK    1  A    between atoms: C_1  and  C_2
REMARK    2  A    between atoms: C_2  and  C_3
REMARK    3  A    between atoms: C_3  and  C_5
REMARK    4  A    between atoms: C_3  and  N_69
REMARK    5  A    between atoms: N_9  and  C_10
REMARK    6  A    between atoms: C_10  and  C_11
REMARK    7  A    between atoms: C_16  and  C_17
REMARK    8  A    between atoms: C_16  and  N_69
REMARK    9  A    between atoms: C_26  and  C_27
REMARK   10  A    between atoms: C_26  and  N_69
REMARK   11  A    between atoms: C_30  and  C_40
REMARK   12  A    between atoms: C_33  and  C_39
REMARK                            x       y       z     vdW  Elec       q    Type
REMARK                         _______ _______ _______ _____ _____    ______ ____
ROOT
ATOM      1  N   UNL     1      -2.837  -1.172   1.049  0.00  0.00    +0.392 N 
ATOM      2  H   UNL     1      -2.463  -0.222   1.162  0.00  0.00    -0.080 HD
ENDROOT
BRANCH   1   3
ATOM      3  C   UNL     1      -4.219  -1.210   1.571  0.00  0.00    +0.003 C 
BRANCH   3   4
ATOM      4  C   UNL     1      -4.195  -1.583   3.031  0.00  0.00    +0.139 A 
ATOM      5  N   UNL     1      -3.458  -1.036   3.966  0.00  0.00    -0.115 NA
ATOM      6  N   UNL     1      -3.724  -1.629   5.079  0.00  0.00    -0.023 NA
ATOM      7  N   UNL     1      -4.606  -2.544   4.877  0.00  0.00    -0.044 NA
ATOM      8  N   UNL     1      -4.921  -2.548   3.626  0.00  0.00    -0.223 N 
BRANCH   8   9
ATOM      9  C   UNL     1      -5.888  -3.435   2.975  0.00  0.00    +0.221 C 
BRANCH   9  10
ATOM     10  C   UNL     1      -5.280  -4.803   2.805  0.00  0.00    +0.126 A 
ATOM     11  C   UNL     1      -5.450  -5.848   3.636  0.00  0.00    +0.046 A 
ATOM     12  C   UNL     1      -4.708  -6.924   3.097  0.00  0.00    +0.041 A 
ATOM     13  C   UNL     1      -4.122  -6.470   1.975  0.00  0.00    +0.195 A 
ATOM     14  O   UNL     1      -4.472  -5.185   1.803  0.00  0.00    -0.466 OA
ENDBRANCH   9  10
ENDBRANCH   8   9
ENDBRANCH   3   4
BRANCH   3  16
ATOM     15  C   UNL     1      -4.971   0.511  -0.077  0.00  0.00    +0.002 C 
ATOM     16  C   UNL     1      -4.838   0.180   1.411  0.00  0.00    -0.011 C 
ENDBRANCH   3  16
ENDBRANCH   1   3
BRANCH   1  17
ATOM     17  C   UNL     1      -1.985  -2.115   1.804  0.00  0.00    -0.041 C 
BRANCH  17  18
ATOM     18  C   UNL     1      -0.544  -1.711   1.628  0.00  0.00    -0.060 A 
ATOM     19  C   UNL     1       0.164  -2.146   0.523  0.00  0.00    +0.005 A 
ATOM     20  C   UNL     1       1.485  -1.773   0.354  0.00  0.00    +0.050 A 
ATOM     21  C   UNL     1       2.105  -0.972   1.299  0.00  0.00    +0.166 A 
ATOM     22  C   UNL     1       1.393  -0.538   2.415  0.00  0.00    +0.166 A 
ATOM     23  C   UNL     1       0.068  -0.911   2.574  0.00  0.00    +0.051 A 
ATOM     24  O   UNL     1       2.217   0.229   3.187  0.00  0.00    -0.453 OA
ATOM     25  C   UNL     1       3.553  -0.076   2.744  0.00  0.00    +0.466 C 
ATOM     26  O   UNL     1       3.375  -0.476   1.372  0.00  0.00    -0.453 OA
ENDBRANCH  17  18
ENDBRANCH   1  17
BRANCH   1  27
ATOM     27  C   UNL     1      -2.829  -1.523  -0.387  0.00  0.00    -0.036 C 
BRANCH  27  28
ATOM     28  C   UNL     1      -3.541  -2.831  -0.615  0.00  0.00    +0.001 A 
ATOM     29  C   UNL     1      -4.853  -2.836  -0.959  0.00  0.00    +0.017 A 
ATOM     30  C   UNL     1      -5.515  -4.124  -1.173  0.00  0.00    +0.002 A 
ATOM     31  C   UNL     1      -6.866  -4.192  -1.531  0.00  0.00    -0.041 A 
ATOM     32  C   UNL     1      -7.455  -5.410  -1.723  0.00  0.00    +0.004 A 
ATOM     33  C   UNL     1      -6.724  -6.580  -1.567  0.00  0.00    +0.005 A 
ATOM     34  C   UNL     1      -5.392  -6.537  -1.215  0.00  0.00    -0.026 A 
ATOM     35  C   UNL     1      -4.771  -5.308  -1.014  0.00  0.00    +0.052 A 
ATOM     36  N   UNL     1      -3.441  -5.235  -0.661  0.00  0.00    -0.322 N 
ATOM     37  H   UNL     1      -2.930  -6.053  -0.552  0.00  0.00    +0.169 HD
ATOM     38  C   UNL     1      -2.841  -4.048  -0.467  0.00  0.00    +0.251 A 
ATOM     39  O   UNL     1      -1.661  -4.021  -0.161  0.00  0.00    -0.268 OA
ATOM     40  C   UNL     1      -4.612  -7.815  -1.049  0.00  0.00    +0.046 C 
ATOM     41  C   UNL     1      -7.668  -2.928  -1.703  0.00  0.00    +0.044 C 
ENDBRANCH  27  28
ENDBRANCH   1  27
TORSDOF 9
