REMARK  Name = ZINC44552075
REMARK  7 active torsions:
REMARK  status: ('A' for Active; 'I' for Inactive)
REMARK    1  A    between atoms: C_1  and  C_2
REMARK    2  A    between atoms: C_7  and  C_9
REMARK    3  A    between atoms: C_7  and  C_10
REMARK    4  A    between atoms: C_17  and  C_19
REMARK    5  A    between atoms: N_20  and  N_21
REMARK    6  A    between atoms: N_21  and  C_22
REMARK    7  A    between atoms: C_22  and  N_24
REMARK                            x       y       z     vdW  Elec       q    Type
REMARK                         _______ _______ _______ _____ _____    ______ ____
ROOT
ATOM      1  C   UNL     1       0.367   1.548   0.255  0.00  0.00    +0.013 C 
ATOM      2  C   UNL     1       0.231   0.021   0.152  0.00  0.00    -0.014 C 
ATOM      3  C   UNL     1      -1.252  -0.437   0.088  0.00  0.00    +0.030 C 
ATOM      4  C   UNL     1      -1.057  -1.862  -0.488  0.00  0.00    +0.076 C 
ATOM      5  C   UNL     1      -0.539  -2.741   0.648  0.00  0.00    +0.029 C 
ATOM      6  C   UNL     1       0.729  -2.218   1.300  0.00  0.00    -0.033 C 
ATOM      7  C   UNL     1       0.883  -0.709   1.325  0.00  0.00    +0.014 C 
ATOM      8  C   UNL     1       0.718  -2.702   2.771  0.00  0.00    +0.011 C 
ATOM      9  C   UNL     1       1.956  -2.863   0.640  0.00  0.00    +0.011 C 
ATOM     10  N   UNL     1      -0.001  -1.718  -1.509  0.00  0.00    -0.310 N 
ATOM     11  C   UNL     1       0.802  -0.532  -1.173  0.00  0.00    +0.113 C 
ATOM     12  C   UNL     1       0.197  -2.551  -2.604  0.00  0.00    +0.141 A 
ATOM     13  C   UNL     1      -0.711  -3.574  -2.875  0.00  0.00    +0.154 A 
ATOM     14  N   UNL     1      -0.526  -4.366  -3.915  0.00  0.00    -0.258 NA
ATOM     15  C   UNL     1       0.519  -4.194  -4.704  0.00  0.00    +0.142 A 
ATOM     16  C   UNL     1       1.432  -3.174  -4.440  0.00  0.00    +0.123 A 
ATOM     17  N   UNL     1       1.244  -2.369  -3.394  0.00  0.00    -0.226 NA
ENDROOT
BRANCH  16  18
ATOM     18  C   UNL     1       2.603  -2.981  -5.322  0.00  0.00    +0.134 C 
ATOM     19  N   UNL     1       3.632  -2.305  -4.899  0.00  0.00    -0.291 N 
ATOM     20  N   UNL     1       2.604  -3.523  -6.604  0.00  0.00    -0.342 N 
ATOM     21  H   UNL     1       1.837  -4.026  -6.919  0.00  0.00    +0.144 HD
ATOM     22  H   UNL     1       3.372  -3.396  -7.183  0.00  0.00    +0.144 HD
ATOM     23  H   UNL     1       4.343  -2.066  -5.516  0.00  0.00    +0.186 HD
BRANCH  19  24
ATOM     24  N   UNL     1       3.715  -1.921  -3.554  0.00  0.00    -0.240 N 
ATOM     25  H   UNL     1       3.049  -2.231  -2.920  0.00  0.00    +0.174 HD
BRANCH  24  26
ATOM     26  C   UNL     1       4.719  -1.123  -3.141  0.00  0.00    +0.151 C 
ATOM     27  S   UNL     1       4.727  -0.517  -1.540  0.00  0.00    -0.017 S 
BRANCH  26  28
ATOM     28  N   UNL     1       5.716  -0.802  -3.988  0.00  0.00    -0.311 N 
ATOM     29  C   UNL     1       5.790  -1.178  -5.408  0.00  0.00    +0.107 C 
ATOM     30  C   UNL     1       7.115  -0.615  -5.963  0.00  0.00    +0.020 C 
ATOM     31  C   UNL     1       7.980  -0.439  -4.687  0.00  0.00    +0.020 C 
ATOM     32  C   UNL     1       6.912  -0.009  -3.647  0.00  0.00    +0.107 C 
ENDBRANCH  26  28
ENDBRANCH  24  26
ENDBRANCH  19  24
ENDBRANCH  16  18
TORSDOF 4
