REMARK  Name = ZINC13069162
REMARK  5 active torsions:
REMARK  status: ('A' for Active; 'I' for Inactive)
REMARK    1  A    between atoms: C_6  and  O_33
REMARK    2  A    between atoms: C_7  and  C_11
REMARK    3  A    between atoms: N_13  and  N_14
REMARK    4  A    between atoms: N_22  and  C_25
REMARK    5  A    between atoms: C_25  and  C_26
REMARK                            x       y       z     vdW  Elec       q    Type
REMARK                         _______ _______ _______ _____ _____    ______ ____
ROOT
ATOM      1  N   UNL     1       1.500  -6.318  -0.045  0.00  0.00    -0.174 NA
ATOM      2  C   UNL     1       0.398  -7.021   0.061  0.00  0.00    +0.153 C 
ATOM      3  C   UNL     1      -0.995  -6.517   0.087  0.00  0.00    +0.028 A 
ATOM      4  C   UNL     1      -1.548  -5.244   0.016  0.00  0.00    +0.012 A 
ATOM      5  C   UNL     1      -2.919  -5.089   0.069  0.00  0.00    +0.001 A 
ATOM      6  C   UNL     1      -3.738  -6.198   0.193  0.00  0.00    +0.002 A 
ATOM      7  C   UNL     1      -3.198  -7.466   0.264  0.00  0.00    +0.024 A 
ATOM      8  C   UNL     1      -1.820  -7.642   0.212  0.00  0.00    +0.046 A 
ATOM      9  N   UNL     1      -1.032  -8.787   0.263  0.00  0.00    -0.261 N 
ATOM     10  C   UNL     1       0.275  -8.488   0.173  0.00  0.00    +0.272 C 
ATOM     11  O   UNL     1       1.194  -9.286   0.185  0.00  0.00    -0.268 OA
ENDROOT
BRANCH   1  14
ATOM     12  C   UNL     1       2.562  -4.192  -0.177  0.00  0.00    +0.267 C 
ATOM     13  O   UNL     1       3.609  -4.747  -0.449  0.00  0.00    -0.268 OA
ATOM     14  N   UNL     1       1.450  -4.921   0.041  0.00  0.00    -0.202 N 
ATOM     15  H   UNL     1       0.615  -4.478   0.258  0.00  0.00    +0.178 HD
BRANCH  12  22
ATOM     16  C   UNL     1       0.064   1.336   0.696  0.00  0.00    +0.001 A 
ATOM     17  C   UNL     1       1.222   2.076   0.467  0.00  0.00    +0.001 A 
ATOM     18  C   UNL     1       2.398   1.462   0.162  0.00  0.00    +0.008 A 
ATOM     19  C   UNL     1       2.450   0.060   0.075  0.00  0.00    -0.014 A 
ATOM     20  C   UNL     1       3.650  -0.601  -0.238  0.00  0.00    +0.054 A 
ATOM     21  C   UNL     1       3.678  -1.962  -0.317  0.00  0.00    +0.130 A 
ATOM     22  C   UNL     1       2.510  -2.721  -0.087  0.00  0.00    +0.080 A 
ATOM     23  C   UNL     1       1.314  -2.092   0.223  0.00  0.00    +0.025 A 
ATOM     24  C   UNL     1       1.271  -0.693   0.308  0.00  0.00    -0.017 A 
ATOM     25  C   UNL     1       0.074  -0.022   0.621  0.00  0.00    +0.008 A 
BRANCH  21  26
ATOM     26  O   UNL     1       4.840  -2.593  -0.620  0.00  0.00    -0.506 OA
ATOM     27  H   UNL     1       5.376  -2.822   0.152  0.00  0.00    +0.292 HD
ENDBRANCH  21  26
ENDBRANCH  12  22
ENDBRANCH   1  14
BRANCH   9  28
ATOM     28  C   UNL     1      -1.561 -10.147   0.392  0.00  0.00    +0.149 C 
BRANCH  28  29
ATOM     29  C   UNL     1      -1.808 -10.722  -0.979  0.00  0.00    -0.030 A 
ATOM     30  C   UNL     1      -3.035 -10.546  -1.591  0.00  0.00    +0.006 A 
ATOM     31  C   UNL     1      -3.263 -11.073  -2.848  0.00  0.00    +0.020 A 
ATOM     32  C   UNL     1      -2.263 -11.777  -3.494  0.00  0.00    +0.041 A 
ATOM     33  C   UNL     1      -1.035 -11.953  -2.882  0.00  0.00    +0.020 A 
ATOM     34  C   UNL     1      -0.807 -11.421  -1.627  0.00  0.00    +0.006 A 
ATOM     35 CL   UNL     1      -2.549 -12.440  -5.073  0.00  0.00    -0.084 Cl
ENDBRANCH  28  29
ENDBRANCH   9  28
TORSDOF 5
