REMARK  Name = ZINC66834525
REMARK  6 active torsions:
REMARK  status: ('A' for Active; 'I' for Inactive)
REMARK    1  A    between atoms: C_1  and  C_2
REMARK    2  A    between atoms: C_2  and  C_4
REMARK    3  A    between atoms: C_2  and  N_13
REMARK    4  A    between atoms: C_4  and  N_6
REMARK    5  A    between atoms: N_8  and  C_12
REMARK    6  A    between atoms: C_14  and  C_16
REMARK                            x       y       z     vdW  Elec       q    Type
REMARK                         _______ _______ _______ _____ _____    ______ ____
ROOT
ATOM      1  C   UNL     1      -0.019   1.526   0.010  0.00  0.00    +0.038 C 
ATOM      2  C   UNL     1       0.002  -0.004   0.002  0.00  0.00    +0.158 C 
ENDROOT
BRANCH   2   3
ATOM      3  N   UNL     1       0.711  -0.489   1.189  0.00  0.00    -0.304 N 
ATOM      4  C   UNL     1       2.054  -0.600   1.174  0.00  0.00    +0.217 C 
ATOM      5  O   UNL     1       2.676  -0.297   0.177  0.00  0.00    -0.275 OA
ATOM      6  H   UNL     1       0.213  -0.731   1.986  0.00  0.00    +0.149 HD
BRANCH   4   7
ATOM      7  C   UNL     1       2.783  -1.099   2.395  0.00  0.00    +0.079 C 
ATOM      8  C   UNL     1       2.512  -0.159   3.573  0.00  0.00    +0.041 C 
ATOM      9  C   UNL     1       3.318  -0.629   4.787  0.00  0.00    +0.160 C 
ATOM     10  O   UNL     1       4.706  -0.664   4.450  0.00  0.00    -0.380 OA
ATOM     11  C   UNL     1       5.026  -1.562   3.385  0.00  0.00    +0.160 C 
ATOM     12  C   UNL     1       4.288  -1.129   2.116  0.00  0.00    +0.041 C 
ENDBRANCH   4   7
ENDBRANCH   2   3
BRANCH   2  13
ATOM     13  C   UNL     1      -1.412  -0.526   0.013  0.00  0.00    +0.258 C 
ATOM     14  O   UNL     1      -1.791  -1.235   0.925  0.00  0.00    -0.272 OA
BRANCH  13  15
ATOM     15  N   UNL     1      -2.242  -0.211  -0.973  0.00  0.00    -0.155 NA
ATOM     16  C   UNL     1      -3.495  -0.673  -0.963  0.00  0.00    +0.165 A 
ATOM     17  N   UNL     1      -4.479  -0.465  -1.879  0.00  0.00    -0.331 N 
ATOM     18  C   UNL     1      -5.696  -1.036  -1.674  0.00  0.00    +0.094 A 
ATOM     19  C   UNL     1      -5.849  -1.776  -0.570  0.00  0.00    +0.066 A 
ATOM     20  S   UNL     1      -4.236  -1.659   0.179  0.00  0.00    -0.061 S 
ATOM     21  C   UNL     1      -4.232   0.360  -3.064  0.00  0.00    +0.150 C 
ENDBRANCH  13  15
ENDBRANCH   2  13
TORSDOF 4
