REMARK  Name = ZINC17028230
REMARK  3 active torsions:
REMARK  status: ('A' for Active; 'I' for Inactive)
REMARK    1  A    between atoms: C_1  and  S_2
REMARK    2  A    between atoms: S_2  and  C_3
REMARK    3  A    between atoms: C_9  and  C_11
REMARK                            x       y       z     vdW  Elec       q    Type
REMARK                         _______ _______ _______ _____ _____    ______ ____
ROOT
ATOM      1  C   UNL     1      -1.266   3.395   0.032  0.00  0.00    +0.194 A 
ATOM      2  C   UNL     1      -0.168   4.191   0.026  0.00  0.00    +0.103 A 
ATOM      3  C   UNL     1       1.161   3.564   0.010  0.00  0.00    +0.193 A 
ATOM      4  O   UNL     1       2.181   4.230   0.004  0.00  0.00    -0.287 OA
ATOM      5  C   UNL     1       1.201   2.089   0.002  0.00  0.00    +0.065 A 
ATOM      6  C   UNL     1       2.412   1.397  -0.013  0.00  0.00    +0.030 A 
ATOM      7  C   UNL     1       2.407   0.019  -0.020  0.00  0.00    +0.019 A 
ATOM      8  C   UNL     1       1.204  -0.677  -0.013  0.00  0.00    +0.019 A 
ATOM      9  C   UNL     1       0.002  -0.004   0.002  0.00  0.00    +0.048 A 
ATOM     10  C   UNL     1      -0.017   1.387   0.010  0.00  0.00    +0.140 A 
ATOM     11  O   UNL     1      -1.186   2.057   0.019  0.00  0.00    -0.450 OA
ATOM     12 BR   UNL     1       4.043  -0.929  -0.040  0.00  0.00    -0.050 Br
ENDROOT
BRANCH   1  19
ATOM     13  C   UNL     1      -7.512   4.646   0.097  0.00  0.00    +0.160 A 
ATOM     14  N   UNL     1      -6.508   5.512   0.092  0.00  0.00    -0.133 NA
ATOM     15  N   UNL     1      -5.304   5.136   0.079  0.00  0.00    -0.125 NA
ATOM     16  C   UNL     1      -4.969   3.856   0.070  0.00  0.00    +0.189 A 
ATOM     17  S   UNL     1      -6.596   3.108   0.074  0.00  0.00    -0.024 S 
ATOM     18  N   UNL     1      -3.712   3.261   0.055  0.00  0.00    -0.257 N 
ATOM     19  C   UNL     1      -2.604   4.028   0.048  0.00  0.00    +0.285 C 
ATOM     20  O   UNL     1      -2.703   5.240   0.055  0.00  0.00    -0.266 OA
ATOM     21  H   UNL     1      -3.623   2.165   0.048  0.00  0.00    +0.157 HD
BRANCH  13  23
ATOM     22  C   UNL     1      -9.402   6.736   0.124  0.00  0.00    +0.092 C 
ATOM     23  S   UNL     1      -9.251   4.929   0.114  0.00  0.00    -0.100 S 
ENDBRANCH  13  23
ENDBRANCH   1  19
TORSDOF 2
