REMARK  Name = ZINC05532777
REMARK  9 active torsions:
REMARK  status: ('A' for Active; 'I' for Inactive)
REMARK    1  A    between atoms: C_1  and  C_2
REMARK    2  A    between atoms: C_3  and  C_11
REMARK    3  A    between atoms: C_7  and  N_8
REMARK    4  A    between atoms: N_13  and  C_14
REMARK    5  A    between atoms: C_15  and  C_28
REMARK    6  A    between atoms: C_20  and  C_24
REMARK    7  A    between atoms: C_24  and  C_25
REMARK    8  A    between atoms: C_24  and  C_26
REMARK    9  A    between atoms: C_24  and  C_27
REMARK                            x       y       z     vdW  Elec       q    Type
REMARK                         _______ _______ _______ _____ _____    ______ ____
ROOT
ATOM      1  C   UNL     1      -1.341  -0.328  -4.766  0.00  0.00    +0.085 A 
ATOM      2  C   UNL     1      -1.586  -0.943  -5.984  0.00  0.00    +0.068 A 
ATOM      3  C   UNL     1      -1.977  -0.089  -7.093  0.00  0.00    -0.023 A 
ATOM      4  C   UNL     1      -2.052   1.222  -6.780  0.00  0.00    -0.004 A 
ATOM      5  S   UNL     1      -1.620   1.300  -5.066  0.00  0.00    -0.077 S 
ATOM      6  C   UNL     1      -2.426   2.346  -7.696  0.00  0.00    +0.046 C 
ATOM      7  C   UNL     1      -3.080   1.747  -8.951  0.00  0.00    -0.000 C 
ATOM      8  C   UNL     1      -2.207   0.598  -9.464  0.00  0.00    +0.009 C 
ATOM      9  C   UNL     1      -2.284  -0.586  -8.498  0.00  0.00    +0.037 C 
ENDROOT
BRANCH   2  10
ATOM     10  C   UNL     1      -1.455  -2.394  -6.147  0.00  0.00    +0.244 C 
ATOM     11  O   UNL     1      -2.414  -3.118  -5.951  0.00  0.00    -0.270 OA
ATOM     12  N   UNL     1      -0.273  -2.928  -6.515  0.00  0.00    -0.325 N 
ATOM     13  H   UNL     1       0.491  -2.351  -6.672  0.00  0.00    +0.145 HD
ATOM     14  H   UNL     1      -0.187  -3.888  -6.623  0.00  0.00    +0.145 HD
ENDBRANCH   2  10
BRANCH   1  17
ATOM     15  C   UNL     1      -0.768  -0.165  -2.475  0.00  0.00    +0.249 C 
ATOM     16  O   UNL     1      -0.931   1.039  -2.531  0.00  0.00    -0.270 OA
ATOM     17  N   UNL     1      -0.959  -0.922  -3.574  0.00  0.00    -0.275 N 
ATOM     18  H   UNL     1      -0.829  -1.882  -3.530  0.00  0.00    +0.156 HD
BRANCH  15  21
ATOM     19  C   UNL     1      -0.618   1.431  -0.067  0.00  0.00    +0.047 C 
ATOM     20  C   UNL     1      -0.285  -0.038  -0.035  0.00  0.00    -0.008 A 
ATOM     21  C   UNL     1      -0.360  -0.798  -1.204  0.00  0.00    +0.042 A 
ATOM     22  C   UNL     1      -0.050  -2.158  -1.166  0.00  0.00    +0.013 A 
ATOM     23  C   UNL     1       0.329  -2.743   0.025  0.00  0.00    +0.003 A 
ATOM     24  C   UNL     1       0.402  -1.984   1.179  0.00  0.00    +0.033 A 
ATOM     25  C   UNL     1       0.101  -0.634   1.148  0.00  0.00    +0.130 A 
BRANCH  25  26
ATOM     26  N   UNL     1       0.188   0.172   2.386  0.00  0.00    +0.057 N 
ATOM     27  O   UNL     1       0.395  -0.371   3.447  0.00  0.00    -0.126 OA
ATOM     28  O   UNL     1       0.053   1.372   2.338  0.00  0.00    -0.126 OA
ENDBRANCH  25  26
ENDBRANCH  15  21
ENDBRANCH   1  17
BRANCH   7  29
ATOM     29  C   UNL     1      -3.200   2.825 -10.030  0.00  0.00    -0.035 C 
ATOM     30  C   UNL     1      -1.807   3.350 -10.383  0.00  0.00    +0.011 C 
ATOM     31  C   UNL     1      -3.851   2.226 -11.278  0.00  0.00    +0.011 C 
ATOM     32  C   UNL     1      -4.061   3.976  -9.508  0.00  0.00    +0.011 C 
ENDBRANCH   7  29
TORSDOF 5
