REMARK  Name = ZINC63027593
REMARK  8 active torsions:
REMARK  status: ('A' for Active; 'I' for Inactive)
REMARK    1  A    between atoms: C_1  and  C_2
REMARK    2  A    between atoms: C_2  and  C_4
REMARK    3  A    between atoms: C_2  and  N_23
REMARK    4  A    between atoms: C_4  and  C_6
REMARK    5  A    between atoms: C_4  and  C_20
REMARK    6  A    between atoms: C_15  and  N_16
REMARK    7  A    between atoms: C_20  and  C_21
REMARK    8  A    between atoms: C_20  and  C_22
REMARK                            x       y       z     vdW  Elec       q    Type
REMARK                         _______ _______ _______ _____ _____    ______ ____
ROOT
ATOM      1  C   UNL     1       0.942  -1.833   2.220  0.00  0.00    -0.005 A 
ATOM      2  C   UNL     1       1.946  -2.654   1.672  0.00  0.00    +0.007 A 
ATOM      3  C   UNL     1       3.210  -2.141   1.341  0.00  0.00    +0.025 A 
ATOM      4  C   UNL     1       4.155  -2.968   0.814  0.00  0.00    +0.019 A 
ATOM      5  C   UNL     1       3.883  -4.319   0.597  0.00  0.00    +0.017 A 
ATOM      6  C   UNL     1       2.668  -4.848   0.905  0.00  0.00    +0.029 A 
ATOM      7  C   UNL     1       1.667  -4.026   1.452  0.00  0.00    +0.071 A 
ATOM      8  N   UNL     1       0.465  -4.519   1.767  0.00  0.00    -0.253 NA
ATOM      9  C   UNL     1      -0.471  -3.758   2.278  0.00  0.00    +0.144 A 
ATOM     10  C   UNL     1      -0.262  -2.402   2.522  0.00  0.00    +0.148 A 
ATOM     11 BR   UNL     1       5.858  -2.276   0.368  0.00  0.00    -0.050 Br
ENDROOT
BRANCH  10  12
ATOM     12  N   UNL     1      -1.345  -1.579   3.105  0.00  0.00    +0.058 N 
ATOM     13  O   UNL     1      -2.098  -2.059   3.920  0.00  0.00    -0.126 OA
ATOM     14  O   UNL     1      -1.477  -0.425   2.766  0.00  0.00    -0.126 OA
ENDBRANCH  10  12
BRANCH   1  15
ATOM     15  C   UNL     1       1.192  -0.368   2.472  0.00  0.00    +0.010 C 
BRANCH  15  16
ATOM     16  C   UNL     1       2.457  -0.204   3.316  0.00  0.00    -0.011 C 
ATOM     17  C   UNL     1       2.509   1.214   3.887  0.00  0.00    +0.008 C 
ATOM     18  C   UNL     1       2.438  -1.216   4.464  0.00  0.00    +0.008 C 
ENDBRANCH  15  16
BRANCH  15  20
ATOM     19  C   UNL     1       0.094   0.224   0.307  0.00  0.00    -0.014 C 
ATOM     20  C   UNL     1       1.373   0.355   1.136  0.00  0.00    -0.070 C 
BRANCH  20  21
ATOM     21  N   UNL     1       1.652   1.776   1.383  0.00  0.00    +0.380 N 
ATOM     22  H   UNL     1       2.630   1.893   1.603  0.00  0.00    -0.090 HD
ATOM     23  H   UNL     1       1.427   2.311   0.557  0.00  0.00    -0.090 HD
ATOM     24  H   UNL     1       1.092   2.099   2.157  0.00  0.00    -0.090 HD
ENDBRANCH  20  21
ENDBRANCH  15  20
ENDBRANCH   1  15
TORSDOF 5
