REMARK  Name = ZINC39685756
REMARK  12 active torsions:
REMARK  status: ('A' for Active; 'I' for Inactive)
REMARK    1  A    between atoms: C_1  and  C_2
REMARK    2  A    between atoms: C_2  and  C_3
REMARK    3  A    between atoms: C_2  and  C_4
REMARK    4  A    between atoms: C_4  and  C_6
REMARK    5  A    between atoms: C_4  and  N_13
REMARK    6  A    between atoms: N_8  and  C_9
REMARK    7  A    between atoms: C_9  and  C_10
REMARK    8  A    between atoms: C_9  and  C_11
REMARK    9  A    between atoms: C_9  and  C_12
REMARK   10  A    between atoms: C_14  and  C_16
REMARK   11  A    between atoms: C_27  and  C_29
REMARK   12  A    between atoms: C_33  and  C_35
REMARK                            x       y       z     vdW  Elec       q    Type
REMARK                         _______ _______ _______ _____ _____    ______ ____
ROOT
ATOM      1  C   UNL     1      -1.760  -4.481   1.287  0.00  0.00    +0.100 C 
ATOM      2  C   UNL     1      -2.816  -5.297   0.508  0.00  0.00    +0.121 C 
ATOM      3  N   UNL     1      -3.001  -6.531   1.308  0.00  0.00    -0.296 N 
ATOM      4  C   UNL     1      -2.961  -6.066   2.716  0.00  0.00    +0.115 C 
ATOM      5  C   UNL     1      -1.859  -4.989   2.735  0.00  0.00    -0.004 C 
ATOM      6  C   UNL     1      -0.531  -5.599   3.173  0.00  0.00    -0.010 C 
ATOM      7  C   UNL     1      -0.636  -6.045   4.634  0.00  0.00    -0.082 C 
ATOM      8  N   UNL     1      -0.968  -4.890   5.477  0.00  0.00    +0.379 N 
ATOM      9  C   UNL     1      -2.289  -4.365   5.111  0.00  0.00    -0.082 C 
ATOM     10  C   UNL     1      -2.254  -3.849   3.669  0.00  0.00    -0.010 C 
ATOM     11  C   UNL     1      -3.168  -7.790   0.858  0.00  0.00    +0.247 C 
ATOM     12  O   UNL     1      -3.061  -8.031  -0.329  0.00  0.00    -0.270 OA
ATOM     13  H   UNL     1      -0.977  -5.173   6.445  0.00  0.00    -0.086 HD
ATOM     14  H   UNL     1      -0.274  -4.170   5.347  0.00  0.00    -0.086 HD
ENDROOT
BRANCH  11  15
ATOM     15  C   UNL     1      -3.482  -8.878   1.807  0.00  0.00    +0.038 A 
ATOM     16  C   UNL     1      -4.013  -8.580   3.064  0.00  0.00    +0.016 A 
ATOM     17  C   UNL     1      -4.303  -9.599   3.946  0.00  0.00    +0.039 A 
ATOM     18  C   UNL     1      -4.069 -10.918   3.586  0.00  0.00    +0.135 A 
ATOM     19  C   UNL     1      -3.542 -11.219   2.340  0.00  0.00    +0.091 A 
ATOM     20  C   UNL     1      -3.253 -10.208   1.448  0.00  0.00    +0.028 A 
ATOM     21  F   UNL     1      -4.355 -11.913   4.454  0.00  0.00    -0.205 F 
BRANCH  19  22
ATOM     22  C   UNL     1      -3.290 -12.655   1.957  0.00  0.00    +0.420 C 
ATOM     23  F   UNL     1      -2.761 -12.706   0.663  0.00  0.00    -0.166 F 
ATOM     24  F   UNL     1      -2.382 -13.224   2.855  0.00  0.00    -0.166 F 
ATOM     25  F   UNL     1      -4.494 -13.366   1.996  0.00  0.00    -0.166 F 
ENDBRANCH  19  22
ENDBRANCH  11  15
BRANCH   1  27
ATOM     26  N   UNL     1      -3.339  -2.585   1.461  0.00  0.00    -0.303 N 
ATOM     27  C   UNL     1      -2.082  -3.010   1.223  0.00  0.00    +0.219 C 
ATOM     28  O   UNL     1      -1.211  -2.210   0.958  0.00  0.00    -0.275 OA
ATOM     29  H   UNL     1      -4.018  -3.214   1.750  0.00  0.00    +0.149 HD
BRANCH  26  30
ATOM     30  C   UNL     1      -3.680  -1.171   1.281  0.00  0.00    +0.161 C 
BRANCH  30  31
ATOM     31  C   UNL     1      -4.865  -0.827   2.146  0.00  0.00    +0.234 C 
ATOM     32  O   UNL     1      -5.430  -1.696   2.775  0.00  0.00    -0.274 OA
ATOM     33  N   UNL     1      -5.298   0.448   2.219  0.00  0.00    -0.309 N 
ATOM     34  H   UNL     1      -4.804   1.154   1.774  0.00  0.00    +0.149 HD
BRANCH  33  35
ATOM     35  C   UNL     1      -6.514   0.766   2.971  0.00  0.00    +0.026 C 
ATOM     36  C   UNL     1      -6.333   0.352   4.433  0.00  0.00    +0.031 C 
ATOM     37  C   UNL     1      -6.781   2.271   2.896  0.00  0.00    +0.031 C 
ATOM     38  C   UNL     1      -7.699   0.007   2.369  0.00  0.00    +0.031 C 
ENDBRANCH  33  35
ENDBRANCH  30  31
BRANCH  30  40
ATOM     39  C   UNL     1      -2.796  -1.181  -1.056  0.00  0.00    +0.009 C 
ATOM     40  C   UNL     1      -4.026  -0.912  -0.186  0.00  0.00    +0.012 C 
ATOM     41  C   UNL     1      -5.165  -1.841  -0.613  0.00  0.00    +0.009 C 
ENDBRANCH  30  40
ENDBRANCH  26  30
ENDBRANCH   1  27
TORSDOF 7
