REMARK  Name = ZINC12580586
REMARK  7 active torsions:
REMARK  status: ('A' for Active; 'I' for Inactive)
REMARK    1  A    between atoms: C_4  and  C_7
REMARK    2  A    between atoms: C_12  and  N_22
REMARK    3  A    between atoms: C_14  and  C_16
REMARK    4  A    between atoms: N_22  and  C_23
REMARK    5  A    between atoms: C_23  and  C_24
REMARK    6  A    between atoms: C_27  and  S_29
REMARK    7  A    between atoms: S_29  and  N_32
REMARK                            x       y       z     vdW  Elec       q    Type
REMARK                         _______ _______ _______ _____ _____    ______ ____
ROOT
ATOM      1  C   UNL     1       5.218   2.572   4.185  0.00  0.00    +0.002 A 
ATOM      2  C   UNL     1       5.846   2.887   5.343  0.00  0.00    +0.056 A 
ATOM      3  S   UNL     1       7.470   3.396   4.811  0.00  0.00    -0.076 S 
ATOM      4  C   UNL     1       7.273   3.178   3.062  0.00  0.00    +0.115 A 
ATOM      5  C   UNL     1       5.945   2.719   2.929  0.00  0.00    +0.055 A 
ATOM      6  C   UNL     1       5.519   2.452   1.599  0.00  0.00    +0.132 A 
ATOM      7  N   UNL     1       6.357   2.652   0.598  0.00  0.00    -0.211 NA
ATOM      8  C   UNL     1       7.596   3.092   0.793  0.00  0.00    +0.181 A 
ATOM      9  N   UNL     1       8.049   3.353   2.012  0.00  0.00    -0.219 NA
ENDROOT
BRANCH   1  13
ATOM     10  C   UNL     1       1.196   1.197   4.208  0.00  0.00    +0.000 A 
ATOM     11  C   UNL     1       2.195   0.395   3.687  0.00  0.00    +0.001 A 
ATOM     12  C   UNL     1       3.502   0.836   3.676  0.00  0.00    +0.008 A 
ATOM     13  C   UNL     1       3.816   2.093   4.193  0.00  0.00    -0.017 A 
ATOM     14  C   UNL     1       2.805   2.894   4.723  0.00  0.00    +0.008 A 
ATOM     15  C   UNL     1       1.500   2.445   4.722  0.00  0.00    +0.001 A 
ENDBRANCH   1  13
BRANCH   8  16
ATOM     16  C   UNL     1       8.488   3.296  -0.374  0.00  0.00    +0.108 A 
ATOM     17  C   UNL     1       9.788   3.758  -0.178  0.00  0.00    +0.031 A 
ATOM     18  C   UNL     1      10.609   3.943  -1.277  0.00  0.00    +0.004 A 
ATOM     19  C   UNL     1      10.103   3.661  -2.537  0.00  0.00    +0.020 A 
ATOM     20  C   UNL     1       8.802   3.205  -2.659  0.00  0.00    +0.111 A 
ATOM     21  N   UNL     1       8.044   3.033  -1.596  0.00  0.00    -0.252 NA
ENDBRANCH   8  16
BRANCH   6  22
ATOM     22  N   UNL     1       4.237   1.992   1.355  0.00  0.00    -0.324 N 
ATOM     23  H   UNL     1       3.596   1.935   2.081  0.00  0.00    +0.148 HD
BRANCH  22  24
ATOM     24  C   UNL     1       3.847   1.591   0.001  0.00  0.00    +0.145 C 
BRANCH  24  25
ATOM     25  C   UNL     1       2.411   1.133   0.006  0.00  0.00    +0.009 A 
ATOM     26  C   UNL     1       1.283   1.859  -0.191  0.00  0.00    +0.015 A 
ATOM     27  C   UNL     1       0.058   1.220  -0.140  0.00  0.00    +0.036 A 
ATOM     28  C   UNL     1       0.021  -0.112   0.106  0.00  0.00    +0.142 A 
ATOM     29  S   UNL     1       1.755  -0.505   0.275  0.00  0.00    -0.072 S 
BRANCH  28  30
ATOM     30  S   UNL     1      -1.375  -1.180   0.227  0.00  0.00    +0.062 S 
ATOM     31  O   UNL     1      -0.971  -2.289   1.018  0.00  0.00    -0.153 OA
ATOM     32  O   UNL     1      -2.483  -0.361   0.574  0.00  0.00    -0.153 OA
BRANCH  30  33
ATOM     33  N   UNL     1      -1.677  -1.766  -1.292  0.00  0.00    -0.203 NA
ATOM     34  H   UNL     1      -1.115  -1.497  -2.036  0.00  0.00    +0.144 HD
ATOM     35  H   UNL     1      -2.414  -2.378  -1.438  0.00  0.00    +0.144 HD
ENDBRANCH  30  33
ENDBRANCH  28  30
ENDBRANCH  24  25
ENDBRANCH  22  24
ENDBRANCH   6  22
TORSDOF 7
