REMARK  Name = ZINC44168201
REMARK  5 active torsions:
REMARK  status: ('A' for Active; 'I' for Inactive)
REMARK    1  A    between atoms: C_3  and  N_25
REMARK    2  A    between atoms: C_6  and  C_7
REMARK    3  A    between atoms: C_12  and  C_15
REMARK    4  A    between atoms: N_17  and  C_18
REMARK    5  A    between atoms: C_18  and  C_19
REMARK                            x       y       z     vdW  Elec       q    Type
REMARK                         _______ _______ _______ _____ _____    ______ ____
ROOT
ATOM      1  C   UNL     1      -1.294  -0.774   0.011  0.00  0.00    -0.030 C 
ATOM      2  C   UNL     1      -1.620  -1.239  -1.413  0.00  0.00    +0.058 C 
ATOM      3  S   UNL     1      -3.220  -2.104  -1.379  0.00  0.00    -0.163 S 
ATOM      4  C   UNL     1      -3.008  -3.280  -0.005  0.00  0.00    +0.062 C 
ATOM      5  C   UNL     1      -2.474  -2.509   1.208  0.00  0.00    +0.027 C 
ATOM      6  N   UNL     1      -1.164  -1.934   0.894  0.00  0.00    +0.392 N 
ATOM      7  H   UNL     1      -0.595  -2.633   0.440  0.00  0.00    -0.084 HD
ATOM      8  H   UNL     1      -0.715  -1.649   1.751  0.00  0.00    -0.084 HD
ENDROOT
BRANCH   1  14
ATOM      9  C   UNL     1      -0.017   1.379   0.010  0.00  0.00    +0.004 A 
ATOM     10  C   UNL     1       1.169   2.087   0.002  0.00  0.00    +0.023 A 
ATOM     11  C   UNL     1       2.381   1.409  -0.013  0.00  0.00    +0.030 A 
ATOM     12  C   UNL     1       2.396   0.020  -0.021  0.00  0.00    +0.023 A 
ATOM     13  C   UNL     1       1.207  -0.682  -0.013  0.00  0.00    +0.004 A 
ATOM     14  C   UNL     1       0.002  -0.004   0.002  0.00  0.00    -0.060 A 
BRANCH  11  15
ATOM     15  N   UNL     1       3.582   2.122  -0.021  0.00  0.00    -0.330 N 
ATOM     16  C   UNL     1       3.709   3.587  -0.009  0.00  0.00    +0.105 C 
ATOM     17  C   UNL     1       5.216   3.917  -0.051  0.00  0.00    +0.020 C 
ATOM     18  C   UNL     1       5.837   2.629  -0.655  0.00  0.00    +0.020 C 
ATOM     19  C   UNL     1       4.932   1.531  -0.037  0.00  0.00    +0.105 C 
ENDBRANCH  11  15
ENDBRANCH   1  14
BRANCH   5  20
ATOM     20  C   UNL     1      -2.339  -3.449   2.378  0.00  0.00    +0.200 C 
ATOM     21  O   UNL     1      -1.255  -3.625   2.893  0.00  0.00    -0.278 OA
ATOM     22  N   UNL     1      -3.423  -4.095   2.852  0.00  0.00    -0.314 N 
ATOM     23  H   UNL     1      -4.290  -3.955   2.440  0.00  0.00    +0.149 HD
BRANCH  22  24
ATOM     24  C   UNL     1      -3.292  -5.009   3.990  0.00  0.00    +0.135 C 
BRANCH  24  25
ATOM     25  C   UNL     1      -4.660  -5.606   4.325  0.00  0.00    +0.135 C 
ATOM     26  C   UNL     1      -4.555  -6.476   5.596  0.00  0.00    +0.035 C 
ATOM     27  C   UNL     1      -5.480  -7.675   5.252  0.00  0.00    +0.031 C 
ATOM     28  C   UNL     1      -5.241  -7.803   3.726  0.00  0.00    +0.160 C 
ATOM     29  O   UNL     1      -5.097  -6.452   3.254  0.00  0.00    -0.375 OA
ENDBRANCH  24  25
ENDBRANCH  22  24
ENDBRANCH   5  20
TORSDOF 5
