REMARK  Name = ZINC67423270
REMARK  7 active torsions:
REMARK  status: ('A' for Active; 'I' for Inactive)
REMARK    1  A    between atoms: C_1  and  C_2
REMARK    2  A    between atoms: C_2  and  C_3
REMARK    3  A    between atoms: C_2  and  C_4
REMARK    4  A    between atoms: C_2  and  C_5
REMARK    5  A    between atoms: C_5  and  N_6
REMARK    6  A    between atoms: C_7  and  C_9
REMARK    7  A    between atoms: C_22  and  C_24
REMARK                            x       y       z     vdW  Elec       q    Type
REMARK                         _______ _______ _______ _____ _____    ______ ____
ROOT
ATOM      1  C   UNL     1       4.231  -0.030  -2.607  0.00  0.00    +0.306 C 
ATOM      2  O   UNL     1       4.415   0.712  -1.664  0.00  0.00    -0.265 OA
ATOM      3  N   UNL     1       5.218  -0.246  -3.498  0.00  0.00    -0.254 N 
ATOM      4  C   UNL     1       5.017  -1.094  -4.593  0.00  0.00    +0.059 A 
ATOM      5  C   UNL     1       4.207  -0.707  -5.648  0.00  0.00    +0.025 A 
ATOM      6  C   UNL     1       4.039  -1.550  -6.731  0.00  0.00    +0.002 A 
ATOM      7  C   UNL     1       4.677  -2.776  -6.766  0.00  0.00    +0.002 A 
ATOM      8  C   UNL     1       5.480  -3.175  -5.713  0.00  0.00    +0.025 A 
ATOM      9  C   UNL     1       5.645  -2.341  -4.619  0.00  0.00    +0.055 A 
ATOM     10  N   UNL     1       6.407  -2.745  -3.518  0.00  0.00    -0.284 N 
ATOM     11  C   UNL     1       7.337  -1.920  -2.988  0.00  0.00    +0.219 C 
ATOM     12  O   UNL     1       7.932  -2.249  -1.984  0.00  0.00    -0.275 OA
ATOM     13  C   UNL     1       7.639  -0.595  -3.637  0.00  0.00    +0.123 C 
ATOM     14  C   UNL     1       6.519   0.408  -3.342  0.00  0.00    +0.121 C 
ATOM     15  H   UNL     1       6.267  -3.624  -3.131  0.00  0.00    +0.155 HD
ENDROOT
BRANCH  14  16
ATOM     16  C   UNL     1       6.614   1.568  -4.300  0.00  0.00    -0.026 A 
ATOM     17  C   UNL     1       6.921   2.831  -3.828  0.00  0.00    +0.005 A 
ATOM     18  C   UNL     1       7.008   3.894  -4.707  0.00  0.00    +0.000 A 
ATOM     19  C   UNL     1       6.789   3.695  -6.057  0.00  0.00    +0.000 A 
ATOM     20  C   UNL     1       6.483   2.433  -6.529  0.00  0.00    +0.000 A 
ATOM     21  C   UNL     1       6.400   1.368  -5.651  0.00  0.00    +0.005 A 
ENDBRANCH  14  16
BRANCH   1  23
ATOM     22  N   UNL     1       1.921  -0.489  -1.888  0.00  0.00    -0.307 N 
ATOM     23  C   UNL     1       2.909  -0.704  -2.779  0.00  0.00    +0.300 C 
ATOM     24  O   UNL     1       2.725  -1.446  -3.721  0.00  0.00    -0.265 OA
ATOM     25  H   UNL     1       2.069   0.104  -1.134  0.00  0.00    +0.149 HD
BRANCH  22  26
ATOM     26  C   UNL     1       0.625  -1.150  -2.056  0.00  0.00    +0.110 C 
BRANCH  26  28
ATOM     27  C   UNL     1      -0.504   0.779  -0.942  0.00  0.00    +0.012 C 
ATOM     28  C   UNL     1      -0.310  -0.738  -0.918  0.00  0.00    -0.022 C 
ATOM     29  C   UNL     1       0.304  -1.152   0.421  0.00  0.00    +0.012 C 
ATOM     30  C   UNL     1      -1.663  -1.429  -1.094  0.00  0.00    +0.012 C 
ENDBRANCH  26  28
ENDBRANCH  22  26
ENDBRANCH   1  23
TORSDOF 4
