REMARK  Name = ZINC20107463
REMARK  7 active torsions:
REMARK  status: ('A' for Active; 'I' for Inactive)
REMARK    1  A    between atoms: C_1  and  C_2
REMARK    2  A    between atoms: C_5  and  C_26
REMARK    3  A    between atoms: C_5  and  C_27
REMARK    4  A    between atoms: N_9  and  C_10
REMARK    5  A    between atoms: C_10  and  C_11
REMARK    6  A    between atoms: N_13  and  C_14
REMARK    7  A    between atoms: C_14  and  C_15
REMARK                            x       y       z     vdW  Elec       q    Type
REMARK                         _______ _______ _______ _____ _____    ______ ____
ROOT
ATOM      1  C   UNL     1      -4.724   4.203  -0.538  0.00  0.00    +0.231 C 
ATOM      2  O   UNL     1      -5.579   3.953   0.284  0.00  0.00    -0.274 OA
ATOM      3  N   UNL     1      -3.699   3.348  -0.725  0.00  0.00    -0.310 N 
ATOM      4  H   UNL     1      -2.922   3.575  -1.471  0.00  0.00    +0.149 HD
ENDROOT
BRANCH   1   5
ATOM      5  C   UNL     1      -4.807   5.469  -1.351  0.00  0.00    +0.202 C 
BRANCH   5  13
ATOM      6  C   UNL     1      -4.852   6.760   1.126  0.00  0.00    +0.028 C 
ATOM      7  C   UNL     1      -5.913   7.204   0.117  0.00  0.00    +0.075 C 
ATOM      8  C   UNL     1      -7.273   7.310   0.816  0.00  0.00    +0.047 C 
ATOM      9  C   UNL     1      -8.337   7.643  -0.235  0.00  0.00    +0.030 C 
ATOM     10  N   UNL     1      -8.296   6.636  -1.296  0.00  0.00    -0.321 N 
ATOM     11  C   UNL     1      -7.158   5.997  -1.608  0.00  0.00    +0.134 C 
ATOM     12  S   UNL     1      -7.182   4.847  -2.876  0.00  0.00    -0.019 S 
ATOM     13  N   UNL     1      -6.003   6.221  -0.963  0.00  0.00    -0.301 N 
ATOM     14  C   UNL     1      -9.720   7.641   0.418  0.00  0.00    +0.031 C 
ATOM     15  C   UNL     1      -8.053   9.024  -0.830  0.00  0.00    +0.031 C 
ATOM     16  H   UNL     1      -9.210   6.389  -1.857  0.00  0.00    +0.148 HD
ENDBRANCH   5  13
ENDBRANCH   1   5
BRANCH   3  17
ATOM     17  C   UNL     1      -3.618   2.117   0.065  0.00  0.00    +0.152 C 
BRANCH  17  18
ATOM     18  C   UNL     1      -2.368   1.333  -0.341  0.00  0.00    +0.228 C 
ATOM     19  C   UNL     1      -2.343  -0.015   0.393  0.00  0.00    +0.275 C 
ATOM     20  O   UNL     1      -1.158  -0.716   0.002  0.00  0.00    -0.485 OA
ATOM     21  C   UNL     1       0.002  -0.004   0.002  0.00  0.00    +0.162 A 
ATOM     22  C   UNL     1       1.215  -0.677  -0.009  0.00  0.00    +0.049 A 
ATOM     23  C   UNL     1       2.401   0.032  -0.015  0.00  0.00    +0.004 A 
ATOM     24  C   UNL     1       2.382   1.414  -0.009  0.00  0.00    +0.004 A 
ATOM     25  C   UNL     1       1.177   2.091   0.002  0.00  0.00    +0.049 A 
ATOM     26  C   UNL     1      -0.017   1.385   0.010  0.00  0.00    +0.163 A 
ATOM     27  O   UNL     1      -1.195   2.066   0.030  0.00  0.00    -0.480 OA
ENDBRANCH  17  18
ENDBRANCH   3  17
TORSDOF 4
