REMARK  Name = ZINC12797513
REMARK  7 active torsions:
REMARK  status: ('A' for Active; 'I' for Inactive)
REMARK    1  A    between atoms: C_1  and  C_2
REMARK    2  A    between atoms: C_2  and  C_4
REMARK    3  A    between atoms: C_2  and  O_19
REMARK    4  A    between atoms: N_6  and  N_7
REMARK    5  A    between atoms: N_7  and  S_8
REMARK    6  A    between atoms: S_8  and  C_11
REMARK    7  A    between atoms: O_19  and  C_20
REMARK                            x       y       z     vdW  Elec       q    Type
REMARK                         _______ _______ _______ _____ _____    ______ ____
ROOT
ATOM      1  C   UNL     1       3.785   5.281   2.190  0.00  0.00    +0.268 C 
ATOM      2  O   UNL     1       3.362   6.381   2.478  0.00  0.00    -0.270 OA
ATOM      3  N   UNL     1       3.000   4.409   1.529  0.00  0.00    -0.229 N 
ATOM      4  H   UNL     1       3.338   3.529   1.299  0.00  0.00    +0.171 HD
ENDROOT
BRANCH   1   6
ATOM      5  C   UNL     1       5.148   3.665   3.486  0.00  0.00    +0.062 C 
ATOM      6  C   UNL     1       5.190   4.891   2.572  0.00  0.00    +0.257 C 
BRANCH   6   7
ATOM      7  O   UNL     1       5.816   5.976   3.258  0.00  0.00    -0.480 OA
BRANCH   7   8
ATOM      8  C   UNL     1       7.170   6.058   3.179  0.00  0.00    +0.122 A 
ATOM      9  C   UNL     1       7.887   5.037   2.547  0.00  0.00    +0.046 A 
ATOM     10  C   UNL     1       9.242   5.090   2.451  0.00  0.00    +0.012 A 
ATOM     11  C   UNL     1       9.937   6.185   2.994  0.00  0.00    -0.018 A 
ATOM     12  C   UNL     1      11.338   6.272   2.913  0.00  0.00    +0.008 A 
ATOM     13  C   UNL     1      11.978   7.347   3.450  0.00  0.00    +0.001 A 
ATOM     14  C   UNL     1      11.266   8.366   4.080  0.00  0.00    +0.001 A 
ATOM     15  C   UNL     1       9.909   8.315   4.178  0.00  0.00    +0.008 A 
ATOM     16  C   UNL     1       9.213   7.221   3.636  0.00  0.00    -0.014 A 
ATOM     17  C   UNL     1       7.813   7.138   3.712  0.00  0.00    +0.054 A 
ENDBRANCH   7   8
ENDBRANCH   6   7
ENDBRANCH   1   6
BRANCH   3  18
ATOM     18  N   UNL     1       1.694   4.771   1.174  0.00  0.00    -0.108 NA
ATOM     19  H   UNL     1       1.072   5.074   1.855  0.00  0.00    +0.172 HD
BRANCH  18  20
ATOM     20  S   UNL     1       1.211   4.685  -0.408  0.00  0.00    +0.075 S 
ATOM     21  O   UNL     1       2.078   5.537  -1.144  0.00  0.00    -0.152 OA
ATOM     22  O   UNL     1      -0.200   4.848  -0.411  0.00  0.00    -0.152 OA
BRANCH  20  23
ATOM     23  C   UNL     1       1.530   3.042  -0.961  0.00  0.00    +0.126 A 
ATOM     24  C   UNL     1       2.447   2.819  -1.971  0.00  0.00    +0.030 A 
ATOM     25  C   UNL     1       2.698   1.531  -2.405  0.00  0.00    +0.003 A 
ATOM     26  C   UNL     1       2.033   0.465  -1.829  0.00  0.00    +0.021 A 
ATOM     27  C   UNL     1       1.116   0.686  -0.818  0.00  0.00    +0.061 A 
ATOM     28  C   UNL     1       0.864   1.977  -0.383  0.00  0.00    +0.086 A 
ATOM     29 CL   UNL     1      -0.287   2.257   0.886  0.00  0.00    -0.080 Cl
ATOM     30 CL   UNL     1       0.281  -0.652  -0.094  0.00  0.00    -0.082 Cl
ENDBRANCH  20  23
ENDBRANCH  18  20
ENDBRANCH   3  18
TORSDOF 6
