REMARK  Name = ZINC04294721
REMARK  5 active torsions:
REMARK  status: ('A' for Active; 'I' for Inactive)
REMARK    1  A    between atoms: C_1  and  C_2
REMARK    2  A    between atoms: C_2  and  C_3
REMARK    3  A    between atoms: C_6  and  C_9
REMARK    4  A    between atoms: C_17  and  C_22
REMARK    5  A    between atoms: C_19  and  C_21
REMARK                            x       y       z     vdW  Elec       q    Type
REMARK                         _______ _______ _______ _____ _____    ______ ____
ROOT
ATOM      1  C   UNL     1      -0.781   7.227   0.045  0.00  0.00    +0.156 A 
ATOM      2  C   UNL     1      -1.195   5.953   0.037  0.00  0.00    +0.146 A 
ATOM      3  N   UNL     1      -0.068   5.142   0.029  0.00  0.00    -0.236 N 
ATOM      4  C   UNL     1       1.027   5.975   0.021  0.00  0.00    +0.303 A 
ATOM      5  N   UNL     1       2.277   5.603   0.007  0.00  0.00    -0.250 NA
ATOM      6  O   UNL     1       0.575   7.245   0.032  0.00  0.00    -0.423 OA
ATOM      7  C   UNL     1      -0.049   3.752   0.022  0.00  0.00    +0.239 A 
ATOM      8  N   UNL     1       1.116   3.122   0.008  0.00  0.00    -0.217 NA
ATOM      9  C   UNL     1       1.169   1.800   0.001  0.00  0.00    +0.044 A 
ATOM     10  C   UNL     1      -0.013   1.076   0.008  0.00  0.00    +0.046 A 
ATOM     11  C   UNL     1      -1.214   1.768   0.017  0.00  0.00    +0.044 A 
ATOM     12  N   UNL     1      -1.196   3.090   0.029  0.00  0.00    -0.217 NA
ATOM     13  C   UNL     1      -2.523   1.023   0.020  0.00  0.00    +0.066 C 
ATOM     14  C   UNL     1       2.499   1.091  -0.015  0.00  0.00    +0.066 C 
ATOM     15  H   UNL     1       2.982   6.270   0.003  0.00  0.00    +0.191 HD
ENDROOT
BRANCH   1  19
ATOM     16  C   UNL     1      -3.300  10.646   0.083  0.00  0.00    -0.048 A 
ATOM     17  C   UNL     1      -1.925  10.804   0.071  0.00  0.00    +0.004 A 
ATOM     18  C   UNL     1      -1.101   9.697   0.059  0.00  0.00    +0.012 A 
ATOM     19  C   UNL     1      -1.658   8.417   0.059  0.00  0.00    +0.019 A 
ATOM     20  C   UNL     1      -3.045   8.265   0.066  0.00  0.00    +0.012 A 
ATOM     21  C   UNL     1      -3.858   9.380   0.082  0.00  0.00    +0.004 A 
BRANCH  16  23
ATOM     22  C   UNL     1      -4.509  12.276  -1.342  0.00  0.00    +0.009 C 
ATOM     23  C   UNL     1      -4.194  11.860   0.096  0.00  0.00    +0.032 C 
ENDBRANCH  16  23
ENDBRANCH   1  19
TORSDOF 2
