REMARK  Name = ZINC40174604
REMARK  14 active torsions:
REMARK  status: ('A' for Active; 'I' for Inactive)
REMARK    1  A    between atoms: C_1  and  C_2
REMARK    2  A    between atoms: C_2  and  C_3
REMARK    3  A    between atoms: C_3  and  C_5
REMARK    4  A    between atoms: C_3  and  N_23
REMARK    5  A    between atoms: N_7  and  C_8
REMARK    6  A    between atoms: C_9  and  C_20
REMARK    7  A    between atoms: C_10  and  C_13
REMARK    8  A    between atoms: C_16  and  C_19
REMARK    9  A    between atoms: C_27  and  S_28
REMARK   10  A    between atoms: S_28  and  C_29
REMARK   11  A    between atoms: C_29  and  C_30
REMARK   12  A    between atoms: C_30  and  O_32
REMARK   13  A    between atoms: O_32  and  C_33
REMARK   14  A    between atoms: C_33  and  C_34
REMARK                            x       y       z     vdW  Elec       q    Type
REMARK                         _______ _______ _______ _____ _____    ______ ____
ROOT
ATOM      1  C   UNL     1       0.632  -2.000  -1.327  0.00  0.00    +0.241 C 
ATOM      2  O   UNL     1       1.645  -2.666  -1.337  0.00  0.00    -0.273 OA
ATOM      3  N   UNL     1      -0.572  -2.604  -1.380  0.00  0.00    -0.278 N 
ATOM      4  H   UNL     1      -1.383  -2.072  -1.372  0.00  0.00    +0.155 HD
ENDROOT
BRANCH   3   5
ATOM      5  C   UNL     1      -0.652  -3.987  -1.445  0.00  0.00    +0.085 A 
ATOM      6  C   UNL     1      -1.793  -4.769  -1.510  0.00  0.00    +0.073 A 
ATOM      7  C   UNL     1      -1.593  -6.206  -1.571  0.00  0.00    +0.003 A 
ATOM      8  C   UNL     1      -0.298  -6.615  -1.557  0.00  0.00    +0.056 A 
ATOM      9  S   UNL     1       0.612  -5.089  -1.470  0.00  0.00    -0.081 S 
BRANCH   7  10
ATOM     10  C   UNL     1      -2.725  -7.160  -1.643  0.00  0.00    -0.017 A 
ATOM     11  C   UNL     1      -3.785  -7.058  -0.743  0.00  0.00    +0.009 A 
ATOM     12  C   UNL     1      -4.836  -7.949  -0.816  0.00  0.00    +0.004 A 
ATOM     13  C   UNL     1      -4.839  -8.943  -1.778  0.00  0.00    -0.050 A 
ATOM     14  C   UNL     1      -3.790  -9.050  -2.673  0.00  0.00    +0.004 A 
ATOM     15  C   UNL     1      -2.736  -8.161  -2.614  0.00  0.00    +0.009 A 
ATOM     16  C   UNL     1      -5.989  -9.914  -1.851  0.00  0.00    +0.044 C 
ENDBRANCH   7  10
BRANCH   6  17
ATOM     17  C   UNL     1      -3.133  -4.177  -1.516  0.00  0.00    +0.244 C 
ATOM     18  O   UNL     1      -3.663  -3.883  -2.572  0.00  0.00    -0.270 OA
ATOM     19  N   UNL     1      -3.778  -3.958  -0.353  0.00  0.00    -0.325 N 
ATOM     20  H   UNL     1      -3.356  -4.192   0.487  0.00  0.00    +0.145 HD
ATOM     21  H   UNL     1      -4.665  -3.566  -0.358  0.00  0.00    +0.145 HD
ENDBRANCH   6  17
ENDBRANCH   3   5
BRANCH   1  22
ATOM     22  C   UNL     1       0.718  -0.497  -1.257  0.00  0.00    +0.178 C 
BRANCH  22  23
ATOM     23  N   UNL     1       2.125  -0.091  -1.209  0.00  0.00    -0.279 N 
ATOM     24  C   UNL     1       3.032  -0.447  -0.252  0.00  0.00    +0.216 A 
ATOM     25  N   UNL     1       4.179   0.110  -0.553  0.00  0.00    -0.113 NA
ATOM     26  N   UNL     1       4.008   0.843  -1.734  0.00  0.00    -0.121 NA
ATOM     27  C   UNL     1       2.762   0.706  -2.119  0.00  0.00    +0.194 A 
ATOM     28  N   UNL     1       2.781  -1.258   0.848  0.00  0.00    -0.328 N 
ATOM     29  H   UNL     1       1.895  -1.626   0.988  0.00  0.00    +0.145 HD
ATOM     30  H   UNL     1       3.493  -1.455   1.477  0.00  0.00    +0.145 HD
BRANCH  27  31
ATOM     31  S   UNL     1       2.035   1.426  -3.553  0.00  0.00    -0.075 S 
BRANCH  31  32
ATOM     32  C   UNL     1       3.396   2.352  -4.316  0.00  0.00    +0.197 C 
BRANCH  32  33
ATOM     33  C   UNL     1       2.903   3.026  -5.571  0.00  0.00    +0.317 C 
ATOM     34  O   UNL     1       1.752   2.895  -5.915  0.00  0.00    -0.250 OA
BRANCH  33  35
ATOM     35  O   UNL     1       3.743   3.772  -6.306  0.00  0.00    -0.464 OA
BRANCH  35  36
ATOM     36  C   UNL     1       3.208   4.381  -7.483  0.00  0.00    +0.229 C 
ATOM     37  C   UNL     1       4.305   5.185  -8.185  0.00  0.00    +0.048 C 
ENDBRANCH  35  36
ENDBRANCH  33  35
ENDBRANCH  32  33
ENDBRANCH  31  32
ENDBRANCH  27  31
ENDBRANCH  22  23
BRANCH  22  39
ATOM     38  C   UNL     1      -0.019   1.526   0.010  0.00  0.00    +0.006 C 
ATOM     39  C   UNL     1       0.002  -0.004   0.002  0.00  0.00    +0.031 C 
ENDBRANCH  22  39
ENDBRANCH   1  22
TORSDOF 11
