REMARK  Name = ZINC12872512
REMARK  8 active torsions:
REMARK  status: ('A' for Active; 'I' for Inactive)
REMARK    1  A    between atoms: C_1  and  C_2
REMARK    2  A    between atoms: C_2  and  C_3
REMARK    3  A    between atoms: C_3  and  C_4
REMARK    4  A    between atoms: C_4  and  C_5
REMARK    5  A    between atoms: C_8  and  N_11
REMARK    6  A    between atoms: C_16  and  C_34
REMARK    7  A    between atoms: C_25  and  C_33
REMARK    8  A    between atoms: C_34  and  C_35
REMARK                            x       y       z     vdW  Elec       q    Type
REMARK                         _______ _______ _______ _____ _____    ______ ____
ROOT
ATOM      1  N   UNL     1       0.033  -2.410  -2.281  0.00  0.00    -0.210 N 
ATOM      2  C   UNL     1       0.718  -3.379  -1.663  0.00  0.00    +0.228 C 
ATOM      3  O   UNL     1       0.479  -4.565  -1.743  0.00  0.00    -0.275 OA
ATOM      4  C   UNL     1       1.834  -2.766  -0.849  0.00  0.00    +0.074 C 
ATOM      5  C   UNL     1       1.521  -2.940   0.653  0.00  0.00    -0.049 C 
ATOM      6  C   UNL     1       1.306  -0.649   0.251  0.00  0.00    +0.050 C 
ATOM      7  C   UNL     1       1.675  -1.242  -1.114  0.00  0.00    +0.088 C 
ATOM      8  C   UNL     1       0.484  -1.173  -2.042  0.00  0.00    +0.229 C 
ATOM      9  O   UNL     1       0.010  -0.154  -2.498  0.00  0.00    -0.275 OA
ATOM     10  C   UNL     1       1.915   0.711   0.444  0.00  0.00    -0.026 A 
ATOM     11  C   UNL     1       3.211   1.177   0.445  0.00  0.00    +0.008 A 
ATOM     12  C   UNL     1       3.463   2.522   0.655  0.00  0.00    -0.049 A 
ATOM     13  C   UNL     1       2.412   3.394   0.867  0.00  0.00    +0.025 A 
ATOM     14  C   UNL     1       1.111   2.932   0.868  0.00  0.00    +0.063 A 
ATOM     15  C   UNL     1       0.849   1.579   0.655  0.00  0.00    +0.054 A 
ATOM     16  N   UNL     1      -0.360   0.880   0.609  0.00  0.00    -0.285 N 
ATOM     17  C   UNL     1      -0.178  -0.434   0.375  0.00  0.00    +0.211 C 
ATOM     18  O   UNL     1      -1.042  -1.280   0.282  0.00  0.00    -0.277 OA
ATOM     19 CL   UNL     1      -0.201   4.037   1.135  0.00  0.00    -0.082 Cl
ATOM     20  C   UNL     1       4.881   3.033   0.655  0.00  0.00    +0.044 C 
ATOM     21  H   UNL     1      -1.229   1.293   0.729  0.00  0.00    +0.155 HD
ATOM     22  N   UNL     1       1.780  -1.617   1.224  0.00  0.00    +0.394 N 
ATOM     23  H   UNL     1       2.786  -1.492   1.388  0.00  0.00    -0.083 HD
ATOM     24  H   UNL     1       1.273  -1.507   2.110  0.00  0.00    -0.083 HD
ENDROOT
BRANCH   1  28
ATOM     25  C   UNL     1      -3.237  -3.179  -4.749  0.00  0.00    -0.047 A 
ATOM     26  C   UNL     1      -3.323  -3.429  -3.392  0.00  0.00    +0.005 A 
ATOM     27  C   UNL     1      -2.241  -3.175  -2.572  0.00  0.00    +0.024 A 
ATOM     28  C   UNL     1      -1.066  -2.669  -3.111  0.00  0.00    +0.044 A 
ATOM     29  C   UNL     1      -0.985  -2.414  -4.473  0.00  0.00    +0.024 A 
ATOM     30  C   UNL     1      -2.068  -2.675  -5.290  0.00  0.00    +0.005 A 
BRANCH  25  31
ATOM     31  C   UNL     1      -4.419  -3.458  -5.642  0.00  0.00    +0.035 C 
BRANCH  31  32
ATOM     32  C   UNL     1      -5.299  -2.209  -5.727  0.00  0.00    +0.004 C 
BRANCH  32  34
ATOM     33  C   UNL     1      -7.379  -1.243  -6.718  0.00  0.00    +0.004 C 
ATOM     34  C   UNL     1      -6.499  -2.492  -6.633  0.00  0.00    -0.003 C 
ENDBRANCH  32  34
ENDBRANCH  31  32
ENDBRANCH  25  31
ENDBRANCH   1  28
BRANCH   5  35
ATOM     35  C   UNL     1       2.435  -4.003   1.267  0.00  0.00    +0.080 C 
BRANCH  35  36
ATOM     36  C   UNL     1       2.032  -4.245   2.699  0.00  0.00    +0.209 C 
ATOM     37  O   UNL     1       1.105  -3.628   3.180  0.00  0.00    -0.276 OA
ATOM     38  N   UNL     1       2.701  -5.146   3.444  0.00  0.00    -0.329 N 
ATOM     39  H   UNL     1       3.442  -5.639   3.059  0.00  0.00    +0.145 HD
ATOM     40  H   UNL     1       2.442  -5.302   4.366  0.00  0.00    +0.145 HD
ENDBRANCH  35  36
ENDBRANCH   5  35
TORSDOF 6
