REMARK  Name = ZINC06078689
REMARK  8 active torsions:
REMARK  status: ('A' for Active; 'I' for Inactive)
REMARK    1  A    between atoms: C_1  and  C_2
REMARK    2  A    between atoms: C_5  and  C_28
REMARK    3  A    between atoms: C_6  and  N_8
REMARK    4  A    between atoms: C_9  and  C_11
REMARK    5  A    between atoms: C_11  and  N_12
REMARK    6  A    between atoms: C_17  and  C_24
REMARK    7  A    between atoms: C_20  and  C_22
REMARK    8  A    between atoms: C_20  and  C_23
REMARK                            x       y       z     vdW  Elec       q    Type
REMARK                         _______ _______ _______ _____ _____    ______ ____
ROOT
ATOM      1  N   UNL     1       0.821  -0.121   0.312  0.00  0.00    -0.215 N 
ATOM      2  C   UNL     1      -0.305  -0.710  -0.140  0.00  0.00    +0.247 C 
ATOM      3  O   UNL     1      -1.315  -0.162  -0.528  0.00  0.00    -0.273 OA
ATOM      4  C   UNL     1      -0.044  -2.196  -0.060  0.00  0.00    +0.113 C 
ATOM      5  C   UNL     1      -1.037  -2.860   0.887  0.00  0.00    +0.038 C 
ATOM      6  C   UNL     1      -0.738  -4.359   0.976  0.00  0.00    -0.011 C 
ATOM      7  C   UNL     1      -0.843  -4.982  -0.417  0.00  0.00    +0.009 C 
ATOM      8  C   UNL     1       0.176  -4.323  -1.350  0.00  0.00    -0.032 C 
ATOM      9  C   UNL     1      -0.119  -2.824  -1.448  0.00  0.00    +0.041 C 
ATOM     10  C   UNL     1       0.079  -4.955  -2.740  0.00  0.00    +0.011 C 
ATOM     11  C   UNL     1       1.586  -4.530  -0.793  0.00  0.00    +0.011 C 
ATOM     12  C   UNL     1      -1.749  -5.026   1.911  0.00  0.00    +0.007 C 
ATOM     13  N   UNL     1       1.320  -2.290   0.474  0.00  0.00    -0.285 N 
ATOM     14  C   UNL     1       1.746  -1.026   0.656  0.00  0.00    +0.310 C 
ATOM     15  O   UNL     1       2.846  -0.738   1.087  0.00  0.00    -0.252 OA
ATOM     16  H   UNL     1       1.818  -3.103   0.657  0.00  0.00    +0.151 HD
ENDROOT
BRANCH   1  17
ATOM     17  C   UNL     1       1.011   1.328   0.408  0.00  0.00    +0.214 C 
BRANCH  17  19
ATOM     18  N   UNL     1       0.638   3.113   2.079  0.00  0.00    -0.284 N 
ATOM     19  C   UNL     1       0.556   1.806   1.763  0.00  0.00    +0.235 C 
ATOM     20  O   UNL     1       0.117   1.013   2.569  0.00  0.00    -0.274 OA
ATOM     21  H   UNL     1       0.938   3.755   1.416  0.00  0.00    +0.155 HD
BRANCH  18  27
ATOM     22  C   UNL     1      -1.907   2.430   6.230  0.00  0.00    +0.044 C 
ATOM     23  C   UNL     1      -0.941   3.234   5.397  0.00  0.00    -0.049 A 
ATOM     24  C   UNL     1      -0.397   4.400   5.904  0.00  0.00    +0.004 A 
ATOM     25  C   UNL     1       0.490   5.140   5.144  0.00  0.00    +0.005 A 
ATOM     26  C   UNL     1       0.835   4.716   3.875  0.00  0.00    -0.029 A 
ATOM     27  C   UNL     1       0.290   3.546   3.364  0.00  0.00    +0.037 A 
ATOM     28  C   UNL     1      -0.605   2.808   4.127  0.00  0.00    +0.027 A 
ATOM     29  C   UNL     1       1.803   5.522   3.048  0.00  0.00    +0.045 C 
ENDBRANCH  18  27
ENDBRANCH  17  19
ENDBRANCH   1  17
TORSDOF 3
