REMARK  Name = ZINC02587029
REMARK  2 active torsions:
REMARK  status: ('A' for Active; 'I' for Inactive)
REMARK    1  A    between atoms: C_6  and  C_7
REMARK    2  A    between atoms: C_20  and  C_22
REMARK                            x       y       z     vdW  Elec       q    Type
REMARK                         _______ _______ _______ _____ _____    ______ ____
ROOT
ATOM      1  C   UNL     1      -1.262  -0.761   0.011  0.00  0.00    +0.013 C 
ATOM      2  C   UNL     1      -1.244  -2.100  -0.098  0.00  0.00    -0.023 C 
ATOM      3  C   UNL     1       0.063  -2.864  -0.112  0.00  0.00    +0.037 C 
ATOM      4  C   UNL     1      -0.052  -3.944  -1.196  0.00  0.00    +0.009 C 
ATOM      5  C   UNL     1      -1.176  -4.907  -0.820  0.00  0.00    +0.035 C 
ATOM      6  C   UNL     1      -2.457  -4.176  -0.550  0.00  0.00    -0.020 C 
ATOM      7  C   UNL     1      -2.502  -2.875  -0.203  0.00  0.00    +0.046 C 
ATOM      8  N   UNL     1      -3.683  -2.246   0.053  0.00  0.00    -0.326 N 
ATOM      9  C   UNL     1      -4.861  -2.817  -0.011  0.00  0.00    +0.215 C 
ATOM     10  N   UNL     1      -6.108  -2.346   0.208  0.00  0.00    -0.206 NA
ATOM     11  C   UNL     1      -6.989  -3.291   0.022  0.00  0.00    +0.203 C 
ATOM     12  N   UNL     1      -6.353  -4.442  -0.333  0.00  0.00    -0.251 N 
ATOM     13  N   UNL     1      -4.987  -4.148  -0.355  0.00  0.00    -0.210 N 
ATOM     14  C   UNL     1      -3.776  -4.921  -0.661  0.00  0.00    +0.155 C 
ATOM     15  H   UNL     1      -6.767  -5.296  -0.530  0.00  0.00    +0.171 HD
ATOM     16  H   UNL     1      -3.651  -1.308   0.299  0.00  0.00    +0.169 HD
ENDROOT
BRANCH   1  22
ATOM     17  C   UNL     1       0.178   1.252  -0.245  0.00  0.00    +0.009 A 
ATOM     18  C   UNL     1       1.349   1.933   0.016  0.00  0.00    +0.020 A 
ATOM     19  C   UNL     1       2.332   1.353   0.800  0.00  0.00    +0.041 A 
ATOM     20  C   UNL     1       2.147   0.086   1.328  0.00  0.00    +0.020 A 
ATOM     21  C   UNL     1       0.982  -0.607   1.075  0.00  0.00    +0.009 A 
ATOM     22  C   UNL     1      -0.014  -0.027   0.285  0.00  0.00    -0.025 A 
ATOM     23 CL   UNL     1       3.801   2.218   1.124  0.00  0.00    -0.084 Cl
ENDBRANCH   1  22
BRANCH  14  24
ATOM     24  C   UNL     1      -3.733  -6.093   0.286  0.00  0.00    -0.021 A 
ATOM     25  C   UNL     1      -3.979  -5.902   1.633  0.00  0.00    +0.007 A 
ATOM     26  C   UNL     1      -3.939  -6.976   2.502  0.00  0.00    +0.020 A 
ATOM     27  C   UNL     1      -3.653  -8.242   2.024  0.00  0.00    +0.041 A 
ATOM     28  C   UNL     1      -3.406  -8.432   0.676  0.00  0.00    +0.020 A 
ATOM     29  C   UNL     1      -3.452  -7.359  -0.193  0.00  0.00    +0.007 A 
ATOM     30 CL   UNL     1      -3.602  -9.591   3.115  0.00  0.00    -0.084 Cl
ENDBRANCH  14  24
TORSDOF 2
