REMARK  Name = ZINC04236617
REMARK  12 active torsions:
REMARK  status: ('A' for Active; 'I' for Inactive)
REMARK    1  A    between atoms: C_1  and  C_2
REMARK    2  A    between atoms: C_2  and  C_3
REMARK    3  A    between atoms: C_2  and  N_4
REMARK    4  A    between atoms: C_5  and  O_7
REMARK    5  A    between atoms: O_7  and  C_8
REMARK    6  A    between atoms: C_12  and  C_35
REMARK    7  A    between atoms: C_15  and  C_16
REMARK    8  A    between atoms: C_15  and  C_17
REMARK    9  A    between atoms: C_17  and  O_18
REMARK   10  A    between atoms: C_21  and  O_34
REMARK   11  A    between atoms: C_23  and  C_25
REMARK   12  A    between atoms: C_25  and  C_26
REMARK                            x       y       z     vdW  Elec       q    Type
REMARK                         _______ _______ _______ _____ _____    ______ ____
ROOT
ATOM      1  C   UNL     1       0.265  -0.043  -0.171  0.00  0.00    +0.186 C 
ATOM      2  C   UNL     1       0.197   1.485  -0.135  0.00  0.00    +0.046 C 
ATOM      3  C   UNL     1       1.616   2.058  -0.118  0.00  0.00    +0.011 C 
ATOM      4  C   UNL     1       2.362   1.610  -1.376  0.00  0.00    -0.023 C 
ATOM      5  C   UNL     1       2.430   0.082  -1.412  0.00  0.00    +0.007 C 
ATOM      6  C   UNL     1       1.011  -0.491  -1.429  0.00  0.00    +0.031 C 
ATOM      7  C   UNL     1       1.079  -2.019  -1.465  0.00  0.00    +0.017 C 
ATOM      8  C   UNL     1       3.176  -0.366  -2.670  0.00  0.00    +0.007 C 
ATOM      9  C   UNL     1       4.595   0.207  -2.653  0.00  0.00    +0.032 C 
ATOM     10  C   UNL     1       4.527   1.736  -2.617  0.00  0.00    +0.119 C 
ATOM     11  C   UNL     1       3.780   2.183  -1.359  0.00  0.00    +0.032 C 
ATOM     12  C   UNL     1       1.622   2.117  -2.616  0.00  0.00    +0.012 C 
ENDROOT
BRANCH  10  13
ATOM     13  O   UNL     1       3.836   2.209  -3.775  0.00  0.00    -0.391 OA
ATOM     14  H   UNL     1       4.253   1.961  -4.611  0.00  0.00    +0.210 HD
ENDBRANCH  10  13
BRANCH   1  15
ATOM     15  O   UNL     1      -1.081  -0.587  -0.187  0.00  0.00    -0.446 OA
BRANCH  15  17
ATOM     16  N   UNL     1      -2.899  -1.350   1.061  0.00  0.00    -0.279 N 
ATOM     17  C   UNL     1      -1.651  -0.844   1.005  0.00  0.00    +0.401 C 
ATOM     18  O   UNL     1      -1.040  -0.620   2.032  0.00  0.00    -0.226 OA
ATOM     19  H   UNL     1      -3.386  -1.529   0.242  0.00  0.00    +0.152 HD
BRANCH  16  21
ATOM     20  C   UNL     1      -4.169  -0.355   2.898  0.00  0.00    +0.027 C 
ATOM     21  C   UNL     1      -3.519  -1.630   2.358  0.00  0.00    +0.070 C 
ATOM     22  C   UNL     1      -4.584  -2.715   2.191  0.00  0.00    +0.027 C 
ENDBRANCH  16  21
ENDBRANCH  15  17
ENDBRANCH   1  15
BRANCH   6  23
ATOM     23  C   UNL     1       0.271   0.016  -2.669  0.00  0.00    +0.166 C 
BRANCH  23  24
ATOM     24  O   UNL     1      -0.977  -0.669  -2.791  0.00  0.00    -0.394 OA
ATOM     25  H   UNL     1      -1.501  -0.397  -3.557  0.00  0.00    +0.209 HD
ENDBRANCH  23  24
ENDBRANCH   6  23
BRANCH  11  26
ATOM     26  C   UNL     1       3.713   3.712  -1.323  0.00  0.00    +0.102 C 
BRANCH  26  27
ATOM     27  C   UNL     1       5.104   4.273  -1.183  0.00  0.00    +0.216 C 
ATOM     28  O   UNL     1       6.056   3.525  -1.118  0.00  0.00    -0.276 OA
ATOM     29  N   UNL     1       5.290   5.607  -1.129  0.00  0.00    -0.301 N 
ATOM     30  C   UNL     1       4.147   6.526  -1.213  0.00  0.00    +0.108 C 
ATOM     31  C   UNL     1       4.193   7.474  -0.005  0.00  0.00    +0.019 C 
ATOM     32  C   UNL     1       5.556   8.169   0.040  0.00  0.00    +0.003 C 
ATOM     33  C   UNL     1       6.659   7.121   0.208  0.00  0.00    +0.019 C 
ATOM     34  C   UNL     1       6.641   6.169  -0.993  0.00  0.00    +0.108 C 
ENDBRANCH  26  27
ENDBRANCH  11  26
TORSDOF 8
