REMARK  Name = ZINC09410810
REMARK  7 active torsions:
REMARK  status: ('A' for Active; 'I' for Inactive)
REMARK    1  A    between atoms: C_1  and  C_2
REMARK    2  A    between atoms: C_5  and  C_9
REMARK    3  A    between atoms: C_7  and  C_8
REMARK    4  A    between atoms: N_11  and  C_12
REMARK    5  A    between atoms: C_12  and  C_14
REMARK    6  A    between atoms: C_12  and  C_21
REMARK    7  A    between atoms: C_14  and  C_15
REMARK                            x       y       z     vdW  Elec       q    Type
REMARK                         _______ _______ _______ _____ _____    ______ ____
ROOT
ATOM      1  C   UNL     1      -2.505  -2.869   0.025  0.00  0.00    +0.164 C 
ENDROOT
BRANCH   1   2
ATOM      2  C   UNL     1      -2.450  -4.293   0.513  0.00  0.00    +0.236 C 
ATOM      3  O   UNL     1      -1.382  -4.804   0.776  0.00  0.00    -0.274 OA
ATOM      4  N   UNL     1      -3.589  -5.000   0.656  0.00  0.00    -0.300 N 
ATOM      5  C   UNL     1      -4.878  -4.436   0.234  0.00  0.00    +0.107 C 
ATOM      6  C   UNL     1      -5.859  -4.506   1.403  0.00  0.00    +0.013 C 
ATOM      7  C   UNL     1      -5.937  -5.944   1.916  0.00  0.00    -0.020 C 
ATOM      8  C   UNL     1      -4.561  -6.394   2.408  0.00  0.00    +0.013 C 
ATOM      9  C   UNL     1      -3.565  -6.346   1.245  0.00  0.00    +0.107 C 
ATOM     10  C   UNL     1      -6.933  -6.026   3.044  0.00  0.00    +0.051 A 
ATOM     11  C   UNL     1      -8.179  -6.532   2.897  0.00  0.00    +0.035 A 
ATOM     12  N   UNL     1      -8.790  -6.450   4.107  0.00  0.00    -0.348 N 
ATOM     13  H   UNL     1      -9.721  -6.745   4.325  0.00  0.00    +0.166 HD
ATOM     14  C   UNL     1      -7.900  -5.895   4.963  0.00  0.00    +0.196 A 
ATOM     15  N   UNL     1      -6.792  -5.645   4.315  0.00  0.00    -0.242 NA
ATOM     16  C   UNL     1      -8.710  -7.065   1.592  0.00  0.00    +0.036 C 
ATOM     17  C   UNL     1      -7.787  -6.571   0.469  0.00  0.00    -0.075 C 
ATOM     18  N   UNL     1      -6.379  -6.841   0.825  0.00  0.00    +0.387 N 
ATOM     19  H   UNL     1      -6.289  -7.816   1.132  0.00  0.00    -0.085 HD
ATOM     20  H   UNL     1      -5.787  -6.686   0.000  0.00  0.00    -0.085 HD
ENDBRANCH   1   2
BRANCH   1  23
ATOM     21  C   UNL     1      -1.155  -0.877   0.410  0.00  0.00    +0.245 C 
ATOM     22  O   UNL     1      -2.166  -0.209   0.319  0.00  0.00    -0.270 OA
ATOM     23  N   UNL     1      -1.217  -2.217   0.278  0.00  0.00    -0.300 N 
ATOM     24  H   UNL     1      -0.410  -2.749   0.350  0.00  0.00    +0.150 HD
BRANCH  21  29
ATOM     25  C   UNL     1       3.903   1.684   1.402  0.00  0.00    +0.044 C 
ATOM     26  C   UNL     1       2.578   1.013   1.142  0.00  0.00    -0.047 A 
ATOM     27  C   UNL     1       2.518  -0.363   1.007  0.00  0.00    +0.004 A 
ATOM     28  C   UNL     1       1.309  -0.983   0.769  0.00  0.00    +0.013 A 
ATOM     29  C   UNL     1       0.145  -0.219   0.665  0.00  0.00    +0.037 A 
ATOM     30  C   UNL     1       0.213   1.168   0.802  0.00  0.00    +0.016 A 
ATOM     31  C   UNL     1       1.429   1.776   1.040  0.00  0.00    -0.047 A 
ATOM     32  C   UNL     1       1.504   3.273   1.188  0.00  0.00    +0.044 C 
ENDBRANCH  21  29
ENDBRANCH   1  23
BRANCH   1  33
ATOM     33  C   UNL     1      -2.797  -2.854  -1.476  0.00  0.00    +0.067 C 
BRANCH  33  34
ATOM     34  C   UNL     1      -2.982  -1.431  -1.938  0.00  0.00    -0.045 A 
ATOM     35  C   UNL     1      -4.240  -0.859  -1.928  0.00  0.00    +0.004 A 
ATOM     36  C   UNL     1      -4.409   0.448  -2.347  0.00  0.00    +0.000 A 
ATOM     37  C   UNL     1      -3.321   1.178  -2.787  0.00  0.00    +0.000 A 
ATOM     38  C   UNL     1      -2.063   0.604  -2.802  0.00  0.00    +0.000 A 
ATOM     39  C   UNL     1      -1.894  -0.701  -2.378  0.00  0.00    +0.004 A 
ENDBRANCH  33  34
ENDBRANCH   1  33
TORSDOF 5
