REMARK  Name = ZINC02087801
REMARK  5 active torsions:
REMARK  status: ('A' for Active; 'I' for Inactive)
REMARK    1  A    between atoms: C_1  and  C_2
REMARK    2  A    between atoms: C_2  and  C_35
REMARK    3  A    between atoms: N_20  and  C_23
REMARK    4  A    between atoms: C_23  and  C_24
REMARK    5  A    between atoms: C_24  and  C_25
REMARK                            x       y       z     vdW  Elec       q    Type
REMARK                         _______ _______ _______ _____ _____    ______ ____
ROOT
ATOM      1  C   UNL     1       4.895   0.283  -0.015  0.00  0.00    +0.038 C 
ATOM      2  C   UNL     1       3.748  -0.690  -0.295  0.00  0.00    +0.073 C 
ATOM      3  C   UNL     1       3.839  -1.875   0.639  0.00  0.00    +0.044 A 
ATOM      4  C   UNL     1       2.792  -2.345   1.351  0.00  0.00    -0.015 A 
ATOM      5  C   UNL     1       3.273  -3.480   2.112  0.00  0.00    +0.003 A 
ATOM      6  C   UNL     1       2.649  -4.353   3.009  0.00  0.00    +0.010 A 
ATOM      7  C   UNL     1       3.430  -5.339   3.560  0.00  0.00    +0.001 A 
ATOM      8  C   UNL     1       4.773  -5.474   3.249  0.00  0.00    +0.002 A 
ATOM      9  C   UNL     1       5.415  -4.626   2.364  0.00  0.00    +0.026 A 
ATOM     10  C   UNL     1       4.647  -3.615   1.789  0.00  0.00    +0.047 A 
ATOM     11  N   UNL     1       4.953  -2.628   0.896  0.00  0.00    -0.356 N 
ATOM     12  H   UNL     1       5.828  -2.483   0.503  0.00  0.00    +0.166 HD
ATOM     13  C   UNL     1       1.403  -1.760   1.323  0.00  0.00    +0.069 C 
ATOM     14  C   UNL     1       1.264  -0.870   0.080  0.00  0.00    +0.167 C 
ATOM     15  N   UNL     1       2.453  -0.025  -0.023  0.00  0.00    -0.278 N 
ATOM     16  C   UNL     1       2.417   1.304   0.094  0.00  0.00    +0.234 C 
ATOM     17  O   UNL     1       3.471   1.903   0.060  0.00  0.00    -0.274 OA
ATOM     18  C   UNL     1       1.165   2.105   0.231  0.00  0.00    +0.203 C 
ATOM     19  N   UNL     1      -0.022   1.266   0.246  0.00  0.00    -0.291 N 
ATOM     20  C   UNL     1       0.010  -0.064   0.177  0.00  0.00    +0.237 C 
ATOM     21  O   UNL     1      -1.047  -0.658   0.194  0.00  0.00    -0.274 OA
ATOM     22  C   UNL     1       3.812  -1.167  -1.748  0.00  0.00    +0.038 C 
ENDROOT
BRANCH  19  23
ATOM     23  C   UNL     1      -1.329   1.921   0.337  0.00  0.00    +0.113 C 
BRANCH  23  24
ATOM     24  C   UNL     1      -1.721   2.076   1.808  0.00  0.00    +0.056 C 
BRANCH  24  25
ATOM     25  C   UNL     1      -3.065   2.750   1.901  0.00  0.00    -0.021 A 
ATOM     26  C   UNL     1      -3.290   4.063   2.071  0.00  0.00    +0.087 A 
ATOM     27  N   UNL     1      -4.637   4.304   2.108  0.00  0.00    -0.360 N 
ATOM     28  H   UNL     1      -5.043   5.178   2.223  0.00  0.00    +0.165 HD
ATOM     29  C   UNL     1      -5.329   3.123   1.959  0.00  0.00    +0.047 A 
ATOM     30  C   UNL     1      -4.375   2.099   1.816  0.00  0.00    +0.003 A 
ATOM     31  C   UNL     1      -4.792   0.777   1.653  0.00  0.00    +0.010 A 
ATOM     32  C   UNL     1      -6.127   0.486   1.620  0.00  0.00    +0.001 A 
ATOM     33  C   UNL     1      -7.072   1.493   1.754  0.00  0.00    +0.002 A 
ATOM     34  C   UNL     1      -6.682   2.804   1.922  0.00  0.00    +0.026 A 
ENDBRANCH  24  25
ENDBRANCH  23  24
ENDBRANCH  19  23
TORSDOF 3
