REMARK  Name = ZINC39911942
REMARK  15 active torsions:
REMARK  status: ('A' for Active; 'I' for Inactive)
REMARK    1  A    between atoms: C_1  and  C_2
REMARK    2  A    between atoms: C_2  and  C_3
REMARK    3  A    between atoms: C_3  and  C_4
REMARK    4  A    between atoms: C_4  and  N_5
REMARK    5  A    between atoms: C_6  and  C_25
REMARK    6  A    between atoms: C_9  and  C_16
REMARK    7  A    between atoms: C_18  and  C_24
REMARK    8  A    between atoms: C_20  and  C_23
REMARK    9  A    between atoms: C_21  and  O_22
REMARK   10  A    between atoms: C_28  and  O_34
REMARK   11  A    between atoms: C_29  and  O_31
REMARK   12  A    between atoms: O_31  and  C_32
REMARK   13  A    between atoms: C_32  and  C_33
REMARK   14  A    between atoms: O_34  and  C_35
REMARK   15  A    between atoms: C_35  and  C_36
REMARK                            x       y       z     vdW  Elec       q    Type
REMARK                         _______ _______ _______ _____ _____    ______ ____
ROOT
ATOM      1  N   UNL     1      -2.927  -2.814  -0.242  0.00  0.00    -0.285 N 
ATOM      2  C   UNL     1      -3.417  -2.896   1.140  0.00  0.00    +0.141 C 
ATOM      3  C   UNL     1      -4.894  -3.163   1.043  0.00  0.00    +0.035 A 
ATOM      4  C   UNL     1      -6.101  -3.378   1.717  0.00  0.00    +0.102 A 
ATOM      5  N   UNL     1      -7.037  -3.552   0.805  0.00  0.00    -0.173 NA
ATOM      6  N   UNL     1      -6.541  -3.467  -0.378  0.00  0.00    -0.272 N 
ATOM      7  H   UNL     1      -7.046  -3.561  -1.201  0.00  0.00    +0.189 HD
ATOM      8  C   UNL     1      -5.199  -3.224  -0.303  0.00  0.00    +0.126 A 
ATOM      9  C   UNL     1      -3.969  -3.000  -1.071  0.00  0.00    +0.265 C 
ATOM     10  O   UNL     1      -3.901  -2.988  -2.286  0.00  0.00    -0.268 OA
ENDROOT
BRANCH   4  11
ATOM     11  C   UNL     1      -6.292  -3.407   3.189  0.00  0.00    +0.044 A 
ATOM     12  C   UNL     1      -5.239  -3.073   4.037  0.00  0.00    +0.017 A 
ATOM     13  C   UNL     1      -5.422  -3.101   5.405  0.00  0.00    -0.049 A 
ATOM     14  C   UNL     1      -6.647  -3.460   5.937  0.00  0.00    +0.010 A 
ATOM     15  C   UNL     1      -7.698  -3.794   5.104  0.00  0.00    -0.008 A 
ATOM     16  C   UNL     1      -7.530  -3.764   3.729  0.00  0.00    +0.129 A 
ATOM     17  C   UNL     1      -9.030  -4.185   5.692  0.00  0.00    +0.047 C 
ATOM     18  C   UNL     1      -4.282  -2.738   6.322  0.00  0.00    +0.044 C 
BRANCH  16  19
ATOM     19  O   UNL     1      -8.564  -4.087   2.909  0.00  0.00    -0.506 OA
ATOM     20  H   UNL     1      -8.612  -5.027   2.688  0.00  0.00    +0.292 HD
ENDBRANCH  16  19
ENDBRANCH   4  11
BRANCH   2  21
ATOM     21  C   UNL     1      -2.732  -4.024   1.867  0.00  0.00    -0.019 A 
ATOM     22  C   UNL     1      -2.214  -3.816   3.132  0.00  0.00    +0.009 A 
ATOM     23  C   UNL     1      -1.585  -4.847   3.804  0.00  0.00    +0.050 A 
ATOM     24  C   UNL     1      -1.471  -6.093   3.209  0.00  0.00    +0.162 A 
ATOM     25  C   UNL     1      -1.992  -6.303   1.936  0.00  0.00    +0.162 A 
ATOM     26  C   UNL     1      -2.626  -5.266   1.270  0.00  0.00    +0.055 A 
BRANCH  25  27
ATOM     27  O   UNL     1      -1.883  -7.525   1.348  0.00  0.00    -0.489 OA
BRANCH  27  28
ATOM     28  C   UNL     1      -2.546  -7.703   0.095  0.00  0.00    +0.226 C 
ATOM     29  C   UNL     1      -2.411  -9.160  -0.351  0.00  0.00    +0.048 C 
ENDBRANCH  27  28
ENDBRANCH  25  27
BRANCH  24  30
ATOM     30  O   UNL     1      -0.851  -7.109   3.868  0.00  0.00    -0.484 OA
BRANCH  30  31
ATOM     31  C   UNL     1      -0.341  -6.821   5.171  0.00  0.00    +0.264 C 
BRANCH  31  32
ATOM     32  C   UNL     1       0.307  -8.056   5.741  0.00  0.00    -0.010 A 
ATOM     33  C   UNL     1      -0.444  -8.951   6.480  0.00  0.00    +0.007 A 
ATOM     34  C   UNL     1       0.150 -10.085   7.003  0.00  0.00    +0.000 A 
ATOM     35  C   UNL     1       1.494 -10.323   6.787  0.00  0.00    +0.000 A 
ATOM     36  C   UNL     1       2.245  -9.428   6.047  0.00  0.00    +0.000 A 
ATOM     37  C   UNL     1       1.650  -8.297   5.521  0.00  0.00    +0.007 A 
ENDBRANCH  31  32
ENDBRANCH  30  31
ENDBRANCH  24  30
ENDBRANCH   2  21
BRANCH   1  38
ATOM     38  C   UNL     1      -1.541  -2.565  -0.647  0.00  0.00    +0.109 C 
BRANCH  38  39
ATOM     39  C   UNL     1      -1.314  -1.058  -0.788  0.00  0.00    +0.019 C 
BRANCH  39  41
ATOM     40  C   UNL     1       0.360   0.708  -1.353  0.00  0.00    +0.004 C 
ATOM     41  C   UNL     1       0.133  -0.798  -1.212  0.00  0.00    -0.002 C 
ENDBRANCH  39  41
ENDBRANCH  38  39
ENDBRANCH   1  38
TORSDOF 11
