REMARK  Name = ZINC08792553
REMARK  9 active torsions:
REMARK  status: ('A' for Active; 'I' for Inactive)
REMARK    1  A    between atoms: C_1  and  S_2
REMARK    2  A    between atoms: S_2  and  C_3
REMARK    3  A    between atoms: C_3  and  C_4
REMARK    4  A    between atoms: C_4  and  C_5
REMARK    5  A    between atoms: C_5  and  C_7
REMARK    6  A    between atoms: C_5  and  N_17
REMARK    7  A    between atoms: N_9  and  C_10
REMARK    8  A    between atoms: C_10  and  C_11
REMARK    9  A    between atoms: C_22  and  O_30
REMARK                            x       y       z     vdW  Elec       q    Type
REMARK                         _______ _______ _______ _____ _____    ______ ____
ROOT
ATOM      1  C   UNL     1       1.757  -2.329   2.909  0.00  0.00    +0.161 C 
ENDROOT
BRANCH   1   2
ATOM      2  N   UNL     1       3.141  -1.861   2.805  0.00  0.00    -0.288 N 
ATOM      3  C   UNL     1       3.451  -0.593   3.140  0.00  0.00    +0.308 C 
ATOM      4  O   UNL     1       2.582   0.164   3.528  0.00  0.00    -0.252 OA
ATOM      5  N   UNL     1       4.725  -0.162   3.044  0.00  0.00    -0.245 N 
ATOM      6  C   UNL     1       5.801  -1.049   2.572  0.00  0.00    +0.210 C 
ATOM      7  C   UNL     1       7.034  -0.807   3.405  0.00  0.00    +0.206 C 
ATOM      8  N   UNL     1       7.259   0.335   3.971  0.00  0.00    -0.214 NA
ATOM      9  C   UNL     1       6.385   1.382   3.857  0.00  0.00    +0.089 A 
ATOM     10  C   UNL     1       5.081   1.152   3.384  0.00  0.00    +0.064 A 
ATOM     11  C   UNL     1       4.185   2.195   3.265  0.00  0.00    +0.026 A 
ATOM     12  C   UNL     1       4.577   3.479   3.605  0.00  0.00    +0.002 A 
ATOM     13  C   UNL     1       5.860   3.719   4.063  0.00  0.00    +0.002 A 
ATOM     14  C   UNL     1       6.768   2.676   4.198  0.00  0.00    +0.030 A 
ATOM     15  H   UNL     1       3.835  -2.464   2.496  0.00  0.00    +0.151 HD
BRANCH   7  16
ATOM     16  O   UNL     1       7.926  -1.807   3.563  0.00  0.00    -0.494 OA
ATOM     17  H   UNL     1       8.688  -1.571   4.110  0.00  0.00    +0.293 HD
ENDBRANCH   7  16
ENDBRANCH   1   2
BRANCH   1  18
ATOM     18  C   UNL     1       1.744  -3.825   3.089  0.00  0.00    +0.234 C 
ATOM     19  O   UNL     1       2.789  -4.440   3.126  0.00  0.00    -0.274 OA
ATOM     20  N   UNL     1       0.572  -4.479   3.208  0.00  0.00    -0.310 N 
ATOM     21  H   UNL     1      -0.264  -3.987   3.178  0.00  0.00    +0.149 HD
BRANCH  20  22
ATOM     22  C   UNL     1       0.560  -5.934   3.382  0.00  0.00    +0.141 C 
BRANCH  22  23
ATOM     23  C   UNL     1      -0.865  -6.415   3.489  0.00  0.00    -0.012 A 
ATOM     24  C   UNL     1      -1.489  -6.492   4.725  0.00  0.00    +0.008 A 
ATOM     25  C   UNL     1      -2.800  -6.940   4.776  0.00  0.00    +0.020 A 
ATOM     26  C   UNL     1      -3.436  -7.293   3.601  0.00  0.00    +0.111 A 
ATOM     27  N   UNL     1      -2.811  -7.208   2.443  0.00  0.00    -0.263 NA
ATOM     28  C   UNL     1      -1.567  -6.780   2.357  0.00  0.00    +0.115 A 
ENDBRANCH  22  23
ENDBRANCH  20  22
ENDBRANCH   1  18
BRANCH   1  29
ATOM     29  C   UNL     1       0.997  -1.962   1.633  0.00  0.00    +0.042 C 
BRANCH  29  30
ATOM     30  C   UNL     1       0.902  -0.439   1.516  0.00  0.00    +0.071 C 
BRANCH  30  32
ATOM     31  C   UNL     1      -0.022   1.810   0.012  0.00  0.00    +0.084 C 
ATOM     32  S   UNL     1       0.002  -0.004   0.002  0.00  0.00    -0.164 S 
ENDBRANCH  30  32
ENDBRANCH  29  30
ENDBRANCH   1  29
TORSDOF 8
