REMARK  Name = ZINC01422455
REMARK  12 active torsions:
REMARK  status: ('A' for Active; 'I' for Inactive)
REMARK    1  A    between atoms: C_1  and  C_2
REMARK    2  A    between atoms: C_3  and  C_25
REMARK    3  A    between atoms: C_4  and  C_16
REMARK    4  A    between atoms: C_10  and  C_14
REMARK    5  A    between atoms: C_10  and  C_15
REMARK    6  A    between atoms: C_19  and  O_24
REMARK    7  A    between atoms: C_20  and  O_22
REMARK    8  A    between atoms: O_22  and  C_23
REMARK    9  A    between atoms: N_27  and  C_28
REMARK   10  A    between atoms: C_29  and  C_37
REMARK   11  A    between atoms: C_37  and  O_39
REMARK   12  A    between atoms: O_39  and  C_40
REMARK                            x       y       z     vdW  Elec       q    Type
REMARK                         _______ _______ _______ _____ _____    ______ ____
ROOT
ATOM      1  C   UNL     1      -0.026   1.440  -0.006  0.00  0.00    +0.061 C 
ATOM      2  C   UNL     1      -0.030  -0.067   0.004  0.00  0.00    +0.014 C 
ATOM      3  C   UNL     1      -1.197  -0.732  -0.027  0.00  0.00    +0.043 C 
ATOM      4  C   UNL     1      -1.239  -2.232  -0.026  0.00  0.00    +0.090 C 
ATOM      5  C   UNL     1       0.074  -2.810   0.438  0.00  0.00    +0.024 C 
ATOM      6  C   UNL     1       1.195  -2.057   0.445  0.00  0.00    +0.016 C 
ATOM      7  N   UNL     1       1.155  -0.749   0.038  0.00  0.00    -0.321 N 
ATOM      8  C   UNL     1       2.516  -2.634   0.890  0.00  0.00    +0.058 C 
ATOM      9  C   UNL     1       2.275  -3.712   1.949  0.00  0.00    -0.023 C 
ATOM     10  C   UNL     1       1.369  -4.792   1.347  0.00  0.00    +0.086 C 
ATOM     11  C   UNL     1       0.098  -4.150   0.862  0.00  0.00    +0.162 C 
ATOM     12  O   UNL     1      -0.927  -4.802   0.836  0.00  0.00    -0.292 OA
ATOM     13  C   UNL     1       3.610  -4.333   2.363  0.00  0.00    +0.011 C 
ATOM     14  C   UNL     1       1.592  -3.091   3.169  0.00  0.00    +0.011 C 
ATOM     15  H   UNL     1       1.975  -0.301  -0.225  0.00  0.00    +0.152 HD
ENDROOT
BRANCH   4  16
ATOM     16  C   UNL     1      -1.527  -2.719  -1.423  0.00  0.00    -0.032 A 
ATOM     17  C   UNL     1      -0.610  -2.498  -2.434  0.00  0.00    +0.008 A 
ATOM     18  C   UNL     1      -0.870  -2.942  -3.716  0.00  0.00    +0.049 A 
ATOM     19  C   UNL     1      -2.051  -3.613  -3.991  0.00  0.00    +0.158 A 
ATOM     20  C   UNL     1      -2.974  -3.836  -2.974  0.00  0.00    +0.162 A 
ATOM     21  C   UNL     1      -2.705  -3.392  -1.690  0.00  0.00    +0.054 A 
BRANCH  20  22
ATOM     22  O   UNL     1      -4.134  -4.493  -3.239  0.00  0.00    -0.491 OA
ATOM     23  C   UNL     1      -5.083  -4.590  -2.175  0.00  0.00    +0.277 C 
ENDBRANCH  20  22
BRANCH  19  24
ATOM     24  O   UNL     1      -2.308  -4.051  -5.253  0.00  0.00    -0.503 OA
ATOM     25  H   UNL     1      -1.990  -4.946  -5.431  0.00  0.00    +0.292 HD
ENDBRANCH  19  24
ENDBRANCH   4  16
BRANCH   3  26
ATOM     26  C   UNL     1      -2.410  -0.003  -0.059  0.00  0.00    +0.247 C 
ATOM     27  O   UNL     1      -3.099   0.079   0.942  0.00  0.00    -0.270 OA
ATOM     28  N   UNL     1      -2.804   0.600  -1.199  0.00  0.00    -0.275 N 
ATOM     29  H   UNL     1      -2.296   0.473  -2.015  0.00  0.00    +0.156 HD
BRANCH  28  30
ATOM     30  C   UNL     1      -3.934   1.401  -1.204  0.00  0.00    +0.087 A 
ATOM     31  C   UNL     1      -4.542   2.011  -2.291  0.00  0.00    +0.091 A 
ATOM     32  C   UNL     1      -5.729   2.807  -2.027  0.00  0.00    -0.021 A 
ATOM     33  C   UNL     1      -6.089   2.846  -0.727  0.00  0.00    -0.004 A 
ATOM     34  S   UNL     1      -4.887   1.850   0.104  0.00  0.00    -0.077 S 
ATOM     35  C   UNL     1      -7.257   3.577  -0.139  0.00  0.00    +0.043 C 
ATOM     36  C   UNL     1      -7.769   4.584  -1.179  0.00  0.00    +0.005 C 
ATOM     37  C   UNL     1      -7.911   3.874  -2.528  0.00  0.00    +0.005 C 
ATOM     38  C   UNL     1      -6.526   3.546  -3.092  0.00  0.00    +0.037 C 
BRANCH  31  39
ATOM     39  C   UNL     1      -4.010   1.860  -3.647  0.00  0.00    +0.342 C 
ATOM     40  O   UNL     1      -4.457   1.002  -4.383  0.00  0.00    -0.245 OA
BRANCH  39  41
ATOM     41  O   UNL     1      -3.025   2.673  -4.079  0.00  0.00    -0.464 OA
ATOM     42  C   UNL     1      -2.630   2.544  -5.447  0.00  0.00    +0.280 C 
ENDBRANCH  39  41
ENDBRANCH  31  39
ENDBRANCH  28  30
ENDBRANCH   3  26
TORSDOF 7
