REMARK  Name = ZINC20807002
REMARK  7 active torsions:
REMARK  status: ('A' for Active; 'I' for Inactive)
REMARK    1  A    between atoms: C_1  and  C_2
REMARK    2  A    between atoms: C_5  and  C_8
REMARK    3  A    between atoms: N_9  and  N_10
REMARK    4  A    between atoms: C_14  and  S_17
REMARK    5  A    between atoms: N_15  and  N_16
REMARK    6  A    between atoms: S_17  and  C_18
REMARK    7  A    between atoms: C_18  and  C_19
REMARK                            x       y       z     vdW  Elec       q    Type
REMARK                         _______ _______ _______ _____ _____    ______ ____
ROOT
ATOM      1  N   UNL     1      -6.225  -3.684  -2.687  0.00  0.00    -0.204 N 
ATOM      2  C   UNL     1      -5.192  -3.077  -1.988  0.00  0.00    +0.254 A 
ATOM      3  N   UNL     1      -5.073  -3.020  -0.684  0.00  0.00    -0.109 NA
ATOM      4  N   UNL     1      -3.895  -2.321  -0.387  0.00  0.00    -0.119 NA
ATOM      5  C   UNL     1      -3.333  -1.974  -1.520  0.00  0.00    +0.210 A 
ATOM      6  N   UNL     1      -4.122  -2.427  -2.539  0.00  0.00    -0.211 N 
ATOM      7  H   UNL     1      -6.226  -3.673  -3.787  0.00  0.00    +0.177 HD
ENDROOT
BRANCH   6   8
ATOM      8  N   UNL     1      -3.883  -2.263  -3.874  0.00  0.00    -0.294 N 
ATOM      9  H   UNL     1      -2.987  -1.720  -4.209  0.00  0.00    +0.163 HD
ATOM     10  H   UNL     1      -4.587  -2.673  -4.613  0.00  0.00    +0.163 HD
ENDBRANCH   6   8
BRANCH   1  12
ATOM     11  C   UNL     1      -8.234  -4.881  -2.646  0.00  0.00    +0.138 C 
ATOM     12  N   UNL     1      -7.267  -4.312  -1.992  0.00  0.00    -0.188 NA
BRANCH  11  17
ATOM     13  C   UNL     1     -12.510  -7.458   0.208  0.00  0.00    +0.044 C 
ATOM     14  C   UNL     1     -11.390  -6.782  -0.540  0.00  0.00    -0.050 A 
ATOM     15  C   UNL     1     -11.395  -6.770  -1.923  0.00  0.00    +0.004 A 
ATOM     16  C   UNL     1     -10.372  -6.154  -2.615  0.00  0.00    +0.010 A 
ATOM     17  C   UNL     1      -9.330  -5.541  -1.914  0.00  0.00    -0.005 A 
ATOM     18  C   UNL     1      -9.329  -5.562  -0.517  0.00  0.00    +0.010 A 
ATOM     19  C   UNL     1     -10.361  -6.178   0.161  0.00  0.00    +0.004 A 
ENDBRANCH  11  17
ENDBRANCH   1  12
BRANCH   5  20
ATOM     20  S   UNL     1      -1.828  -1.076  -1.697  0.00  0.00    -0.080 S 
BRANCH  20  21
ATOM     21  C   UNL     1      -1.292  -0.775   0.010  0.00  0.00    +0.114 C 
BRANCH  21  22
ATOM     22  C   UNL     1       0.002  -0.004   0.002  0.00  0.00    -0.019 A 
ATOM     23  C   UNL     1       1.209  -0.679  -0.013  0.00  0.00    +0.006 A 
ATOM     24  C   UNL     1       2.396   0.029  -0.021  0.00  0.00    +0.000 A 
ATOM     25  C   UNL     1       2.378   1.411  -0.013  0.00  0.00    +0.001 A 
ATOM     26  C   UNL     1       1.173   2.087   0.002  0.00  0.00    +0.020 A 
ATOM     27  C   UNL     1      -0.017   1.379   0.010  0.00  0.00    +0.045 A 
ATOM     28 CL   UNL     1      -1.532   2.227   0.021  0.00  0.00    -0.083 Cl
ENDBRANCH  21  22
ENDBRANCH  20  21
ENDBRANCH   5  20
TORSDOF 6
