REMARK  Name = ZINC03139415
REMARK  6 active torsions:
REMARK  status: ('A' for Active; 'I' for Inactive)
REMARK    1  A    between atoms: C_8  and  C_10
REMARK    2  A    between atoms: C_13  and  N_17
REMARK    3  A    between atoms: C_15  and  O_16
REMARK    4  A    between atoms: C_18  and  C_19
REMARK    5  A    between atoms: C_23  and  N_30
REMARK    6  A    between atoms: C_28  and  O_29
REMARK                            x       y       z     vdW  Elec       q    Type
REMARK                         _______ _______ _______ _____ _____    ______ ____
ROOT
ATOM      1  C   UNL     1       2.984  -4.019  -0.048  0.00  0.00    +0.049 A 
ATOM      2  C   UNL     1       1.987  -4.998  -0.050  0.00  0.00    +0.016 A 
ATOM      3  C   UNL     1       2.324  -6.321  -0.060  0.00  0.00    +0.028 A 
ATOM      4  C   UNL     1       3.669  -6.706  -0.069  0.00  0.00    +0.067 A 
ATOM      5  C   UNL     1       4.674  -5.735  -0.067  0.00  0.00    +0.073 A 
ATOM      6  C   UNL     1       4.335  -4.395  -0.063  0.00  0.00    +0.129 A 
ENDROOT
BRANCH   1  14
ATOM      7  C   UNL     1      -0.016   1.355   0.009  0.00  0.00    +0.002 A 
ATOM      8  C   UNL     1       1.155   2.100   0.002  0.00  0.00    +0.001 A 
ATOM      9  C   UNL     1       2.373   1.447  -0.013  0.00  0.00    +0.017 A 
ATOM     10  C   UNL     1       2.403   0.074  -0.020  0.00  0.00    +0.040 A 
ATOM     11  C   UNL     1       1.227  -0.713  -0.013  0.00  0.00    +0.079 A 
ATOM     12  C   UNL     1       0.002  -0.004   0.002  0.00  0.00    +0.029 A 
ATOM     13  N   UNL     1       1.417  -2.047  -0.022  0.00  0.00    -0.239 NA
ATOM     14  C   UNL     1       2.616  -2.590  -0.037  0.00  0.00    +0.113 A 
ATOM     15  S   UNL     1       3.683  -1.157  -0.039  0.00  0.00    -0.067 S 
ENDBRANCH   1  14
BRANCH   6  16
ATOM     16  O   UNL     1       5.307  -3.446  -0.067  0.00  0.00    -0.506 OA
ATOM     17  H   UNL     1       5.596  -3.176   0.815  0.00  0.00    +0.292 HD
ENDBRANCH   6  16
BRANCH   4  18
ATOM     18  N   UNL     1       4.000  -8.030  -0.078  0.00  0.00    -0.255 NA
ATOM     19  C   UNL     1       3.385  -8.863   0.721  0.00  0.00    +0.123 C 
BRANCH  19  20
ATOM     20  C   UNL     1       3.740 -10.284   0.711  0.00  0.00    +0.042 A 
ATOM     21  C   UNL     1       3.058 -11.232   1.593  0.00  0.00    -0.006 A 
ATOM     22  C   UNL     1       2.051 -10.816   2.471  0.00  0.00    +0.011 A 
ATOM     23  C   UNL     1       1.440 -11.731   3.277  0.00  0.00    +0.033 A 
ATOM     24  C   UNL     1       1.805 -13.074   3.239  0.00  0.00    +0.127 A 
ATOM     25  C   UNL     1       2.782 -13.511   2.396  0.00  0.00    +0.041 A 
ATOM     26  C   UNL     1       3.432 -12.596   1.551  0.00  0.00    -0.015 A 
ATOM     27  C   UNL     1       4.445 -13.012   0.668  0.00  0.00    +0.012 A 
ATOM     28  C   UNL     1       5.069 -12.120  -0.146  0.00  0.00    +0.046 A 
ATOM     29  C   UNL     1       4.734 -10.766  -0.146  0.00  0.00    +0.126 A 
BRANCH  24  30
ATOM     30  N   UNL     1       1.123 -14.040   4.128  0.00  0.00    +0.056 N 
ATOM     31  O   UNL     1       0.255 -13.662   4.880  0.00  0.00    -0.126 OA
ATOM     32  O   UNL     1       1.433 -15.209   4.102  0.00  0.00    -0.126 OA
ENDBRANCH  24  30
BRANCH  29  33
ATOM     33  O   UNL     1       5.379  -9.912  -0.979  0.00  0.00    -0.506 OA
ATOM     34  H   UNL     1       6.175  -9.518  -0.598  0.00  0.00    +0.292 HD
ENDBRANCH  29  33
ENDBRANCH  19  20
ENDBRANCH   4  18
TORSDOF 6
