REMARK  Name = ZINC24937462
REMARK  10 active torsions:
REMARK  status: ('A' for Active; 'I' for Inactive)
REMARK    1  A    between atoms: C_1  and  C_2
REMARK    2  A    between atoms: C_2  and  C_3
REMARK    3  A    between atoms: C_3  and  C_4
REMARK    4  A    between atoms: C_7  and  C_10
REMARK    5  A    between atoms: C_10  and  C_31
REMARK    6  A    between atoms: N_13  and  C_17
REMARK    7  A    between atoms: C_17  and  C_18
REMARK    8  A    between atoms: N_20  and  C_21
REMARK    9  A    between atoms: C_21  and  C_23
REMARK   10  A    between atoms: C_21  and  C_24
REMARK                            x       y       z     vdW  Elec       q    Type
REMARK                         _______ _______ _______ _____ _____    ______ ____
ROOT
ATOM      1  C   UNL     1      -0.336   0.366  -0.470  0.00  0.00    +0.135 C 
ATOM      2  C   UNL     1       1.074   0.890  -0.283  0.00  0.00    +0.251 C 
ATOM      3  O   UNL     1       1.407   2.037  -0.076  0.00  0.00    -0.272 OA
ATOM      4  N   UNL     1       1.880  -0.185  -0.395  0.00  0.00    -0.215 N 
ATOM      5  C   UNL     1       1.182  -1.303  -0.624  0.00  0.00    +0.310 C 
ATOM      6  O   UNL     1       1.689  -2.399  -0.761  0.00  0.00    -0.252 OA
ATOM      7  N   UNL     1      -0.143  -1.079  -0.685  0.00  0.00    -0.281 N 
ATOM      8  C   UNL     1      -1.174   0.615   0.786  0.00  0.00    +0.047 C 
ATOM      9  H   UNL     1      -1.013  -1.731  -0.853  0.00  0.00    +0.152 HD
ENDROOT
BRANCH   1  13
ATOM     10  C   UNL     1      -2.168   2.164  -3.884  0.00  0.00    -0.047 A 
ATOM     11  C   UNL     1      -2.457   0.853  -3.555  0.00  0.00    +0.004 A 
ATOM     12  C   UNL     1      -1.864   0.271  -2.450  0.00  0.00    +0.006 A 
ATOM     13  C   UNL     1      -0.982   1.000  -1.674  0.00  0.00    -0.015 A 
ATOM     14  C   UNL     1      -0.697   2.313  -2.001  0.00  0.00    +0.006 A 
ATOM     15  C   UNL     1      -1.286   2.893  -3.108  0.00  0.00    +0.004 A 
BRANCH  10  16
ATOM     16  C   UNL     1      -2.815   2.799  -5.088  0.00  0.00    +0.035 C 
BRANCH  16  18
ATOM     17  C   UNL     1      -4.785   4.106  -5.894  0.00  0.00    +0.004 C 
ATOM     18  C   UNL     1      -4.129   3.462  -4.671  0.00  0.00    +0.001 C 
ENDBRANCH  16  18
ENDBRANCH  10  16
ENDBRANCH   1  13
BRANCH   4  19
ATOM     19  C   UNL     1       3.339  -0.134  -0.280  0.00  0.00    +0.213 C 
BRANCH  19  20
ATOM     20  C   UNL     1       3.942   0.106  -1.641  0.00  0.00    +0.231 C 
ATOM     21  O   UNL     1       3.223   0.223  -2.610  0.00  0.00    -0.274 OA
ATOM     22  N   UNL     1       5.280   0.190  -1.780  0.00  0.00    -0.307 N 
ATOM     23  H   UNL     1       5.932   0.084  -0.900  0.00  0.00    +0.149 HD
BRANCH  22  24
ATOM     24  C   UNL     1       5.865   0.423  -3.102  0.00  0.00    +0.102 C 
ATOM     25  C   UNL     1       5.939   1.928  -3.369  0.00  0.00    +0.033 C 
BRANCH  24  26
ATOM     26  C   UNL     1       7.253  -0.164  -3.148  0.00  0.00    -0.009 A 
ATOM     27  C   UNL     1       7.990  -0.286  -1.985  0.00  0.00    +0.007 A 
ATOM     28  C   UNL     1       9.261  -0.828  -2.026  0.00  0.00    +0.000 A 
ATOM     29  C   UNL     1       9.799  -1.240  -3.232  0.00  0.00    +0.001 A 
ATOM     30  C   UNL     1       9.065  -1.113  -4.395  0.00  0.00    +0.020 A 
ATOM     31  C   UNL     1       7.790  -0.575  -4.354  0.00  0.00    +0.046 A 
ATOM     32 CL   UNL     1       6.868  -0.415  -5.816  0.00  0.00    -0.083 Cl
ENDBRANCH  24  26
ENDBRANCH  22  24
ENDBRANCH  19  20
ENDBRANCH   4  19
TORSDOF 7
