REMARK  Name = ZINC09316418
REMARK  10 active torsions:
REMARK  status: ('A' for Active; 'I' for Inactive)
REMARK    1  A    between atoms: C_1  and  C_2
REMARK    2  A    between atoms: C_4  and  C_28
REMARK    3  A    between atoms: C_10  and  S_11
REMARK    4  A    between atoms: S_11  and  C_12
REMARK    5  A    between atoms: C_12  and  C_13
REMARK    6  A    between atoms: N_15  and  C_16
REMARK    7  A    between atoms: C_16  and  C_17
REMARK    8  A    between atoms: C_17  and  C_18
REMARK    9  A    between atoms: C_21  and  S_24
REMARK   10  A    between atoms: S_24  and  N_27
REMARK                            x       y       z     vdW  Elec       q    Type
REMARK                         _______ _______ _______ _____ _____    ______ ____
ROOT
ATOM      1  C   UNL     1       0.585  -0.664  -1.018  0.00  0.00    +0.223 C 
ATOM      2  O   UNL     1       1.093  -0.046  -1.929  0.00  0.00    -0.275 OA
ATOM      3  N   UNL     1       0.002  -0.004   0.002  0.00  0.00    -0.314 N 
ATOM      4  H   UNL     1      -0.404  -0.499   0.731  0.00  0.00    +0.149 HD
ENDROOT
BRANCH   1   5
ATOM      5  C   UNL     1       0.606  -2.171  -1.026  0.00  0.00    +0.173 C 
BRANCH   5   6
ATOM      6  S   UNL     1       1.455  -2.756  -2.519  0.00  0.00    -0.076 S 
BRANCH   6  16
ATOM      7  C   UNL     1       3.073  -8.932  -5.269  0.00  0.00    +0.066 C 
ATOM      8  C   UNL     1       2.654  -7.675  -4.551  0.00  0.00    +0.044 A 
ATOM      9  C   UNL     1       2.955  -6.421  -5.108  0.00  0.00    +0.044 A 
ATOM     10  C   UNL     1       2.575  -5.296  -4.458  0.00  0.00    +0.028 A 
ATOM     11  N   UNL     1       1.907  -5.410  -3.271  0.00  0.00    -0.259 N 
ATOM     12  C   UNL     1       1.629  -6.658  -2.753  0.00  0.00    +0.257 A 
ATOM     13  N   UNL     1       2.012  -7.762  -3.411  0.00  0.00    -0.216 NA
ATOM     14  N   UNL     1       0.986  -6.461  -1.617  0.00  0.00    -0.108 NA
ATOM     15  N   UNL     1       0.856  -5.200  -1.402  0.00  0.00    -0.120 NA
ATOM     16  C   UNL     1       1.396  -4.512  -2.382  0.00  0.00    +0.198 A 
ATOM     17  C   UNL     1       2.885  -3.938  -5.034  0.00  0.00    +0.064 C 
ENDBRANCH   6  16
ENDBRANCH   5   6
ENDBRANCH   1   5
BRANCH   3  18
ATOM     18  C   UNL     1      -0.018   1.461   0.010  0.00  0.00    +0.109 C 
BRANCH  18  19
ATOM     19  C   UNL     1      -0.734   1.954   1.269  0.00  0.00    +0.054 C 
BRANCH  19  20
ATOM     20  C   UNL     1      -0.754   3.461   1.277  0.00  0.00    -0.046 A 
ATOM     21  C   UNL     1       0.276   4.163   1.875  0.00  0.00    +0.005 A 
ATOM     22  C   UNL     1       0.259   5.545   1.878  0.00  0.00    +0.029 A 
ATOM     23  C   UNL     1      -0.792   6.225   1.293  0.00  0.00    +0.105 A 
ATOM     24  C   UNL     1      -1.825   5.523   0.700  0.00  0.00    +0.029 A 
ATOM     25  C   UNL     1      -1.806   4.141   0.692  0.00  0.00    +0.005 A 
BRANCH  23  26
ATOM     26  S   UNL     1      -0.815   7.987   1.301  0.00  0.00    +0.056 S 
ATOM     27  O   UNL     1       0.534   8.411   1.437  0.00  0.00    -0.153 OA
ATOM     28  O   UNL     1      -1.633   8.388   0.211  0.00  0.00    -0.153 OA
BRANCH  26  29
ATOM     29  N   UNL     1      -1.601   8.460   2.681  0.00  0.00    -0.204 NA
ATOM     30  H   UNL     1      -1.942   7.793   3.297  0.00  0.00    +0.144 HD
ATOM     31  H   UNL     1      -1.719   9.403   2.872  0.00  0.00    +0.144 HD
ENDBRANCH  26  29
ENDBRANCH  23  26
ENDBRANCH  19  20
ENDBRANCH  18  19
ENDBRANCH   3  18
TORSDOF 8
