REMARK  Name = ZINC06321422
REMARK  7 active torsions:
REMARK  status: ('A' for Active; 'I' for Inactive)
REMARK    1  A    between atoms: C_1  and  C_2
REMARK    2  A    between atoms: C_6  and  C_15
REMARK    3  A    between atoms: C_13  and  C_14
REMARK    4  A    between atoms: C_15  and  C_17
REMARK    5  A    between atoms: C_15  and  N_64
REMARK    6  A    between atoms: N_21  and  C_22
REMARK    7  A    between atoms: C_22  and  C_23
REMARK                            x       y       z     vdW  Elec       q    Type
REMARK                         _______ _______ _______ _____ _____    ______ ____
ROOT
ATOM      1  C   UNL     1       1.536  -1.470  -1.585  0.00  0.00    +0.039 C 
ENDROOT
BRANCH   1   7
ATOM      2  C   UNL     1      -5.819  -0.435  -2.252  0.00  0.00    +0.044 C 
ATOM      3  C   UNL     1      -4.461  -0.646  -2.869  0.00  0.00    -0.047 A 
ATOM      4  C   UNL     1      -3.365  -0.782  -2.063  0.00  0.00    +0.013 A 
ATOM      5  C   UNL     1      -2.104  -0.977  -2.635  0.00  0.00    -0.001 A 
ATOM      6  C   UNL     1      -0.910  -1.131  -1.802  0.00  0.00    +0.017 A 
ATOM      7  C   UNL     1       0.287  -1.313  -2.413  0.00  0.00    +0.011 A 
ATOM      8  C   UNL     1       0.366  -1.363  -3.821  0.00  0.00    +0.251 A 
ATOM      9  O   UNL     1       1.451  -1.532  -4.349  0.00  0.00    -0.268 OA
ATOM     10  N   UNL     1      -0.726  -1.228  -4.595  0.00  0.00    -0.322 N 
ATOM     11  H   UNL     1      -0.635  -1.267  -5.559  0.00  0.00    +0.169 HD
ATOM     12  C   UNL     1      -1.971  -1.035  -4.036  0.00  0.00    +0.049 A 
ATOM     13  C   UNL     1      -3.100  -0.894  -4.835  0.00  0.00    +0.030 A 
ATOM     14  C   UNL     1      -4.333  -0.702  -4.250  0.00  0.00    -0.046 A 
ATOM     15  C   UNL     1      -5.556  -0.550  -5.118  0.00  0.00    +0.044 C 
ENDBRANCH   1   7
BRANCH   1  25
ATOM     16  C   UNL     1       1.370  -3.878  -1.795  0.00  0.00    -0.072 C 
ATOM     17  C   UNL     1       1.989  -5.056  -2.548  0.00  0.00    +0.017 C 
ATOM     18  C   UNL     1       3.443  -5.199  -2.175  0.00  0.00    -0.048 A 
ATOM     19  C   UNL     1       4.086  -6.393  -2.463  0.00  0.00    +0.004 A 
ATOM     20  C   UNL     1       5.419  -6.561  -2.146  0.00  0.00    +0.000 A 
ATOM     21  C   UNL     1       6.116  -5.534  -1.537  0.00  0.00    +0.000 A 
ATOM     22  C   UNL     1       5.476  -4.346  -1.247  0.00  0.00    +0.002 A 
ATOM     23  C   UNL     1       4.136  -4.176  -1.565  0.00  0.00    -0.061 A 
ATOM     24  C   UNL     1       3.481  -2.863  -1.225  0.00  0.00    -0.041 C 
ATOM     25  N   UNL     1       2.240  -2.703  -2.002  0.00  0.00    +0.392 N 
ATOM     26  H   UNL     1       2.476  -2.632  -2.999  0.00  0.00    -0.080 HD
ENDBRANCH   1  25
BRANCH   1  27
ATOM     27  C   UNL     1       2.440  -0.286  -1.810  0.00  0.00    +0.143 A 
ATOM     28  N   UNL     1       3.047   0.034  -2.927  0.00  0.00    -0.115 NA
ATOM     29  N   UNL     1       3.730   1.106  -2.717  0.00  0.00    -0.023 NA
ATOM     30  N   UNL     1       3.570   1.482  -1.496  0.00  0.00    -0.044 NA
ATOM     31  N   UNL     1       2.778   0.651  -0.905  0.00  0.00    -0.226 N 
BRANCH  31  32
ATOM     32  C   UNL     1       2.336   0.713   0.490  0.00  0.00    +0.182 C 
BRANCH  32  33
ATOM     33  C   UNL     1       1.168   1.657   0.606  0.00  0.00    -0.026 A 
ATOM     34  C   UNL     1      -0.123   1.163   0.601  0.00  0.00    +0.005 A 
ATOM     35  C   UNL     1      -1.196   2.030   0.702  0.00  0.00    +0.000 A 
ATOM     36  C   UNL     1      -0.976   3.390   0.816  0.00  0.00    +0.000 A 
ATOM     37  C   UNL     1       0.315   3.884   0.822  0.00  0.00    +0.000 A 
ATOM     38  C   UNL     1       1.387   3.018   0.716  0.00  0.00    +0.005 A 
ENDBRANCH  32  33
ENDBRANCH  31  32
ENDBRANCH   1  27
TORSDOF 5
