REMARK  Name = ZINC09087366
REMARK  5 active torsions:
REMARK  status: ('A' for Active; 'I' for Inactive)
REMARK    1  A    between atoms: C_1  and  S_2
REMARK    2  A    between atoms: S_2  and  C_3
REMARK    3  A    between atoms: C_6  and  C_9
REMARK    4  A    between atoms: C_14  and  C_24
REMARK    5  A    between atoms: C_29  and  O_30
REMARK                            x       y       z     vdW  Elec       q    Type
REMARK                         _______ _______ _______ _____ _____    ______ ____
ROOT
ATOM      1  C   UNL     1       3.505   0.928  -0.024  0.00  0.00    +0.157 C 
ATOM      2  C   UNL     1       3.967   2.373  -0.020  0.00  0.00    +0.129 C 
ATOM      3  C   UNL     1       5.274   2.665  -0.027  0.00  0.00    +0.145 C 
ATOM      4  C   UNL     1       5.757   4.091  -0.025  0.00  0.00    +0.083 C 
ATOM      5  C   UNL     1       4.732   4.972   0.695  0.00  0.00    +0.035 C 
ATOM      6  C   UNL     1       3.377   4.829  -0.003  0.00  0.00    +0.060 C 
ATOM      7  C   UNL     1       2.973   3.374  -0.007  0.00  0.00    +0.036 C 
ATOM      8  N   UNL     1       1.706   3.058   0.002  0.00  0.00    -0.219 NA
ATOM      9  C   UNL     1       1.225   1.795   0.000  0.00  0.00    +0.249 A 
ATOM     10  N   UNL     1       2.053   0.716  -0.013  0.00  0.00    -0.221 N 
ATOM     11  N   UNL     1       1.242  -0.422  -0.012  0.00  0.00    -0.156 NA
ATOM     12  C   UNL     1       0.002  -0.004   0.002  0.00  0.00    +0.247 A 
ATOM     13  N   UNL     1      -0.016   1.326   0.009  0.00  0.00    -0.198 NA
ATOM     14  O   UNL     1       6.176   1.661  -0.036  0.00  0.00    -0.297 OA
ENDROOT
BRANCH   1  18
ATOM     15  C   UNL     1       5.102  -0.968  -3.506  0.00  0.00    +0.008 A 
ATOM     16  C   UNL     1       5.527  -1.360  -2.243  0.00  0.00    +0.015 A 
ATOM     17  C   UNL     1       5.009  -0.746  -1.120  0.00  0.00    +0.007 A 
ATOM     18  C   UNL     1       4.068   0.260  -1.252  0.00  0.00    -0.022 A 
ATOM     19  C   UNL     1       3.639   0.649  -2.508  0.00  0.00    +0.007 A 
ATOM     20  C   UNL     1       4.157   0.043  -3.635  0.00  0.00    +0.015 A 
BRANCH  15  22
ATOM     21  C   UNL     1       4.922  -0.918  -6.318  0.00  0.00    +0.090 C 
ATOM     22  S   UNL     1       5.761  -1.750  -4.941  0.00  0.00    -0.129 S 
ENDBRANCH  15  22
ENDBRANCH   1  18
BRANCH   5  23
ATOM     23  C   UNL     1       5.179   6.410   0.645  0.00  0.00    -0.002 A 
ATOM     24  C   UNL     1       5.358   7.037  -0.574  0.00  0.00    +0.007 A 
ATOM     25  C   UNL     1       5.768   8.356  -0.620  0.00  0.00    +0.001 A 
ATOM     26  C   UNL     1       6.000   9.052   0.552  0.00  0.00    +0.004 A 
ATOM     27  C   UNL     1       5.823   8.431   1.772  0.00  0.00    +0.046 A 
ATOM     28  C   UNL     1       5.406   7.108   1.822  0.00  0.00    +0.120 A 
BRANCH  28  29
ATOM     29  O   UNL     1       5.226   6.496   3.022  0.00  0.00    -0.506 OA
ATOM     30  H   UNL     1       6.017   6.056   3.362  0.00  0.00    +0.292 HD
ENDBRANCH  28  29
ENDBRANCH   5  23
TORSDOF 4
