REMARK  Name = ZINC14250428
REMARK  4 active torsions:
REMARK  status: ('A' for Active; 'I' for Inactive)
REMARK    1  A    between atoms: C_15  and  C_17
REMARK    2  A    between atoms: C_18  and  C_26
REMARK    3  A    between atoms: C_26  and  S_27
REMARK    4  A    between atoms: S_27  and  C_28
REMARK                            x       y       z     vdW  Elec       q    Type
REMARK                         _______ _______ _______ _____ _____    ______ ____
ROOT
ATOM      1  C   UNL     1      -0.016   1.358   0.009  0.00  0.00    +0.001 A 
ATOM      2  C   UNL     1       1.167   2.091   0.002  0.00  0.00    +0.001 A 
ATOM      3  C   UNL     1       2.377   1.463  -0.013  0.00  0.00    +0.010 A 
ATOM      4  C   UNL     1       2.430   0.065  -0.021  0.00  0.00    +0.009 A 
ATOM      5  C   UNL     1       1.234  -0.684  -0.013  0.00  0.00    -0.016 A 
ATOM      6  C   UNL     1       0.002  -0.004   0.002  0.00  0.00    +0.008 A 
ATOM      7  C   UNL     1       1.274  -2.092  -0.022  0.00  0.00    +0.010 A 
ATOM      8  C   UNL     1       2.470  -2.738  -0.038  0.00  0.00    +0.018 A 
ATOM      9  C   UNL     1       3.664  -2.040  -0.045  0.00  0.00    +0.041 A 
ATOM     10  C   UNL     1       3.731  -0.634  -0.038  0.00  0.00    +0.088 A 
ATOM     11  N   UNL     1       4.962  -0.104  -0.048  0.00  0.00    -0.224 NA
ATOM     12  C   UNL     1       6.051  -0.840  -0.064  0.00  0.00    +0.166 A 
ATOM     13  S   UNL     1       5.381  -2.497  -0.066  0.00  0.00    -0.052 S 
ATOM     14  N   UNL     1       7.375  -0.436  -0.076  0.00  0.00    -0.258 N 
ATOM     15  C   UNL     1       8.360  -1.355  -0.091  0.00  0.00    +0.285 C 
ATOM     16  O   UNL     1       8.086  -2.540  -0.095  0.00  0.00    -0.266 OA
ATOM     17  H   UNL     1       7.594   0.509  -0.073  0.00  0.00    +0.157 HD
ENDROOT
BRANCH  15  18
ATOM     18  C   UNL     1       9.765  -0.926  -0.104  0.00  0.00    +0.195 A 
ATOM     19  C   UNL     1      10.837  -1.760  -0.125  0.00  0.00    +0.021 A 
ATOM     20  C   UNL     1      12.020  -0.900  -0.132  0.00  0.00    +0.025 A 
ATOM     21  C   UNL     1      13.396  -1.137  -0.151  0.00  0.00    +0.012 A 
ATOM     22  C   UNL     1      14.265  -0.083  -0.151  0.00  0.00    +0.001 A 
ATOM     23  C   UNL     1      13.789   1.221  -0.132  0.00  0.00    +0.004 A 
ATOM     24  C   UNL     1      12.435   1.476  -0.113  0.00  0.00    +0.047 A 
ATOM     25  C   UNL     1      11.531   0.420  -0.113  0.00  0.00    +0.136 A 
ATOM     26  O   UNL     1      10.186   0.356  -0.102  0.00  0.00    -0.450 OA
BRANCH  19  27
ATOM     27  C   UNL     1      10.813  -3.267  -0.139  0.00  0.00    +0.117 C 
BRANCH  27  28
ATOM     28  S   UNL     1      10.782  -3.856  -1.855  0.00  0.00    -0.082 S 
BRANCH  28  29
ATOM     29  C   UNL     1      10.756  -5.611  -1.703  0.00  0.00    +0.184 A 
ATOM     30  N   UNL     1      10.734  -6.497  -2.722  0.00  0.00    -0.254 N 
ATOM     31  H   UNL     1      10.730  -6.293  -3.671  0.00  0.00    +0.191 HD
ATOM     32  N   UNL     1      10.719  -7.773  -2.136  0.00  0.00    -0.160 NA
ATOM     33  C   UNL     1      10.731  -7.598  -0.841  0.00  0.00    +0.245 A 
ATOM     34  N   UNL     1      10.759  -6.292  -0.577  0.00  0.00    -0.209 NA
ENDBRANCH  28  29
ENDBRANCH  27  28
ENDBRANCH  19  27
ENDBRANCH  15  18
TORSDOF 4
