REMARK  Name = ZINC42015241
REMARK  4 active torsions:
REMARK  status: ('A' for Active; 'I' for Inactive)
REMARK    1  A    between atoms: C_1  and  C_2
REMARK    2  A    between atoms: C_3  and  C_9
REMARK    3  A    between atoms: C_7  and  N_8
REMARK    4  A    between atoms: N_13  and  C_14
REMARK                            x       y       z     vdW  Elec       q    Type
REMARK                         _______ _______ _______ _____ _____    ______ ____
ROOT
ATOM      1  C   UNL     1      -0.053   0.042  -2.490  0.00  0.00    +0.187 A 
ATOM      2  N   UNL     1      -0.141   1.347  -2.638  0.00  0.00    -0.108 NA
ATOM      3  N   UNL     1      -0.073   1.665  -3.880  0.00  0.00    -0.022 NA
ATOM      4  N   UNL     1       0.060   0.612  -4.611  0.00  0.00    -0.039 NA
ATOM      5  N   UNL     1       0.086  -0.490  -3.739  0.00  0.00    -0.190 N 
ENDROOT
BRANCH   5   6
ATOM      6  C   UNL     1       0.221  -1.844  -4.079  0.00  0.00    +0.105 A 
ATOM      7  C   UNL     1      -0.643  -2.786  -3.538  0.00  0.00    +0.032 A 
ATOM      8  C   UNL     1      -0.508  -4.119  -3.875  0.00  0.00    +0.017 A 
ATOM      9  C   UNL     1       0.488  -4.516  -4.750  0.00  0.00    +0.021 A 
ATOM     10  C   UNL     1       1.351  -3.581  -5.291  0.00  0.00    +0.055 A 
ATOM     11  C   UNL     1       1.218  -2.244  -4.962  0.00  0.00    +0.150 A 
ATOM     12  F   UNL     1       2.058  -1.329  -5.494  0.00  0.00    -0.203 F 
ATOM     13 BR   UNL     1       0.669  -6.342  -5.207  0.00  0.00    -0.050 Br
ENDBRANCH   5   6
BRANCH   1  16
ATOM     14  C   UNL     1      -2.127   0.616  -0.558  0.00  0.00    +0.046 C 
ATOM     15  C   UNL     1      -1.086  -0.436  -0.275  0.00  0.00    -0.019 A 
ATOM     16  C   UNL     1      -0.090  -0.705  -1.213  0.00  0.00    +0.026 A 
ATOM     17  C   UNL     1       0.870  -1.680  -0.945  0.00  0.00    +0.012 A 
ATOM     18  C   UNL     1       0.833  -2.377   0.247  0.00  0.00    +0.002 A 
ATOM     19  C   UNL     1      -0.154  -2.111   1.177  0.00  0.00    +0.023 A 
ATOM     20  C   UNL     1      -1.112  -1.137   0.921  0.00  0.00    +0.028 A 
BRANCH  20  21
ATOM     21  N   UNL     1      -2.105  -0.867   1.867  0.00  0.00    -0.358 N 
ATOM     22  H   UNL     1      -2.775  -0.190   1.686  0.00  0.00    +0.142 HD
ATOM     23  H   UNL     1      -2.123  -1.357   2.704  0.00  0.00    +0.142 HD
ENDBRANCH  20  21
ENDBRANCH   1  16
TORSDOF 3
