REMARK  Name = ZINC03580990
REMARK  3 active torsions:
REMARK  status: ('A' for Active; 'I' for Inactive)
REMARK    1  A    between atoms: C_1  and  C_2
REMARK    2  A    between atoms: N_10  and  N_14
REMARK    3  A    between atoms: C_15  and  C_16
REMARK                            x       y       z     vdW  Elec       q    Type
REMARK                         _______ _______ _______ _____ _____    ______ ____
ROOT
ATOM      1  C   UNL     1      -7.912   7.782   0.652  0.00  0.00    +0.007 C 
ATOM      2  C   UNL     1      -6.410   7.528   0.513  0.00  0.00    -0.014 C 
ATOM      3  C   UNL     1      -5.915   6.727   1.719  0.00  0.00    +0.006 C 
ATOM      4  C   UNL     1      -4.410   6.483   1.585  0.00  0.00    +0.035 C 
ATOM      5  C   UNL     1      -4.128   5.718   0.296  0.00  0.00    +0.114 C 
ATOM      6  C   UNL     1      -4.639   6.494  -0.914  0.00  0.00    +0.035 C 
ATOM      7  C   UNL     1      -6.143   6.737  -0.770  0.00  0.00    +0.006 C 
ATOM      8  C   UNL     1      -2.648   5.443   0.159  0.00  0.00    +0.266 C 
ATOM      9  O   UNL     1      -1.754   6.259   0.080  0.00  0.00    -0.271 OA
ATOM     10  N   UNL     1      -2.532   4.099   0.142  0.00  0.00    -0.109 N 
ATOM     11  C   UNL     1      -3.724   3.500   0.243  0.00  0.00    +0.330 C 
ATOM     12  O   UNL     1      -3.877   2.294   0.246  0.00  0.00    -0.250 OA
ATOM     13  N   UNL     1      -4.736   4.383   0.346  0.00  0.00    -0.283 N 
ATOM     14  H   UNL     1      -5.826   4.278   0.449  0.00  0.00    +0.151 HD
ENDROOT
BRANCH  10  15
ATOM     15  N   UNL     1      -1.314   3.416   0.027  0.00  0.00    -0.176 NA
ATOM     16  C   UNL     1      -0.197   4.076   0.034  0.00  0.00    +0.144 C 
BRANCH  16  17
ATOM     17  C   UNL     1       1.087   3.351   0.025  0.00  0.00    +0.065 A 
ATOM     18  C   UNL     1       1.105   1.953   0.015  0.00  0.00    +0.135 A 
ATOM     19  C   UNL     1       2.313   1.281   0.012  0.00  0.00    +0.039 A 
ATOM     20  C   UNL     1       3.502   1.988   0.019  0.00  0.00    +0.006 A 
ATOM     21  C   UNL     1       3.493   3.372   0.030  0.00  0.00    +0.039 A 
ATOM     22  C   UNL     1       2.294   4.059   0.032  0.00  0.00    +0.135 A 
ATOM     23  F   UNL     1       2.287   5.410   0.042  0.00  0.00    -0.205 F 
ATOM     24  F   UNL     1      -0.055   1.260   0.008  0.00  0.00    -0.205 F 
ENDBRANCH  16  17
ENDBRANCH  10  15
TORSDOF 2
