REMARK  Name = ZINC08791968
REMARK  5 active torsions:
REMARK  status: ('A' for Active; 'I' for Inactive)
REMARK    1  A    between atoms: C_4  and  C_7
REMARK    2  A    between atoms: C_7  and  C_8
REMARK    3  A    between atoms: C_8  and  C_10
REMARK    4  A    between atoms: C_8  and  N_26
REMARK    5  A    between atoms: C_27  and  C_29
REMARK                            x       y       z     vdW  Elec       q    Type
REMARK                         _______ _______ _______ _____ _____    ______ ____
ROOT
ATOM      1  C   UNL     1      -0.204  -2.012   1.443  0.00  0.00    +0.236 C 
ATOM      2  O   UNL     1       0.601  -2.747   1.976  0.00  0.00    -0.274 OA
ATOM      3  N   UNL     1      -1.293  -2.528   0.841  0.00  0.00    -0.300 N 
ATOM      4  C   UNL     1      -2.215  -1.664   0.091  0.00  0.00    +0.107 C 
ATOM      5  C   UNL     1      -3.632  -1.871   0.619  0.00  0.00    +0.013 C 
ATOM      6  C   UNL     1      -3.981  -3.359   0.569  0.00  0.00    -0.020 C 
ATOM      7  C   UNL     1      -3.013  -4.148   1.451  0.00  0.00    +0.013 C 
ATOM      8  C   UNL     1      -1.585  -3.966   0.927  0.00  0.00    +0.107 C 
ATOM      9  C   UNL     1      -5.394  -3.565   1.053  0.00  0.00    +0.051 A 
ATOM     10  C   UNL     1      -6.435  -3.796   0.221  0.00  0.00    +0.035 A 
ATOM     11  N   UNL     1      -7.543  -3.933   0.994  0.00  0.00    -0.348 N 
ATOM     12  H   UNL     1      -8.474  -4.113   0.674  0.00  0.00    +0.166 HD
ATOM     13  C   UNL     1      -7.149  -3.781   2.280  0.00  0.00    +0.196 A 
ATOM     14  N   UNL     1      -5.859  -3.561   2.302  0.00  0.00    -0.242 NA
ATOM     15  C   UNL     1      -6.301  -3.870  -1.278  0.00  0.00    +0.036 C 
ATOM     16  C   UNL     1      -4.944  -3.261  -1.661  0.00  0.00    -0.075 C 
ATOM     17  N   UNL     1      -3.878  -3.849  -0.824  0.00  0.00    +0.387 N 
ATOM     18  H   UNL     1      -3.970  -4.872  -0.829  0.00  0.00    -0.085 HD
ATOM     19  H   UNL     1      -2.963  -3.585  -1.207  0.00  0.00    -0.085 HD
ENDROOT
BRANCH   1  20
ATOM     20  C   UNL     1       0.015  -0.521   1.454  0.00  0.00    +0.164 C 
BRANCH  20  21
ATOM     21  N   UNL     1       1.144  -0.200   2.331  0.00  0.00    -0.297 N 
ATOM     22  C   UNL     1       1.230   1.019   2.901  0.00  0.00    +0.280 C 
ATOM     23  O   UNL     1       0.369   1.852   2.688  0.00  0.00    -0.267 OA
ATOM     24  H   UNL     1       1.831  -0.864   2.501  0.00  0.00    +0.150 HD
BRANCH  22  25
ATOM     25  C   UNL     1       2.360   1.340   3.778  0.00  0.00    +0.189 A 
ATOM     26  C   UNL     1       2.568   2.529   4.417  0.00  0.00    +0.054 A 
ATOM     27  C   UNL     1       3.761   2.394   5.143  0.00  0.00    +0.042 A 
ATOM     28  C   UNL     1       4.224   1.144   4.920  0.00  0.00    +0.196 A 
ATOM     29  O   UNL     1       3.374   0.511   4.101  0.00  0.00    -0.458 OA
ENDBRANCH  22  25
ENDBRANCH  20  21
BRANCH  20  30
ATOM     30  C   UNL     1       0.318  -0.039   0.035  0.00  0.00    +0.067 C 
BRANCH  30  34
ATOM     31  C   UNL     1       0.767   4.209   0.037  0.00  0.00    +0.000 A 
ATOM     32  C   UNL     1       1.867   3.398   0.245  0.00  0.00    +0.000 A 
ATOM     33  C   UNL     1       1.722   2.023   0.245  0.00  0.00    +0.004 A 
ATOM     34  C   UNL     1       0.477   1.460   0.036  0.00  0.00    -0.045 A 
ATOM     35  C   UNL     1      -0.622   2.271  -0.178  0.00  0.00    +0.004 A 
ATOM     36  C   UNL     1      -0.478   3.646  -0.172  0.00  0.00    +0.000 A 
ENDBRANCH  30  34
ENDBRANCH  20  30
ENDBRANCH   1  20
TORSDOF 5
