REMARK  Name = ZINC46670826
REMARK  5 active torsions:
REMARK  status: ('A' for Active; 'I' for Inactive)
REMARK    1  A    between atoms: C_1  and  C_2
REMARK    2  A    between atoms: C_4  and  C_8
REMARK    3  A    between atoms: C_5  and  C_7
REMARK    4  A    between atoms: N_10  and  N_11
REMARK    5  A    between atoms: C_12  and  C_14
REMARK                            x       y       z     vdW  Elec       q    Type
REMARK                         _______ _______ _______ _____ _____    ______ ____
ROOT
ATOM      1  N   UNL     1      -3.464  -4.539  -0.007  0.00  0.00    -0.228 N 
ATOM      2  C   UNL     1      -4.811  -4.480   0.000  0.00  0.00    +0.295 C 
ATOM      3  O   UNL     1      -5.372  -3.400   0.009  0.00  0.00    -0.265 OA
ATOM      4  H   UNL     1      -3.017  -5.400  -0.014  0.00  0.00    +0.173 HD
ENDROOT
BRANCH   2   5
ATOM      5  C   UNL     1      -5.601  -5.718  -0.003  0.00  0.00    +0.192 A 
ATOM      6  C   UNL     1      -6.958  -5.780  -0.002  0.00  0.00    +0.063 A 
ATOM      7  C   UNL     1      -7.300  -7.202  -0.007  0.00  0.00    +0.022 A 
ATOM      8  C   UNL     1      -8.501  -7.915  -0.008  0.00  0.00    +0.027 A 
ATOM      9  C   UNL     1      -8.478  -9.281  -0.012  0.00  0.00    +0.019 A 
ATOM     10  C   UNL     1      -7.268  -9.964  -0.015  0.00  0.00    +0.019 A 
ATOM     11  C   UNL     1      -6.073  -9.279  -0.014  0.00  0.00    +0.048 A 
ATOM     12  C   UNL     1      -6.071  -7.889  -0.010  0.00  0.00    +0.136 A 
ATOM     13  O   UNL     1      -5.089  -6.967  -0.013  0.00  0.00    -0.450 OA
ATOM     14 BR   UNL     1     -10.102 -10.249  -0.014  0.00  0.00    -0.050 Br
ENDBRANCH   2   5
BRANCH   1  17
ATOM     15  C   UNL     1      -1.364  -3.418  -0.011  0.00  0.00    +0.263 C 
ATOM     16  O   UNL     1      -0.804  -4.497  -0.020  0.00  0.00    -0.269 OA
ATOM     17  N   UNL     1      -2.711  -3.358  -0.004  0.00  0.00    -0.230 N 
ATOM     18  H   UNL     1      -3.158  -2.498   0.003  0.00  0.00    +0.173 HD
BRANCH  15  22
ATOM     19  C   UNL     1      -0.018   1.503   0.010  0.00  0.00    +0.086 C 
ATOM     20  C   UNL     1       0.002  -0.004   0.002  0.00  0.00    +0.103 A 
ATOM     21  C   UNL     1      -1.081  -0.797   0.003  0.00  0.00    +0.057 A 
ATOM     22  C   UNL     1      -0.571  -2.176  -0.008  0.00  0.00    +0.079 A 
ATOM     23  C   UNL     1       0.788  -2.066  -0.014  0.00  0.00    +0.114 A 
ATOM     24  O   UNL     1       1.106  -0.767  -0.013  0.00  0.00    -0.464 OA
ATOM     25  C   UNL     1       1.766  -3.212  -0.025  0.00  0.00    +0.087 C 
ENDBRANCH  15  22
ENDBRANCH   1  17
TORSDOF 3
