REMARK  Name = ZINC09341581
REMARK  10 active torsions:
REMARK  status: ('A' for Active; 'I' for Inactive)
REMARK    1  A    between atoms: C_1  and  C_2
REMARK    2  A    between atoms: C_2  and  N_3
REMARK    3  A    between atoms: C_5  and  C_17
REMARK    4  A    between atoms: N_19  and  C_20
REMARK    5  A    between atoms: C_20  and  C_22
REMARK    6  A    between atoms: C_20  and  C_23
REMARK    7  A    between atoms: N_25  and  C_26
REMARK    8  A    between atoms: C_26  and  C_28
REMARK    9  A    between atoms: C_26  and  C_29
REMARK   10  A    between atoms: C_29  and  C_30
REMARK                            x       y       z     vdW  Elec       q    Type
REMARK                         _______ _______ _______ _____ _____    ______ ____
ROOT
ATOM      1  C   UNL     1      -6.666   2.173   0.107  0.00  0.00    +0.250 C 
ATOM      2  O   UNL     1      -7.147   1.481   0.984  0.00  0.00    -0.270 OA
ATOM      3  N   UNL     1      -5.344   2.115  -0.148  0.00  0.00    -0.300 N 
ATOM      4  H   UNL     1      -4.960   2.666  -0.847  0.00  0.00    +0.150 HD
ENDROOT
BRANCH   1   7
ATOM      5  N   UNL     1      -7.745   4.694  -2.405  0.00  0.00    -0.346 N 
ATOM      6  C   UNL     1      -6.993   3.863  -1.673  0.00  0.00    +0.103 A 
ATOM      7  C   UNL     1      -7.527   3.074  -0.676  0.00  0.00    +0.100 A 
ATOM      8  C   UNL     1      -8.973   3.142  -0.411  0.00  0.00    +0.202 A 
ATOM      9  O   UNL     1      -9.493   2.461   0.455  0.00  0.00    -0.286 OA
ATOM     10  C   UNL     1      -9.765   4.073  -1.234  0.00  0.00    +0.050 A 
ATOM     11  C   UNL     1      -9.106   4.827  -2.221  0.00  0.00    +0.056 A 
ATOM     12  C   UNL     1      -9.840   5.708  -3.009  0.00  0.00    +0.076 A 
ATOM     13  C   UNL     1     -11.204   5.836  -2.820  0.00  0.00    +0.168 A 
ATOM     14  C   UNL     1     -11.857   5.082  -1.837  0.00  0.00    +0.167 A 
ATOM     15  C   UNL     1     -11.142   4.205  -1.048  0.00  0.00    +0.063 A 
ATOM     16  O   UNL     1     -13.186   5.396  -1.860  0.00  0.00    -0.453 OA
ATOM     17  C   UNL     1     -13.274   6.640  -2.579  0.00  0.00    +0.466 C 
ATOM     18  O   UNL     1     -12.128   6.616  -3.451  0.00  0.00    -0.453 OA
BRANCH   5  20
ATOM     19  C   UNL     1      -6.749   6.877  -2.882  0.00  0.00    +0.027 C 
ATOM     20  C   UNL     1      -7.096   5.497  -3.445  0.00  0.00    +0.118 C 
ENDBRANCH   5  20
ENDBRANCH   1   7
BRANCH   3  21
ATOM     21  C   UNL     1      -4.487   1.218   0.631  0.00  0.00    +0.156 C 
ATOM     22  C   UNL     1      -4.518  -0.182   0.014  0.00  0.00    +0.038 C 
BRANCH  21  23
ATOM     23  C   UNL     1      -3.073   1.740   0.621  0.00  0.00    +0.233 C 
ATOM     24  O   UNL     1      -2.807   2.760   0.021  0.00  0.00    -0.274 OA
ATOM     25  N   UNL     1      -2.103   1.072   1.277  0.00  0.00    -0.311 N 
ATOM     26  H   UNL     1      -2.316   0.256   1.757  0.00  0.00    +0.149 HD
BRANCH  25  27
ATOM     27  C   UNL     1      -0.729   1.579   1.267  0.00  0.00    +0.074 C 
ATOM     28  C   UNL     1      -0.013   1.086   0.008  0.00  0.00    +0.028 C 
BRANCH  27  29
ATOM     29  C   UNL     1       0.011   1.072   2.506  0.00  0.00    +0.059 C 
BRANCH  29  30
ATOM     30  C   UNL     1      -0.621   1.658   3.743  0.00  0.00    -0.021 A 
ATOM     31  C   UNL     1      -0.224   2.762   4.395  0.00  0.00    +0.087 A 
ATOM     32  N   UNL     1      -1.039   2.985   5.472  0.00  0.00    -0.360 N 
ATOM     33  H   UNL     1      -0.949   3.724   6.095  0.00  0.00    +0.165 HD
ATOM     34  C   UNL     1      -2.003   2.005   5.541  0.00  0.00    +0.047 A 
ATOM     35  C   UNL     1      -1.787   1.134   4.457  0.00  0.00    +0.003 A 
ATOM     36  C   UNL     1      -2.628   0.035   4.268  0.00  0.00    +0.010 A 
ATOM     37  C   UNL     1      -3.659  -0.186   5.136  0.00  0.00    +0.001 A 
ATOM     38  C   UNL     1      -3.879   0.672   6.205  0.00  0.00    +0.002 A 
ATOM     39  C   UNL     1      -3.057   1.758   6.414  0.00  0.00    +0.026 A 
ENDBRANCH  29  30
ENDBRANCH  27  29
ENDBRANCH  25  27
ENDBRANCH  21  23
ENDBRANCH   3  21
TORSDOF 7
