REMARK  Name = ZINC39710318
REMARK  12 active torsions:
REMARK  status: ('A' for Active; 'I' for Inactive)
REMARK    1  A    between atoms: C_1  and  C_2
REMARK    2  A    between atoms: C_9  and  C_14
REMARK    3  A    between atoms: C_14  and  C_16
REMARK    4  A    between atoms: C_14  and  N_26
REMARK    5  A    between atoms: N_21  and  C_22
REMARK    6  A    between atoms: C_22  and  C_23
REMARK    7  A    between atoms: C_22  and  C_24
REMARK    8  A    between atoms: C_22  and  C_25
REMARK    9  A    between atoms: N_26  and  C_27
REMARK   10  A    between atoms: N_26  and  C_35
REMARK   11  A    between atoms: C_27  and  C_28
REMARK   12  A    between atoms: C_35  and  C_36
REMARK                            x       y       z     vdW  Elec       q    Type
REMARK                         _______ _______ _______ _____ _____    ______ ____
ROOT
ATOM      1  C   UNL     1      -1.018  -5.073   3.095  0.00  0.00    -0.008 C 
ENDROOT
BRANCH   1  10
ATOM      2  C   UNL     1       2.435  -6.916  -2.878  0.00  0.00    +0.044 C 
ATOM      3  C   UNL     1       2.356  -6.647  -1.398  0.00  0.00    -0.050 A 
ATOM      4  C   UNL     1       3.303  -7.220  -0.548  0.00  0.00    +0.005 A 
ATOM      5  C   UNL     1       3.296  -7.022   0.796  0.00  0.00    +0.024 A 
ATOM      6  C   UNL     1       2.311  -6.215   1.394  0.00  0.00    +0.040 A 
ATOM      7  N   UNL     1       2.314  -6.027   2.714  0.00  0.00    -0.285 N 
ATOM      8  C   UNL     1       1.419  -5.282   3.340  0.00  0.00    +0.223 C 
ATOM      9  O   UNL     1       1.473  -5.148   4.548  0.00  0.00    -0.275 OA
ATOM     10  C   UNL     1       0.329  -4.596   2.548  0.00  0.00    +0.088 C 
ATOM     11  C   UNL     1       0.321  -4.805   1.047  0.00  0.00    -0.006 C 
ATOM     12  C   UNL     1       1.298  -5.597   0.521  0.00  0.00    -0.007 A 
ATOM     13  C   UNL     1       1.368  -5.848  -0.919  0.00  0.00    +0.012 A 
ATOM     14  H   UNL     1       3.006  -6.459   3.240  0.00  0.00    +0.155 HD
ENDBRANCH   1  10
BRANCH   1  15
ATOM     15  C   UNL     1      -1.435  -4.185   4.270  0.00  0.00    +0.205 C 
ATOM     16  N   UNL     1      -2.745  -4.601   4.787  0.00  0.00    -0.152 NA
ATOM     17  N   UNL     1      -3.538  -3.665   4.665  0.00  0.00    -0.070 NA
ATOM     18  N   UNL     1      -2.958  -2.535   4.090  0.00  0.00    -0.179 N 
ATOM     19  N   UNL     1      -1.637  -2.793   3.818  0.00  0.00    -0.183 NA
ATOM     20  H   UNL     1      -3.415  -1.698   3.911  0.00  0.00    +0.191 HD
BRANCH  19  21
ATOM     21  C   UNL     1      -0.757  -1.870   4.547  0.00  0.00    +0.035 C 
ATOM     22  C   UNL     1       0.702  -2.184   4.211  0.00  0.00    +0.029 C 
ATOM     23  C   UNL     1      -1.076  -0.430   4.138  0.00  0.00    +0.029 C 
ATOM     24  C   UNL     1      -0.980  -2.034   6.052  0.00  0.00    +0.029 C 
ENDBRANCH  19  21
ENDBRANCH   1  15
BRANCH   1  25
ATOM     25  N   UNL     1      -0.897  -6.464   3.551  0.00  0.00    +0.392 N 
ATOM     26  H   UNL     1      -0.266  -6.507   4.337  0.00  0.00    -0.080 HD
BRANCH  25  27
ATOM     27  C   UNL     1      -0.374  -7.294   2.458  0.00  0.00    -0.042 C 
BRANCH  27  28
ATOM     28  C   UNL     1      -0.084  -8.680   2.974  0.00  0.00    -0.064 A 
ATOM     29  C   UNL     1       1.115  -8.942   3.611  0.00  0.00    +0.003 A 
ATOM     30  C   UNL     1       1.382 -10.213   4.085  0.00  0.00    +0.020 A 
ATOM     31  C   UNL     1       0.451 -11.222   3.920  0.00  0.00    +0.041 A 
ATOM     32  C   UNL     1      -0.748 -10.959   3.282  0.00  0.00    +0.020 A 
ATOM     33  C   UNL     1      -1.017  -9.687   2.814  0.00  0.00    +0.003 A 
ATOM     34 CL   UNL     1       0.786 -12.818   4.514  0.00  0.00    -0.084 Cl
ENDBRANCH  27  28
ENDBRANCH  25  27
BRANCH  25  35
ATOM     35  C   UNL     1      -2.218  -6.963   3.956  0.00  0.00    -0.002 C 
BRANCH  35  36
ATOM     36  C   UNL     1      -3.219  -6.677   2.866  0.00  0.00    +0.089 A 
ATOM     37  C   UNL     1      -3.605  -7.537   1.906  0.00  0.00    +0.042 A 
ATOM     38  C   UNL     1      -4.551  -6.858   1.104  0.00  0.00    +0.041 A 
ATOM     39  C   UNL     1      -4.687  -5.624   1.622  0.00  0.00    +0.195 A 
ATOM     40  O   UNL     1      -3.882  -5.522   2.693  0.00  0.00    -0.470 OA
ENDBRANCH  35  36
ENDBRANCH  25  35
ENDBRANCH   1  25
TORSDOF 8
