REMARK  Name = ZINC40980570
REMARK  11 active torsions:
REMARK  status: ('A' for Active; 'I' for Inactive)
REMARK    1  A    between atoms: C_1  and  C_2
REMARK    2  A    between atoms: C_2  and  C_3
REMARK    3  A    between atoms: C_3  and  S_4
REMARK    4  A    between atoms: S_4  and  C_5
REMARK    5  A    between atoms: C_10  and  C_19
REMARK    6  A    between atoms: C_12  and  C_16
REMARK    7  A    between atoms: C_13  and  C_15
REMARK    8  A    between atoms: C_21  and  O_28
REMARK    9  A    between atoms: C_22  and  O_26
REMARK   10  A    between atoms: O_26  and  C_27
REMARK   11  A    between atoms: O_28  and  C_29
REMARK                            x       y       z     vdW  Elec       q    Type
REMARK                         _______ _______ _______ _____ _____    ______ ____
ROOT
ATOM      1  C   UNL     1      -3.193  -2.614  -0.411  0.00  0.00    +0.210 A 
ATOM      2  N   UNL     1      -4.272  -1.821  -0.330  0.00  0.00    -0.187 NA
ATOM      3  C   UNL     1      -5.337  -2.553  -0.143  0.00  0.00    +0.219 A 
ATOM      4  N   UNL     1      -4.954  -3.853  -0.104  0.00  0.00    -0.220 N 
ATOM      5  N   UNL     1      -3.571  -3.867  -0.281  0.00  0.00    -0.141 NA
ATOM      6  C   UNL     1      -5.884  -4.964   0.081  0.00  0.00    +0.177 C 
ATOM      7  C   UNL     1      -7.224  -4.430   0.510  0.00  0.00    +0.060 C 
ATOM      8  C   UNL     1      -7.546  -3.129   0.453  0.00  0.00    +0.018 C 
ATOM      9  N   UNL     1      -6.665  -2.176   0.005  0.00  0.00    -0.287 N 
ATOM     10  C   UNL     1      -8.921  -2.700   0.896  0.00  0.00    +0.061 C 
ATOM     11  H   UNL     1      -6.959  -1.275  -0.200  0.00  0.00    +0.155 HD
ENDROOT
BRANCH   6  12
ATOM     12  C   UNL     1      -6.034  -5.715  -1.217  0.00  0.00    -0.014 A 
ATOM     13  C   UNL     1      -5.701  -7.056  -1.280  0.00  0.00    +0.055 A 
ATOM     14  C   UNL     1      -5.838  -7.748  -2.472  0.00  0.00    +0.163 A 
ATOM     15  C   UNL     1      -6.313  -7.092  -3.604  0.00  0.00    +0.175 A 
ATOM     16  C   UNL     1      -6.646  -5.748  -3.534  0.00  0.00    +0.063 A 
ATOM     17  C   UNL     1      -6.510  -5.064  -2.339  0.00  0.00    +0.025 A 
ATOM     18 BR   UNL     1      -7.291  -4.852  -5.069  0.00  0.00    -0.046 Br
BRANCH  15  19
ATOM     19  O   UNL     1      -6.449  -7.768  -4.777  0.00  0.00    -0.490 OA
ATOM     20  C   UNL     1      -7.707  -8.402  -5.018  0.00  0.00    +0.277 C 
ENDBRANCH  15  19
BRANCH  14  21
ATOM     21  O   UNL     1      -5.510  -9.066  -2.537  0.00  0.00    -0.491 OA
ATOM     22  C   UNL     1      -5.029  -9.674  -1.336  0.00  0.00    +0.277 C 
ENDBRANCH  14  21
ENDBRANCH   6  12
BRANCH   7  23
ATOM     23  C   UNL     1      -8.190  -5.343   0.996  0.00  0.00    +0.241 C 
ATOM     24  O   UNL     1      -8.137  -5.728   2.150  0.00  0.00    -0.271 OA
ATOM     25  N   UNL     1      -9.168  -5.786   0.182  0.00  0.00    -0.325 N 
ATOM     26  H   UNL     1      -9.210  -5.479  -0.738  0.00  0.00    +0.145 HD
ATOM     27  H   UNL     1      -9.830  -6.412   0.515  0.00  0.00    +0.145 HD
ENDBRANCH   7  23
BRANCH   1  28
ATOM     28  S   UNL     1      -1.537  -2.065  -0.659  0.00  0.00    -0.084 S 
BRANCH  28  29
ATOM     29  C   UNL     1      -1.683  -0.260  -0.758  0.00  0.00    +0.077 C 
BRANCH  29  31
ATOM     30  C   UNL     1      -0.421   1.876  -1.059  0.00  0.00    +0.004 C 
ATOM     31  C   UNL     1      -0.298   0.353  -0.975  0.00  0.00    +0.008 C 
ENDBRANCH  29  31
ENDBRANCH  28  29
ENDBRANCH   1  28
TORSDOF 7
