REMARK  Name = ZINC58723461
REMARK  11 active torsions:
REMARK  status: ('A' for Active; 'I' for Inactive)
REMARK    1  A    between atoms: C_1  and  C_2
REMARK    2  A    between atoms: C_5  and  O_34
REMARK    3  A    between atoms: C_6  and  C_8
REMARK    4  A    between atoms: C_8  and  N_9
REMARK    5  A    between atoms: N_9  and  C_10
REMARK    6  A    between atoms: N_9  and  C_17
REMARK    7  A    between atoms: C_10  and  C_11
REMARK    8  A    between atoms: C_18  and  N_33
REMARK    9  A    between atoms: N_19  and  C_26
REMARK   10  A    between atoms: C_26  and  C_27
REMARK   11  A    between atoms: O_34  and  C_35
REMARK                            x       y       z     vdW  Elec       q    Type
REMARK                         _______ _______ _______ _____ _____    ______ ____
ROOT
ATOM      1  C   UNL     1       1.796  -4.604   2.141  0.00  0.00    +0.134 A 
ATOM      2  C   UNL     1       2.823  -4.644   1.238  0.00  0.00    +0.127 A 
ATOM      3  N   UNL     1       3.158  -5.843   0.650  0.00  0.00    -0.276 N 
ATOM      4  C   UNL     1       2.483  -6.965   0.959  0.00  0.00    +0.331 A 
ATOM      5  O   UNL     1       2.793  -8.015   0.430  0.00  0.00    -0.246 OA
ATOM      6  N   UNL     1       1.471  -6.943   1.845  0.00  0.00    -0.273 N 
ATOM      7  H   UNL     1       0.998  -7.764   2.054  0.00  0.00    +0.173 HD
ATOM      8  C   UNL     1       1.112  -5.794   2.450  0.00  0.00    +0.277 A 
ATOM      9  O   UNL     1       0.196  -5.784   3.256  0.00  0.00    -0.266 OA
ENDROOT
BRANCH   2  10
ATOM     10  N   UNL     1       3.514  -3.497   0.920  0.00  0.00    -0.343 N 
ATOM     11  H   UNL     1       3.311  -2.666   1.378  0.00  0.00    +0.144 HD
ATOM     12  H   UNL     1       4.203  -3.519   0.238  0.00  0.00    +0.144 HD
ENDBRANCH   2  10
BRANCH   1  13
ATOM     13  N   UNL     1       1.431  -3.386   2.760  0.00  0.00    -0.314 N 
BRANCH  13  14
ATOM     14  C   UNL     1       0.122  -2.788   2.486  0.00  0.00    +0.144 C 
BRANCH  14  20
ATOM     15  C   UNL     1       0.566   1.761   0.450  0.00  0.00    +0.044 C 
ATOM     16  C   UNL     1       0.430   0.269   0.291  0.00  0.00    -0.050 A 
ATOM     17  C   UNL     1       0.392  -0.290  -0.973  0.00  0.00    +0.007 A 
ATOM     18  C   UNL     1       0.266  -1.657  -1.122  0.00  0.00    +0.046 A 
ATOM     19  C   UNL     1       0.178  -2.471  -0.001  0.00  0.00    +0.125 A 
ATOM     20  C   UNL     1       0.217  -1.908   1.266  0.00  0.00    +0.012 A 
ATOM     21  C   UNL     1       0.348  -0.540   1.409  0.00  0.00    +0.012 A 
BRANCH  19  22
ATOM     22  O   UNL     1       0.054  -3.816  -0.145  0.00  0.00    -0.495 OA
ATOM     23  C   UNL     1       0.021  -4.326  -1.479  0.00  0.00    +0.277 C 
ENDBRANCH  19  22
ENDBRANCH  14  20
ENDBRANCH  13  14
BRANCH  13  24
ATOM     24  C   UNL     1       2.362  -2.721   3.675  0.00  0.00    +0.140 C 
BRANCH  24  25
ATOM     25  C   UNL     1       2.184  -3.277   5.064  0.00  0.00    -0.030 A 
ATOM     26  C   UNL     1       1.205  -2.763   5.894  0.00  0.00    +0.005 A 
ATOM     27  C   UNL     1       1.041  -3.272   7.168  0.00  0.00    +0.000 A 
ATOM     28  C   UNL     1       1.856  -4.297   7.613  0.00  0.00    +0.000 A 
ATOM     29  C   UNL     1       2.834  -4.811   6.783  0.00  0.00    +0.000 A 
ATOM     30  C   UNL     1       2.995  -4.305   5.507  0.00  0.00    +0.005 A 
ENDBRANCH  24  25
ENDBRANCH  13  24
ENDBRANCH   1  13
BRANCH   3  31
ATOM     31  C   UNL     1       4.255  -5.897  -0.319  0.00  0.00    +0.163 C 
BRANCH  31  32
ATOM     32  C   UNL     1       5.549  -6.176   0.402  0.00  0.00    -0.028 A 
ATOM     33  C   UNL     1       6.317  -5.128   0.874  0.00  0.00    +0.005 A 
ATOM     34  C   UNL     1       7.504  -5.384   1.536  0.00  0.00    +0.000 A 
ATOM     35  C   UNL     1       7.921  -6.688   1.726  0.00  0.00    +0.000 A 
ATOM     36  C   UNL     1       7.153  -7.735   1.255  0.00  0.00    +0.000 A 
ATOM     37  C   UNL     1       5.964  -7.480   0.597  0.00  0.00    +0.005 A 
ENDBRANCH  31  32
ENDBRANCH   3  31
TORSDOF 9
