REMARK  Name = ZINC00715194
REMARK  13 active torsions:
REMARK  status: ('A' for Active; 'I' for Inactive)
REMARK    1  A    between atoms: C_1  and  C_2
REMARK    2  A    between atoms: C_3  and  C_19
REMARK    3  A    between atoms: C_4  and  C_10
REMARK    4  A    between atoms: C_13  and  N_16
REMARK    5  A    between atoms: N_16  and  C_17
REMARK    6  A    between atoms: N_16  and  C_18
REMARK    7  A    between atoms: C_19  and  O_21
REMARK    8  A    between atoms: O_21  and  C_22
REMARK    9  A    between atoms: C_22  and  C_24
REMARK   10  A    between atoms: C_22  and  C_25
REMARK   11  A    between atoms: C_25  and  C_26
REMARK   12  A    between atoms: C_25  and  C_27
REMARK   13  A    between atoms: C_25  and  C_28
REMARK                            x       y       z     vdW  Elec       q    Type
REMARK                         _______ _______ _______ _____ _____    ______ ____
ROOT
ATOM      1  C   UNL     1      -4.783   3.527   2.938  0.00  0.00    +0.061 C 
ATOM      2  C   UNL     1      -4.271   3.396   1.527  0.00  0.00    +0.021 C 
ATOM      3  C   UNL     1      -3.036   3.850   1.224  0.00  0.00    +0.078 C 
ATOM      4  C   UNL     1      -2.561   3.699  -0.207  0.00  0.00    +0.143 C 
ATOM      5  N   UNL     1      -3.491   3.064  -1.155  0.00  0.00    -0.288 N 
ATOM      6  C   UNL     1      -4.694   2.660  -0.701  0.00  0.00    +0.304 C 
ATOM      7  O   UNL     1      -5.469   2.135  -1.476  0.00  0.00    -0.252 OA
ATOM      8  N   UNL     1      -5.063   2.819   0.576  0.00  0.00    -0.273 N 
ATOM      9  H   UNL     1      -3.244   2.940  -2.085  0.00  0.00    +0.151 HD
ATOM     10  H   UNL     1      -5.943   2.507   0.840  0.00  0.00    +0.156 HD
ENDROOT
BRANCH   4  11
ATOM     11  C   UNL     1      -1.289   2.890  -0.191  0.00  0.00    -0.022 A 
ATOM     12  C   UNL     1      -1.351   1.509  -0.167  0.00  0.00    +0.007 A 
ATOM     13  C   UNL     1      -0.188   0.765  -0.147  0.00  0.00    +0.023 A 
ATOM     14  C   UNL     1       1.045   1.405  -0.161  0.00  0.00    +0.029 A 
ATOM     15  C   UNL     1       1.103   2.793  -0.190  0.00  0.00    +0.023 A 
ATOM     16  C   UNL     1      -0.064   3.531  -0.204  0.00  0.00    +0.007 A 
BRANCH  14  17
ATOM     17  N   UNL     1       2.224   0.655  -0.147  0.00  0.00    -0.336 N 
ATOM     18  C   UNL     1       2.164  -0.799   0.017  0.00  0.00    +0.129 C 
ATOM     19  C   UNL     1       3.519   1.323  -0.295  0.00  0.00    +0.129 C 
ENDBRANCH  14  17
ENDBRANCH   4  11
BRANCH   3  20
ATOM     20  C   UNL     1      -2.214   4.447   2.208  0.00  0.00    +0.339 C 
ATOM     21  O   UNL     1      -2.065   5.655   2.226  0.00  0.00    -0.245 OA
BRANCH  20  22
ATOM     22  O   UNL     1      -1.596   3.678   3.128  0.00  0.00    -0.458 OA
BRANCH  22  23
ATOM     23  C   UNL     1      -0.871   4.353   4.158  0.00  0.00    +0.179 C 
ATOM     24  C   UNL     1       0.538   4.680   3.659  0.00  0.00    +0.052 C 
BRANCH  23  25
ATOM     25  C   UNL     1      -0.779   3.453   5.392  0.00  0.00    -0.001 C 
ATOM     26  C   UNL     1       0.046   2.209   5.055  0.00  0.00    +0.014 C 
ATOM     27  C   UNL     1      -0.105   4.219   6.532  0.00  0.00    +0.014 C 
ATOM     28  C   UNL     1      -2.186   3.031   5.821  0.00  0.00    +0.014 C 
ENDBRANCH  23  25
ENDBRANCH  22  23
ENDBRANCH  20  22
ENDBRANCH   3  20
TORSDOF 6
