REMARK  Name = ZINC04151468
REMARK  2 active torsions:
REMARK  status: ('A' for Active; 'I' for Inactive)
REMARK    1  A    between atoms: C_14  and  C_28
REMARK    2  A    between atoms: C_19  and  C_21
REMARK                            x       y       z     vdW  Elec       q    Type
REMARK                         _______ _______ _______ _____ _____    ______ ____
ROOT
ATOM      1  C   UNL     1       7.515   4.665  -1.478  0.00  0.00    +0.000 A 
ATOM      2  C   UNL     1       6.797   3.719  -0.777  0.00  0.00    +0.000 A 
ATOM      3  C   UNL     1       5.543   3.998  -0.251  0.00  0.00    +0.004 A 
ATOM      4  C   UNL     1       5.035   5.270  -0.454  0.00  0.00    -0.036 A 
ATOM      5  C   UNL     1       5.758   6.224  -1.188  0.00  0.00    -0.043 A 
ATOM      6  C   UNL     1       7.010   5.940  -1.699  0.00  0.00    +0.004 A 
ATOM      7  C   UNL     1       4.937   7.487  -1.327  0.00  0.00    +0.042 C 
ATOM      8  C   UNL     1       3.506   6.997  -1.089  0.00  0.00    +0.030 C 
ATOM      9  C   UNL     1       3.766   5.893  -0.014  0.00  0.00    +0.056 C 
ATOM     10  C   UNL     1       2.514   5.085   0.010  0.00  0.00    -0.018 A 
ATOM     11  C   UNL     1       2.476   3.721  -0.002  0.00  0.00    +0.021 A 
ATOM     12  C   UNL     1       1.238   3.064   0.007  0.00  0.00    +0.064 A 
ATOM     13  C   UNL     1       0.058   3.813   0.016  0.00  0.00    +0.017 A 
ATOM     14  C   UNL     1       0.104   5.178   0.034  0.00  0.00    +0.024 A 
ATOM     15  C   UNL     1       1.326   5.840   0.033  0.00  0.00    +0.031 A 
ATOM     16  N   UNL     1       1.391   7.227   0.067  0.00  0.00    -0.336 N 
ATOM     17  C   UNL     1       2.535   7.982  -0.474  0.00  0.00    +0.105 C 
ATOM     18  H   UNL     1       0.654   7.719   0.462  0.00  0.00    +0.147 HD
ENDROOT
BRANCH  17  19
ATOM     19  C   UNL     1       2.055   8.947  -1.528  0.00  0.00    -0.026 A 
ATOM     20  C   UNL     1       2.613  10.209  -1.615  0.00  0.00    +0.005 A 
ATOM     21  C   UNL     1       2.174  11.094  -2.582  0.00  0.00    +0.002 A 
ATOM     22  C   UNL     1       1.176  10.717  -3.462  0.00  0.00    +0.020 A 
ATOM     23  C   UNL     1       0.618   9.455  -3.375  0.00  0.00    +0.041 A 
ATOM     24  C   UNL     1       1.062   8.567  -2.411  0.00  0.00    +0.025 A 
ATOM     25 CL   UNL     1      -0.635   8.981  -4.480  0.00  0.00    -0.084 Cl
ENDBRANCH  17  19
BRANCH  12  26
ATOM     26  C   UNL     1       1.181   1.591  -0.001  0.00  0.00    +0.387 C 
ATOM     27  O   UNL     1       2.209   0.943  -0.014  0.00  0.00    -0.241 OA
ATOM     28  O   UNL     1      -0.011   0.963   0.007  0.00  0.00    -0.241 OA
ENDBRANCH  12  26
TORSDOF 2
