REMARK  Name = ZINC40659371
REMARK  7 active torsions:
REMARK  status: ('A' for Active; 'I' for Inactive)
REMARK    1  A    between atoms: C_4  and  C_7
REMARK    2  A    between atoms: C_7  and  C_8
REMARK    3  A    between atoms: C_7  and  C_14
REMARK    4  A    between atoms: N_16  and  N_17
REMARK    5  A    between atoms: C_19  and  N_33
REMARK    6  A    between atoms: C_20  and  N_24
REMARK    7  A    between atoms: N_24  and  C_25
REMARK                            x       y       z     vdW  Elec       q    Type
REMARK                         _______ _______ _______ _____ _____    ______ ____
ROOT
ATOM      1  N   UNL     1       3.993  -3.001  -1.926  0.00  0.00    -0.246 N 
ATOM      2  C   UNL     1       5.029  -3.909  -2.085  0.00  0.00    +0.171 A 
ATOM      3  C   UNL     1       5.102  -4.705  -3.224  0.00  0.00    +0.207 A 
ATOM      4  C   UNL     1       6.161  -5.599  -3.336  0.00  0.00    +0.159 A 
ATOM      5  N   UNL     1       7.061  -5.662  -2.356  0.00  0.00    -0.218 NA
ATOM      6  C   UNL     1       6.957  -4.891  -1.293  0.00  0.00    +0.225 A 
ATOM      7  N   UNL     1       5.972  -4.028  -1.152  0.00  0.00    -0.217 NA
ATOM      8  H   UNL     1       3.310  -2.920  -2.610  0.00  0.00    +0.172 HD
ENDROOT
BRANCH   1  11
ATOM      9  C   UNL     1       2.926  -1.319  -0.623  0.00  0.00    +0.241 C 
ATOM     10  O   UNL     1       2.072  -1.218  -1.478  0.00  0.00    -0.273 OA
ATOM     11  N   UNL     1       3.933  -2.201  -0.777  0.00  0.00    -0.235 N 
ATOM     12  H   UNL     1       4.616  -2.282  -0.093  0.00  0.00    +0.173 HD
BRANCH   9  13
ATOM     13  C   UNL     1       2.861  -0.458   0.613  0.00  0.00    +0.136 C 
BRANCH  13  17
ATOM     14  C   UNL     1      -0.575   2.072   0.405  0.00  0.00    +0.000 A 
ATOM     15  C   UNL     1       0.677   2.621   0.614  0.00  0.00    +0.000 A 
ATOM     16  C   UNL     1       1.788   1.802   0.681  0.00  0.00    +0.005 A 
ATOM     17  C   UNL     1       1.649   0.434   0.540  0.00  0.00    -0.031 A 
ATOM     18  C   UNL     1       0.398  -0.115   0.332  0.00  0.00    +0.005 A 
ATOM     19  C   UNL     1      -0.714   0.704   0.263  0.00  0.00    +0.000 A 
ENDBRANCH  13  17
BRANCH  13  20
ATOM     20  C   UNL     1       2.766  -1.337   1.833  0.00  0.00    -0.031 A 
ATOM     21  C   UNL     1       1.816  -2.339   1.890  0.00  0.00    +0.005 A 
ATOM     22  C   UNL     1       1.728  -3.146   3.010  0.00  0.00    +0.000 A 
ATOM     23  C   UNL     1       2.591  -2.950   4.072  0.00  0.00    +0.000 A 
ATOM     24  C   UNL     1       3.542  -1.948   4.014  0.00  0.00    +0.000 A 
ATOM     25  C   UNL     1       3.632  -1.145   2.893  0.00  0.00    +0.005 A 
ENDBRANCH  13  20
ENDBRANCH   9  13
ENDBRANCH   1  11
BRANCH   3  26
ATOM     26  N   UNL     1       4.078  -4.602  -4.289  0.00  0.00    +0.063 N 
ATOM     27  O   UNL     1       4.231  -3.824  -5.201  0.00  0.00    -0.126 OA
ATOM     28  O   UNL     1       3.090  -5.297  -4.245  0.00  0.00    -0.126 OA
ENDBRANCH   3  26
BRANCH   4  29
ATOM     29  N   UNL     1       6.279  -6.415  -4.452  0.00  0.00    -0.295 N 
ATOM     30  H   UNL     1       5.671  -6.304  -5.200  0.00  0.00    +0.154 HD
BRANCH  29  31
ATOM     31  C   UNL     1       7.274  -7.399  -4.498  0.00  0.00    +0.068 A 
ATOM     32  C   UNL     1       7.863  -7.848  -3.325  0.00  0.00    +0.029 A 
ATOM     33  C   UNL     1       8.845  -8.819  -3.372  0.00  0.00    +0.040 A 
ATOM     34  C   UNL     1       9.242  -9.345  -4.590  0.00  0.00    +0.126 A 
ATOM     35  C   UNL     1       8.656  -8.901  -5.763  0.00  0.00    +0.078 A 
ATOM     36  C   UNL     1       7.669  -7.933  -5.720  0.00  0.00    +0.147 A 
ATOM     37  F   UNL     1       7.094  -7.503  -6.864  0.00  0.00    -0.203 F 
ATOM     38  F   UNL     1      10.202 -10.294  -4.633  0.00  0.00    -0.205 F 
ENDBRANCH  29  31
ENDBRANCH   4  29
TORSDOF 7
