REMARK  Name = ZINC09138144
REMARK  9 active torsions:
REMARK  status: ('A' for Active; 'I' for Inactive)
REMARK    1  A    between atoms: C_1  and  O_2
REMARK    2  A    between atoms: O_2  and  C_3
REMARK    3  A    between atoms: C_8  and  C_9
REMARK    4  A    between atoms: C_9  and  N_10
REMARK    5  A    between atoms: C_11  and  C_13
REMARK    6  A    between atoms: C_13  and  C_15
REMARK    7  A    between atoms: C_13  and  N_26
REMARK    8  A    between atoms: C_15  and  C_16
REMARK    9  A    between atoms: C_27  and  C_29
REMARK                            x       y       z     vdW  Elec       q    Type
REMARK                         _______ _______ _______ _____ _____    ______ ____
ROOT
ATOM      1  C   UNL     1      -6.664  -0.546  -0.755  0.00  0.00    +0.163 C 
ENDROOT
BRANCH   1   3
ATOM      2  N   UNL     1      -7.696  -2.694  -1.415  0.00  0.00    -0.310 N 
ATOM      3  C   UNL     1      -6.642  -1.859  -1.494  0.00  0.00    +0.234 C 
ATOM      4  O   UNL     1      -5.675  -2.164  -2.160  0.00  0.00    -0.274 OA
ATOM      5  H   UNL     1      -8.470  -2.450  -0.883  0.00  0.00    +0.149 HD
BRANCH   2   6
ATOM      6  C   UNL     1      -7.675  -3.971  -2.134  0.00  0.00    +0.143 C 
BRANCH   6  12
ATOM      7  C   UNL     1     -10.107  -4.372  -2.589  0.00  0.00    +0.125 A 
ATOM      8  C   UNL     1     -11.292  -5.056  -2.355  0.00  0.00    +0.046 A 
ATOM      9  C   UNL     1     -11.329  -6.071  -1.420  0.00  0.00    +0.004 A 
ATOM     10  C   UNL     1     -10.187  -6.407  -0.716  0.00  0.00    +0.001 A 
ATOM     11  C   UNL     1      -9.004  -5.731  -0.951  0.00  0.00    +0.009 A 
ATOM     12  C   UNL     1      -8.963  -4.711  -1.882  0.00  0.00    +0.011 A 
BRANCH   7  14
ATOM     13  C   UNL     1     -11.284  -3.079  -4.200  0.00  0.00    +0.277 C 
ATOM     14  O   UNL     1     -10.068  -3.373  -3.510  0.00  0.00    -0.495 OA
ENDBRANCH   7  14
ENDBRANCH   6  12
ENDBRANCH   2   6
ENDBRANCH   1   3
BRANCH   1  15
ATOM     15  N   UNL     1      -5.411   0.173  -1.000  0.00  0.00    -0.305 N 
ATOM     16  C   UNL     1      -4.969   1.081  -0.107  0.00  0.00    +0.200 C 
ATOM     17  O   UNL     1      -5.609   1.301   0.900  0.00  0.00    -0.278 OA
ATOM     18  H   UNL     1      -4.900  -0.003  -1.805  0.00  0.00    +0.149 HD
BRANCH  16  19
ATOM     19  C   UNL     1      -3.681   1.820  -0.358  0.00  0.00    +0.021 C 
ATOM     20  C   UNL     1      -2.496   0.940   0.042  0.00  0.00    +0.028 C 
ATOM     21  C   UNL     1      -1.225   1.749   0.017  0.00  0.00    -0.047 A 
ATOM     22  C   UNL     1      -0.013   1.076   0.008  0.00  0.00    +0.004 A 
ATOM     23  C   UNL     1       1.175   1.779   0.000  0.00  0.00    +0.000 A 
ATOM     24  C   UNL     1       1.157   3.161   0.007  0.00  0.00    +0.000 A 
ATOM     25  C   UNL     1      -0.049   3.832   0.020  0.00  0.00    +0.002 A 
ATOM     26  C   UNL     1      -1.244   3.127   0.027  0.00  0.00    -0.061 A 
ATOM     27  C   UNL     1      -2.535   3.904   0.035  0.00  0.00    -0.045 C 
ATOM     28  N   UNL     1      -3.651   3.047   0.459  0.00  0.00    +0.389 N 
ATOM     29  H   UNL     1      -3.531   2.796   1.447  0.00  0.00    -0.084 HD
ATOM     30  H   UNL     1      -4.535   3.557   0.341  0.00  0.00    -0.084 HD
ENDBRANCH  16  19
ENDBRANCH   1  15
BRANCH   1  31
ATOM     31  C   UNL     1      -7.841   0.297  -1.250  0.00  0.00    +0.069 C 
BRANCH  31  32
ATOM     32  C   UNL     1      -7.937   1.557  -0.427  0.00  0.00    -0.020 A 
ATOM     33  C   UNL     1      -8.713   1.749   0.651  0.00  0.00    +0.087 A 
ATOM     34  N   UNL     1      -8.534   3.016   1.135  0.00  0.00    -0.360 N 
ATOM     35  H   UNL     1      -8.987   3.387   1.908  0.00  0.00    +0.165 HD
ATOM     36  C   UNL     1      -7.615   3.688   0.359  0.00  0.00    +0.047 A 
ATOM     37  C   UNL     1      -7.197   2.801  -0.650  0.00  0.00    +0.003 A 
ATOM     38  C   UNL     1      -6.252   3.213  -1.591  0.00  0.00    +0.010 A 
ATOM     39  C   UNL     1      -5.735   4.477  -1.525  0.00  0.00    +0.001 A 
ATOM     40  C   UNL     1      -6.143   5.354  -0.530  0.00  0.00    +0.002 A 
ATOM     41  C   UNL     1      -7.080   4.971   0.405  0.00  0.00    +0.026 A 
ENDBRANCH  31  32
ENDBRANCH   1  31
TORSDOF 8
