REMARK  Name = ZINC21081597
REMARK  7 active torsions:
REMARK  status: ('A' for Active; 'I' for Inactive)
REMARK    1  A    between atoms: C_1  and  C_2
REMARK    2  A    between atoms: C_2  and  C_3
REMARK    3  A    between atoms: C_3  and  C_26
REMARK    4  A    between atoms: N_4  and  N_5
REMARK    5  A    between atoms: C_8  and  S_11
REMARK    6  A    between atoms: S_11  and  C_12
REMARK    7  A    between atoms: C_12  and  C_13
REMARK                            x       y       z     vdW  Elec       q    Type
REMARK                         _______ _______ _______ _____ _____    ______ ____
ROOT
ATOM      1  N   UNL     1      -2.442   1.308   0.020  0.00  0.00    -0.205 N 
ATOM      2  C   UNL     1      -1.128   1.754   0.016  0.00  0.00    +0.232 A 
ATOM      3  N   UNL     1      -0.011   0.966   0.007  0.00  0.00    -0.186 NA
ATOM      4  C   UNL     1       1.083   1.784   0.001  0.00  0.00    +0.211 A 
ATOM      5  N   UNL     1       0.661   3.026   0.011  0.00  0.00    -0.144 NA
ATOM      6  N   UNL     1      -0.740   3.006   0.024  0.00  0.00    -0.245 N 
ATOM      7  H   UNL     1      -2.655   0.229   0.015  0.00  0.00    +0.177 HD
ATOM      8  H   UNL     1      -1.487   3.814   0.038  0.00  0.00    +0.192 HD
ENDROOT
BRANCH   1  10
ATOM      9  C   UNL     1      -4.725   1.813   0.033  0.00  0.00    +0.066 C 
ATOM     10  N   UNL     1      -3.495   2.231   0.029  0.00  0.00    -0.184 NA
BRANCH   9  11
ATOM     11  C   UNL     1      -5.834   2.784   0.043  0.00  0.00    -0.002 A 
ATOM     12  C   UNL     1      -7.158   2.338   0.040  0.00  0.00    +0.010 A 
ATOM     13  C   UNL     1      -8.190   3.252   0.054  0.00  0.00    +0.001 A 
ATOM     14  C   UNL     1      -7.917   4.609   0.060  0.00  0.00    +0.000 A 
ATOM     15  C   UNL     1      -6.608   5.058   0.057  0.00  0.00    +0.001 A 
ATOM     16  C   UNL     1      -5.566   4.155   0.048  0.00  0.00    +0.010 A 
ENDBRANCH   9  11
BRANCH   9  18
ATOM     17  C   UNL     1      -5.111  -0.173   1.467  0.00  0.00    +0.010 C 
ATOM     18  C   UNL     1      -5.018   0.334   0.027  0.00  0.00    +0.054 C 
ENDBRANCH   9  18
ENDBRANCH   1  10
BRANCH   4  19
ATOM     19  S   UNL     1       2.766   1.262  -0.016  0.00  0.00    -0.075 S 
BRANCH  19  20
ATOM     20  C   UNL     1       3.706   2.813  -0.017  0.00  0.00    +0.173 C 
BRANCH  20  21
ATOM     21  C   UNL     1       5.182   2.506  -0.032  0.00  0.00    +0.229 C 
ATOM     22  O   UNL     1       5.561   1.354  -0.040  0.00  0.00    -0.275 OA
ATOM     23  N   UNL     1       6.079   3.511  -0.035  0.00  0.00    -0.264 N 
ATOM     24  C   UNL     1       7.436   3.229  -0.048  0.00  0.00    +0.165 A 
ATOM     25  N   UNL     1       8.450   4.062  -0.054  0.00  0.00    -0.225 NA
ATOM     26  C   UNL     1       9.734   3.643  -0.066  0.00  0.00    +0.080 A 
ATOM     27  C   UNL     1      10.909   4.430  -0.072  0.00  0.00    +0.030 A 
ATOM     28  C   UNL     1      12.146   3.841  -0.085  0.00  0.00    +0.017 A 
ATOM     29  C   UNL     1      12.292   2.460  -0.092  0.00  0.00    +0.019 A 
ATOM     30  C   UNL     1      11.163   1.660  -0.086  0.00  0.00    +0.032 A 
ATOM     31  C   UNL     1       9.920   2.242  -0.073  0.00  0.00    +0.042 A 
ATOM     32  S   UNL     1       8.249   1.638  -0.054  0.00  0.00    -0.052 S 
ATOM     33 BR   UNL     1      14.015   1.681  -0.109  0.00  0.00    -0.050 Br
ATOM     34  H   UNL     1       5.735   4.556  -0.028  0.00  0.00    +0.157 HD
ENDBRANCH  20  21
ENDBRANCH  19  20
ENDBRANCH   4  19
TORSDOF 6
