REMARK  Name = ZINC21225124
REMARK  11 active torsions:
REMARK  status: ('A' for Active; 'I' for Inactive)
REMARK    1  A    between atoms: C_1  and  C_2
REMARK    2  A    between atoms: C_2  and  C_3
REMARK    3  A    between atoms: C_2  and  O_4
REMARK    4  A    between atoms: O_4  and  C_5
REMARK    5  A    between atoms: C_8  and  C_13
REMARK    6  A    between atoms: C_10  and  O_11
REMARK    7  A    between atoms: O_11  and  C_12
REMARK    8  A    between atoms: C_18  and  C_28
REMARK    9  A    between atoms: C_32  and  O_35
REMARK   10  A    between atoms: C_33  and  O_34
REMARK   11  A    between atoms: O_35  and  C_36
REMARK                            x       y       z     vdW  Elec       q    Type
REMARK                         _______ _______ _______ _____ _____    ______ ____
ROOT
ATOM      1  C   UNL     1      -3.617   3.056   0.171  0.00  0.00    +0.032 C 
ATOM      2  C   UNL     1      -4.874   2.896   1.024  0.00  0.00    +0.059 C 
ATOM      3  C   UNL     1      -5.895   3.957   0.644  0.00  0.00    +0.017 C 
ATOM      4  C   UNL     1      -5.978   4.394  -0.622  0.00  0.00    +0.037 C 
ATOM      5  C   UNL     1      -6.962   5.415  -1.144  0.00  0.00    +0.140 C 
ATOM      6  N   UNL     1      -7.688   6.124  -0.113  0.00  0.00    -0.331 N 
ATOM      7  C   UNL     1      -8.565   5.456   0.738  0.00  0.00    +0.049 A 
ATOM      8  C   UNL     1      -9.931   5.686   0.689  0.00  0.00    +0.025 A 
ATOM      9  C   UNL     1     -10.776   4.946   1.497  0.00  0.00    +0.002 A 
ATOM     10  C   UNL     1     -10.266   3.983   2.349  0.00  0.00    +0.002 A 
ATOM     11  C   UNL     1      -8.900   3.766   2.417  0.00  0.00    +0.025 A 
ATOM     12  C   UNL     1      -8.053   4.519   1.622  0.00  0.00    +0.052 A 
ATOM     13  N   UNL     1      -6.669   4.386   1.674  0.00  0.00    -0.316 N 
ATOM     14  C   UNL     1      -5.096   3.896  -1.610  0.00  0.00    +0.163 C 
ATOM     15  O   UNL     1      -5.210   4.295  -2.752  0.00  0.00    -0.292 OA
ATOM     16  C   UNL     1      -4.026   2.893  -1.298  0.00  0.00    +0.088 C 
ATOM     17  H   UNL     1      -7.551   7.209   0.010  0.00  0.00    +0.147 HD
ATOM     18  H   UNL     1      -6.207   4.657   2.634  0.00  0.00    +0.152 HD
ENDROOT
BRANCH   1  22
ATOM     19  C   UNL     1      -0.760   0.048   1.209  0.00  0.00    +0.162 A 
ATOM     20  C   UNL     1      -2.024  -0.315   0.772  0.00  0.00    +0.050 A 
ATOM     21  C   UNL     1      -2.946   0.660   0.438  0.00  0.00    +0.008 A 
ATOM     22  C   UNL     1      -2.610   1.998   0.541  0.00  0.00    -0.040 A 
ATOM     23  C   UNL     1      -1.351   2.366   0.977  0.00  0.00    +0.053 A 
ATOM     24  C   UNL     1      -0.422   1.394   1.312  0.00  0.00    +0.162 A 
BRANCH  24  25
ATOM     25  O   UNL     1       0.817   1.754   1.741  0.00  0.00    -0.491 OA
ATOM     26  C   UNL     1       1.094   3.154   1.822  0.00  0.00    +0.277 C 
ENDBRANCH  24  25
BRANCH  19  27
ATOM     27  O   UNL     1       0.148  -0.910   1.537  0.00  0.00    -0.486 OA
BRANCH  27  29
ATOM     28  C   UNL     1      -0.202  -2.823   0.102  0.00  0.00    +0.051 C 
ATOM     29  C   UNL     1      -0.305  -2.265   1.523  0.00  0.00    +0.167 C 
ATOM     30  C   UNL     1       0.563  -3.103   2.464  0.00  0.00    +0.051 C 
ENDBRANCH  27  29
ENDBRANCH  19  27
ENDBRANCH   1  22
BRANCH   5  31
ATOM     31  C   UNL     1      -7.956   4.712  -2.032  0.00  0.00    +0.022 A 
ATOM     32  C   UNL     1      -8.087   3.337  -1.969  0.00  0.00    +0.009 A 
ATOM     33  C   UNL     1      -8.998   2.688  -2.782  0.00  0.00    +0.004 A 
ATOM     34  C   UNL     1      -9.782   3.412  -3.661  0.00  0.00    +0.049 A 
ATOM     35  C   UNL     1      -9.656   4.790  -3.729  0.00  0.00    +0.162 A 
ATOM     36  C   UNL     1      -8.742   5.443  -2.907  0.00  0.00    +0.164 A 
BRANCH  36  37
ATOM     37  O   UNL     1      -8.619   6.796  -2.966  0.00  0.00    -0.503 OA
ATOM     38  H   UNL     1      -9.244   7.376  -3.661  0.00  0.00    +0.292 HD
ENDBRANCH  36  37
BRANCH  35  39
ATOM     39  O   UNL     1     -10.427   5.503  -4.594  0.00  0.00    -0.491 OA
ATOM     40  C   UNL     1     -11.346   4.766  -5.402  0.00  0.00    +0.277 C 
ENDBRANCH  35  39
ENDBRANCH   5  31
TORSDOF 7
