REMARK  Name = ZINC19320759
REMARK  5 active torsions:
REMARK  status: ('A' for Active; 'I' for Inactive)
REMARK    1  A    between atoms: C_1  and  C_2
REMARK    2  A    between atoms: C_6  and  C_27
REMARK    3  A    between atoms: N_16  and  C_19
REMARK    4  A    between atoms: C_19  and  C_20
REMARK    5  A    between atoms: C_20  and  C_21
REMARK                            x       y       z     vdW  Elec       q    Type
REMARK                         _______ _______ _______ _____ _____    ______ ____
ROOT
ATOM      1  C   UNL     1      -0.018   1.503   0.010  0.00  0.00    +0.044 C 
ATOM      2  C   UNL     1       0.002  -0.004   0.002  0.00  0.00    -0.048 A 
ATOM      3  C   UNL     1       0.005  -0.683  -1.215  0.00  0.00    +0.004 A 
ATOM      4  C   UNL     1       0.024  -2.044  -1.258  0.00  0.00    +0.012 A 
ATOM      5  C   UNL     1       0.040  -2.773  -0.060  0.00  0.00    +0.022 A 
ATOM      6  C   UNL     1       0.059  -4.180  -0.041  0.00  0.00    +0.051 A 
ATOM      7  N   UNL     1       0.073  -4.793   1.124  0.00  0.00    -0.219 NA
ATOM      8  C   UNL     1       0.070  -4.113   2.269  0.00  0.00    +0.222 A 
ATOM      9  N   UNL     1       0.051  -2.795   2.313  0.00  0.00    -0.214 NA
ATOM     10  C   UNL     1       0.036  -2.083   1.180  0.00  0.00    +0.077 A 
ATOM     11  C   UNL     1       0.022  -0.680   1.184  0.00  0.00    +0.032 A 
ATOM     12  N   UNL     1       0.085  -4.819   3.462  0.00  0.00    -0.256 N 
ATOM     13  C   UNL     1       0.104  -6.197   3.447  0.00  0.00    +0.184 C 
ATOM     14  N   UNL     1       0.113  -6.822   2.312  0.00  0.00    -0.240 NA
ATOM     15  C   UNL     1       0.116  -8.277   2.207  0.00  0.00    +0.232 C 
ATOM     16  N   UNL     1       0.592  -8.889   3.454  0.00  0.00    -0.268 NA
ATOM     17  C   UNL     1      -0.143  -8.335   4.607  0.00  0.00    +0.193 C 
ATOM     18  N   UNL     1       0.120  -6.887   4.639  0.00  0.00    -0.304 N 
ATOM     19  C   UNL     1       0.064  -4.968  -1.326  0.00  0.00    +0.066 C 
ATOM     20  H   UNL     1       0.083  -4.343   4.307  0.00  0.00    +0.158 HD
ATOM     21  H   UNL     1       0.296  -6.430   5.477  0.00  0.00    +0.150 HD
ENDROOT
BRANCH  16  22
ATOM     22  C   UNL     1       0.468 -10.351   3.404  0.00  0.00    +0.092 C 
BRANCH  22  23
ATOM     23  C   UNL     1       1.417 -10.907   2.340  0.00  0.00    +0.050 C 
BRANCH  23  24
ATOM     24  C   UNL     1       1.290 -12.408   2.288  0.00  0.00    -0.046 A 
ATOM     25  C   UNL     1       2.091 -13.198   3.092  0.00  0.00    +0.003 A 
ATOM     26  C   UNL     1       1.974 -14.574   3.045  0.00  0.00    +0.000 A 
ATOM     27  C   UNL     1       1.056 -15.161   2.194  0.00  0.00    +0.000 A 
ATOM     28  C   UNL     1       0.255 -14.372   1.391  0.00  0.00    +0.000 A 
ATOM     29  C   UNL     1       0.368 -12.995   1.441  0.00  0.00    +0.003 A 
ENDBRANCH  23  24
ENDBRANCH  22  23
ENDBRANCH  16  22
TORSDOF 3
