REMARK  Name = ZINC07119930
REMARK  9 active torsions:
REMARK  status: ('A' for Active; 'I' for Inactive)
REMARK    1  A    between atoms: C_1  and  C_2
REMARK    2  A    between atoms: C_2  and  C_4
REMARK    3  A    between atoms: C_2  and  O_12
REMARK    4  A    between atoms: O_12  and  C_13
REMARK    5  A    between atoms: C_13  and  C_15
REMARK    6  A    between atoms: C_26  and  C_30
REMARK    7  A    between atoms: C_30  and  C_31
REMARK    8  A    between atoms: C_30  and  C_32
REMARK    9  A    between atoms: C_30  and  C_33
REMARK                            x       y       z     vdW  Elec       q    Type
REMARK                         _______ _______ _______ _____ _____    ______ ____
ROOT
ATOM      1  C   UNL     1      -0.600   1.133   6.557  0.00  0.00    +0.073 A 
ATOM      2  C   UNL     1       0.002   0.774   7.788  0.00  0.00    +0.015 A 
ATOM      3  C   UNL     1      -0.709   0.817   8.993  0.00  0.00    +0.011 A 
ATOM      4  C   UNL     1      -0.089   0.463  10.154  0.00  0.00    +0.001 A 
ATOM      5  C   UNL     1       1.245   0.059  10.157  0.00  0.00    +0.002 A 
ATOM      6  C   UNL     1       1.965   0.007   9.003  0.00  0.00    +0.028 A 
ATOM      7  C   UNL     1       1.359   0.365   7.785  0.00  0.00    +0.072 A 
ATOM      8  N   UNL     1       2.036   0.324   6.639  0.00  0.00    -0.251 NA
ATOM      9  C   UNL     1       1.497   0.651   5.480  0.00  0.00    +0.046 A 
ATOM     10  C   UNL     1       0.174   1.065   5.399  0.00  0.00    -0.011 A 
ATOM     11  C   UNL     1      -0.480   1.455   4.099  0.00  0.00    +0.042 C 
ATOM     12  C   UNL     1       0.329   0.931   2.914  0.00  0.00    -0.001 C 
ATOM     13  C   UNL     1       1.790   1.355   3.103  0.00  0.00    +0.010 C 
ATOM     14  C   UNL     1       2.381   0.553   4.261  0.00  0.00    +0.056 C 
ENDROOT
BRANCH  12  15
ATOM     15  C   UNL     1      -0.216   1.526   1.615  0.00  0.00    -0.035 C 
ATOM     16  C   UNL     1       0.615   1.021   0.434  0.00  0.00    +0.011 C 
ATOM     17  C   UNL     1      -0.135   3.053   1.679  0.00  0.00    +0.011 C 
ATOM     18  C   UNL     1      -1.674   1.101   1.431  0.00  0.00    +0.011 C 
ENDBRANCH  12  15
BRANCH   1  19
ATOM     19  C   UNL     1      -2.011   1.566   6.502  0.00  0.00    +0.341 C 
ATOM     20  O   UNL     1      -2.892   0.747   6.336  0.00  0.00    -0.245 OA
BRANCH  19  21
ATOM     21  O   UNL     1      -2.321   2.870   6.635  0.00  0.00    -0.449 OA
BRANCH  21  23
ATOM     22  C   UNL     1      -4.113   3.520   5.120  0.00  0.00    +0.062 C 
ATOM     23  C   UNL     1      -3.728   3.224   6.570  0.00  0.00    +0.259 C 
BRANCH  23  24
ATOM     24  C   UNL     1      -3.978   4.446   7.416  0.00  0.00    +0.264 C 
ATOM     25  O   UNL     1      -3.044   5.061   7.883  0.00  0.00    -0.271 OA
ATOM     26  N   UNL     1      -5.241   4.855   7.652  0.00  0.00    -0.221 N 
ATOM     27  C   UNL     1      -6.459   4.150   7.226  0.00  0.00    +0.137 C 
ATOM     28  C   UNL     1      -7.603   5.038   7.752  0.00  0.00    +0.125 C 
ATOM     29  N   UNL     1      -6.908   6.154   8.412  0.00  0.00    -0.297 N 
ATOM     30  C   UNL     1      -5.585   5.971   8.308  0.00  0.00    +0.309 C 
ATOM     31  O   UNL     1      -4.771   6.747   8.768  0.00  0.00    -0.252 OA
ATOM     32  H   UNL     1      -7.339   6.903   8.851  0.00  0.00    +0.150 HD
ENDBRANCH  23  24
ENDBRANCH  21  23
ENDBRANCH  19  21
ENDBRANCH   1  19
TORSDOF 5
