REMARK  Name = ZINC20806999
REMARK  7 active torsions:
REMARK  status: ('A' for Active; 'I' for Inactive)
REMARK    1  A    between atoms: C_1  and  C_2
REMARK    2  A    between atoms: C_5  and  C_8
REMARK    3  A    between atoms: N_9  and  N_10
REMARK    4  A    between atoms: C_14  and  S_17
REMARK    5  A    between atoms: N_15  and  N_16
REMARK    6  A    between atoms: S_17  and  C_18
REMARK    7  A    between atoms: C_18  and  C_19
REMARK                            x       y       z     vdW  Elec       q    Type
REMARK                         _______ _______ _______ _____ _____    ______ ____
ROOT
ATOM      1  N   UNL     1      -4.838   0.937   0.029  0.00  0.00    -0.204 N 
ATOM      2  C   UNL     1      -6.046   1.620   0.038  0.00  0.00    +0.254 A 
ATOM      3  N   UNL     1      -6.195   2.922   0.052  0.00  0.00    -0.109 NA
ATOM      4  N   UNL     1      -7.568   3.200   0.054  0.00  0.00    -0.119 NA
ATOM      5  C   UNL     1      -8.213   2.058   0.051  0.00  0.00    +0.210 A 
ATOM      6  N   UNL     1      -7.290   1.052   0.041  0.00  0.00    -0.211 N 
ATOM      7  H   UNL     1      -4.828  -0.163   0.022  0.00  0.00    +0.177 HD
ENDROOT
BRANCH   6   8
ATOM      8  N   UNL     1      -7.561  -0.287   0.034  0.00  0.00    -0.294 N 
ATOM      9  H   UNL     1      -8.604  -0.637   0.037  0.00  0.00    +0.163 HD
ATOM     10  H   UNL     1      -6.737  -1.015   0.026  0.00  0.00    +0.163 HD
ENDBRANCH   6   8
BRANCH   1  12
ATOM     11  C   UNL     1      -2.501   1.010   0.019  0.00  0.00    +0.138 C 
ATOM     12  N   UNL     1      -3.631   1.649   0.028  0.00  0.00    -0.188 NA
BRANCH  11  17
ATOM     13  C   UNL     1       2.452   3.933  -0.001  0.00  0.00    +0.044 C 
ATOM     14  C   UNL     1       1.155   3.167   0.008  0.00  0.00    -0.050 A 
ATOM     15  C   UNL     1       1.171   1.783   0.001  0.00  0.00    +0.004 A 
ATOM     16  C   UNL     1      -0.013   1.076   0.008  0.00  0.00    +0.010 A 
ATOM     17  C   UNL     1      -1.231   1.760   0.017  0.00  0.00    -0.005 A 
ATOM     18  C   UNL     1      -1.240   3.157   0.030  0.00  0.00    +0.010 A 
ATOM     19  C   UNL     1      -0.048   3.851   0.022  0.00  0.00    +0.004 A 
ENDBRANCH  11  17
ENDBRANCH   1  12
BRANCH   5  20
ATOM     20  S   UNL     1      -9.964   1.857   0.057  0.00  0.00    -0.080 S 
BRANCH  20  21
ATOM     21  C   UNL     1     -10.601   3.556   0.070  0.00  0.00    +0.112 C 
BRANCH  21  22
ATOM     22  C   UNL     1     -12.107   3.528   0.077  0.00  0.00    -0.036 A 
ATOM     23  C   UNL     1     -12.793   3.508   1.277  0.00  0.00    +0.004 A 
ATOM     24  C   UNL     1     -14.175   3.483   1.284  0.00  0.00    +0.001 A 
ATOM     25  C   UNL     1     -14.872   3.477   0.090  0.00  0.00    +0.015 A 
ATOM     26  C   UNL     1     -14.187   3.497  -1.111  0.00  0.00    +0.018 A 
ATOM     27  C   UNL     1     -12.803   3.527  -1.117  0.00  0.00    +0.019 A 
ATOM     28 BR   UNL     1     -15.140   3.489  -2.744  0.00  0.00    -0.050 Br
ENDBRANCH  21  22
ENDBRANCH  20  21
ENDBRANCH   5  20
TORSDOF 6
