REMARK  Name = ZINC20909582
REMARK  14 active torsions:
REMARK  status: ('A' for Active; 'I' for Inactive)
REMARK    1  A    between atoms: C_1  and  C_2
REMARK    2  A    between atoms: C_2  and  S_3
REMARK    3  A    between atoms: S_3  and  C_4
REMARK    4  A    between atoms: C_10  and  C_12
REMARK    5  A    between atoms: C_12  and  S_13
REMARK    6  A    between atoms: S_13  and  C_14
REMARK    7  A    between atoms: N_19  and  N_20
REMARK    8  A    between atoms: C_21  and  C_22
REMARK    9  A    between atoms: C_24  and  O_32
REMARK   10  A    between atoms: C_25  and  O_30
REMARK   11  A    between atoms: C_26  and  O_28
REMARK   12  A    between atoms: O_28  and  C_29
REMARK   13  A    between atoms: O_30  and  C_31
REMARK   14  A    between atoms: O_32  and  C_33
REMARK                            x       y       z     vdW  Elec       q    Type
REMARK                         _______ _______ _______ _____ _____    ______ ____
ROOT
ATOM      1  C   UNL     1      -0.016   1.362   0.009  0.00  0.00    +0.211 A 
ATOM      2  N   UNL     1       0.002  -0.004   0.002  0.00  0.00    -0.186 NA
ATOM      3  C   UNL     1       1.308  -0.409  -0.013  0.00  0.00    +0.232 A 
ATOM      4  N   UNL     1       2.064   0.662  -0.014  0.00  0.00    -0.245 N 
ATOM      5  N   UNL     1       1.225   1.784  -0.000  0.00  0.00    -0.144 NA
ATOM      6  N   UNL     1       1.754  -1.722  -0.024  0.00  0.00    -0.205 N 
ATOM      7  H   UNL     1       1.030  -2.550  -0.022  0.00  0.00    +0.177 HD
ATOM      8  H   UNL     1       3.159   0.562  -0.025  0.00  0.00    +0.192 HD
ENDROOT
BRANCH   6   9
ATOM      9  N   UNL     1       3.129  -1.995  -0.039  0.00  0.00    -0.188 NA
ATOM     10  C   UNL     1       3.546  -3.225  -0.050  0.00  0.00    +0.138 C 
BRANCH  10  11
ATOM     11  C   UNL     1       4.992  -3.511  -0.065  0.00  0.00    +0.002 A 
ATOM     12  C   UNL     1       5.914  -2.462  -0.074  0.00  0.00    +0.059 A 
ATOM     13  C   UNL     1       7.271  -2.734  -0.084  0.00  0.00    +0.166 A 
ATOM     14  C   UNL     1       7.717  -4.052  -0.095  0.00  0.00    +0.204 A 
ATOM     15  C   UNL     1       6.801  -5.100  -0.092  0.00  0.00    +0.166 A 
ATOM     16  C   UNL     1       5.444  -4.834  -0.077  0.00  0.00    +0.059 A 
BRANCH  15  17
ATOM     17  O   UNL     1       7.241  -6.386  -0.104  0.00  0.00    -0.491 OA
ATOM     18  C   UNL     1       6.246  -7.412  -0.100  0.00  0.00    +0.277 C 
ENDBRANCH  15  17
BRANCH  14  19
ATOM     19  O   UNL     1       9.051  -4.317  -0.110  0.00  0.00    -0.488 OA
ATOM     20  C   UNL     1       9.675  -4.436  -1.390  0.00  0.00    +0.277 C 
ENDBRANCH  14  19
BRANCH  13  21
ATOM     21  O   UNL     1       8.169  -1.713  -0.088  0.00  0.00    -0.491 OA
ATOM     22  C   UNL     1       7.641  -0.385  -0.075  0.00  0.00    +0.277 C 
ENDBRANCH  13  21
ENDBRANCH  10  11
ENDBRANCH   6   9
BRANCH   1  23
ATOM     23  S   UNL     1      -1.456   2.378   0.022  0.00  0.00    -0.075 S 
BRANCH  23  24
ATOM     24  C   UNL     1      -0.799   4.069   0.028  0.00  0.00    +0.173 C 
BRANCH  24  31
ATOM     25  C   UNL     1      -4.504   9.286   0.075  0.00  0.00    +0.160 A 
ATOM     26  N   UNL     1      -4.886   8.017   0.071  0.00  0.00    -0.133 NA
ATOM     27  N   UNL     1      -4.053   7.070   0.061  0.00  0.00    -0.125 NA
ATOM     28  C   UNL     1      -2.748   7.284   0.055  0.00  0.00    +0.189 A 
ATOM     29  S   UNL     1      -2.726   9.074   0.072  0.00  0.00    -0.024 S 
ATOM     30  N   UNL     1      -1.692   6.376   0.045  0.00  0.00    -0.263 N 
ATOM     31  C   UNL     1      -1.942   5.051   0.039  0.00  0.00    +0.229 C 
ATOM     32  O   UNL     1      -3.087   4.650   0.043  0.00  0.00    -0.275 OA
ATOM     33  H   UNL     1      -0.654   6.739   0.042  0.00  0.00    +0.157 HD
BRANCH  25  34
ATOM     34  S   UNL     1      -5.470  10.759   0.090  0.00  0.00    -0.097 S 
BRANCH  34  36
ATOM     35  C   UNL     1      -8.139  11.356   0.108  0.00  0.00    +0.016 C 
ATOM     36  C   UNL     1      -7.182  10.162   0.096  0.00  0.00    +0.073 C 
ENDBRANCH  34  36
ENDBRANCH  25  34
ENDBRANCH  24  31
ENDBRANCH  23  24
ENDBRANCH   1  23
TORSDOF 10
