REMARK  Name = ZINC34898241
REMARK  10 active torsions:
REMARK  status: ('A' for Active; 'I' for Inactive)
REMARK    1  A    between atoms: C_1  and  C_2
REMARK    2  A    between atoms: C_2  and  O_3
REMARK    3  A    between atoms: O_3  and  C_4
REMARK    4  A    between atoms: C_7  and  C_10
REMARK    5  A    between atoms: N_14  and  C_15
REMARK    6  A    between atoms: N_21  and  N_22
REMARK    7  A    between atoms: C_24  and  C_30
REMARK    8  A    between atoms: C_24  and  C_31
REMARK    9  A    between atoms: C_26  and  C_28
REMARK   10  A    between atoms: C_26  and  C_29
REMARK                            x       y       z     vdW  Elec       q    Type
REMARK                         _______ _______ _______ _____ _____    ______ ____
ROOT
ATOM      1  C   UNL     1       1.565  -5.194  -1.792  0.00  0.00    +0.077 A 
ATOM      2  C   UNL     1       1.196  -5.891  -0.673  0.00  0.00    +0.076 A 
ATOM      3  S   UNL     1       1.564  -7.564  -1.188  0.00  0.00    -0.060 S 
ATOM      4  C   UNL     1       2.166  -7.167  -2.824  0.00  0.00    +0.161 A 
ATOM      5  N   UNL     1       2.642  -8.020  -3.819  0.00  0.00    -0.294 N 
ATOM      6  N   UNL     1       2.037  -5.853  -2.841  0.00  0.00    -0.242 N 
ATOM      7  H   UNL     1       3.030  -7.651  -4.628  0.00  0.00    +0.154 HD
ENDROOT
BRANCH   6   8
ATOM      8  N   UNL     1       2.410  -5.142  -3.987  0.00  0.00    -0.272 N 
ATOM      9  C   UNL     1       3.784  -4.651  -4.171  0.00  0.00    +0.111 C 
ATOM     10  C   UNL     1       4.322  -5.239  -5.480  0.00  0.00    -0.056 C 
ATOM     11  N   UNL     1       3.411  -4.991  -6.589  0.00  0.00    +0.388 N 
ATOM     12  C   UNL     1       2.003  -5.303  -6.402  0.00  0.00    -0.056 C 
ATOM     13  C   UNL     1       1.449  -4.846  -5.055  0.00  0.00    +0.111 C 
ATOM     14  C   UNL     1       1.213  -4.551  -7.501  0.00  0.00    -0.009 C 
ATOM     15  C   UNL     1       1.724  -6.797  -6.597  0.00  0.00    -0.009 C 
ATOM     16  C   UNL     1       4.622  -6.726  -5.298  0.00  0.00    -0.009 C 
ATOM     17  C   UNL     1       5.657  -4.529  -5.793  0.00  0.00    -0.009 C 
ATOM     18  H   UNL     1       3.490  -4.005  -6.853  0.00  0.00    -0.084 HD
ATOM     19  H   UNL     1       3.751  -5.512  -7.402  0.00  0.00    -0.084 HD
ENDBRANCH   6   8
BRANCH   1  23
ATOM     20  C   UNL     1       1.187  -0.959  -1.908  0.00  0.00    +0.121 A 
ATOM     21  C   UNL     1       1.728  -1.636  -2.993  0.00  0.00    +0.046 A 
ATOM     22  C   UNL     1       1.852  -3.010  -2.958  0.00  0.00    +0.013 A 
ATOM     23  C   UNL     1       1.434  -3.718  -1.833  0.00  0.00    +0.001 A 
ATOM     24  C   UNL     1       0.891  -3.035  -0.745  0.00  0.00    +0.013 A 
ATOM     25  C   UNL     1       0.774  -1.661  -0.784  0.00  0.00    +0.046 A 
BRANCH  20  26
ATOM     26  O   UNL     1       1.066   0.394  -1.946  0.00  0.00    -0.492 OA
BRANCH  26  28
ATOM     27  C   UNL     1       1.296   2.561  -2.990  0.00  0.00    +0.048 C 
ATOM     28  C   UNL     1       1.510   1.053  -3.133  0.00  0.00    +0.225 C 
ENDBRANCH  26  28
ENDBRANCH  20  26
ENDBRANCH   1  23
BRANCH   5  29
ATOM     29  C   UNL     1       2.559  -9.403  -3.652  0.00  0.00    +0.033 A 
ATOM     30  C   UNL     1       1.481  -9.960  -2.974  0.00  0.00    +0.023 A 
ATOM     31  C   UNL     1       1.403 -11.329  -2.810  0.00  0.00    +0.002 A 
ATOM     32  C   UNL     1       2.396 -12.146  -3.319  0.00  0.00    +0.000 A 
ATOM     33  C   UNL     1       3.470 -11.595  -3.994  0.00  0.00    +0.002 A 
ATOM     34  C   UNL     1       3.552 -10.228  -4.167  0.00  0.00    +0.023 A 
ENDBRANCH   5  29
TORSDOF 5
