REMARK  Name = ZINC27345562
REMARK  8 active torsions:
REMARK  status: ('A' for Active; 'I' for Inactive)
REMARK    1  A    between atoms: C_1  and  C_2
REMARK    2  A    between atoms: C_2  and  C_28
REMARK    3  A    between atoms: N_5  and  C_9
REMARK    4  A    between atoms: C_9  and  C_10
REMARK    5  A    between atoms: N_12  and  C_13
REMARK    6  A    between atoms: C_13  and  C_14
REMARK    7  A    between atoms: C_14  and  C_16
REMARK    8  A    between atoms: C_14  and  N_23
REMARK                            x       y       z     vdW  Elec       q    Type
REMARK                         _______ _______ _______ _____ _____    ______ ____
ROOT
ATOM      1  C   UNL     1       1.475  -2.242  -1.817  0.00  0.00    +0.231 C 
ATOM      2  O   UNL     1       1.317  -1.547  -2.799  0.00  0.00    -0.274 OA
ATOM      3  N   UNL     1       2.027  -3.465  -1.940  0.00  0.00    -0.315 N 
ATOM      4  H   UNL     1       2.170  -4.096  -1.050  0.00  0.00    +0.149 HD
ENDROOT
BRANCH   1   5
ATOM      5  C   UNL     1       1.054  -1.737  -0.461  0.00  0.00    +0.213 C 
BRANCH   5  10
ATOM      6  C   UNL     1      -1.853   1.886   0.234  0.00  0.00    +0.047 C 
ATOM      7  C   UNL     1      -0.937   1.370  -0.878  0.00  0.00    +0.135 C 
ATOM      8  C   UNL     1      -0.818  -0.140  -0.812  0.00  0.00    +0.251 C 
ATOM      9  O   UNL     1      -1.711  -0.951  -0.932  0.00  0.00    -0.272 OA
ATOM     10  N   UNL     1       0.488  -0.393  -0.594  0.00  0.00    -0.215 N 
ATOM     11  C   UNL     1       1.202   0.736  -0.513  0.00  0.00    +0.310 C 
ATOM     12  O   UNL     1       2.402   0.763  -0.320  0.00  0.00    -0.252 OA
ATOM     13  N   UNL     1       0.445   1.836  -0.669  0.00  0.00    -0.281 N 
ATOM     14  H   UNL     1       0.667   2.913  -0.666  0.00  0.00    +0.152 HD
BRANCH   7  15
ATOM     15  C   UNL     1      -1.445   1.804  -2.229  0.00  0.00    -0.015 A 
ATOM     16  C   UNL     1      -2.280   0.973  -2.952  0.00  0.00    +0.009 A 
ATOM     17  C   UNL     1      -2.750   1.371  -4.189  0.00  0.00    +0.039 A 
ATOM     18  C   UNL     1      -2.375   2.599  -4.709  0.00  0.00    +0.123 A 
ATOM     19  C   UNL     1      -1.535   3.428  -3.986  0.00  0.00    +0.039 A 
ATOM     20  C   UNL     1      -1.070   3.030  -2.747  0.00  0.00    +0.009 A 
ATOM     21  F   UNL     1      -2.830   2.988  -5.920  0.00  0.00    -0.205 F 
ENDBRANCH   7  15
ENDBRANCH   5  10
ENDBRANCH   1   5
BRANCH   3  22
ATOM     22  C   UNL     1       2.435  -3.956  -3.258  0.00  0.00    +0.093 C 
BRANCH  22  23
ATOM     23  C   UNL     1       3.144  -5.303  -3.104  0.00  0.00    -0.019 C 
BRANCH  23  24
ATOM     24  C   UNL     1       4.428  -5.110  -2.339  0.00  0.00    -0.041 A 
ATOM     25  C   UNL     1       4.480  -5.407  -0.990  0.00  0.00    +0.003 A 
ATOM     26  C   UNL     1       5.659  -5.235  -0.288  0.00  0.00    +0.000 A 
ATOM     27  C   UNL     1       6.783  -4.755  -0.934  0.00  0.00    +0.001 A 
ATOM     28  C   UNL     1       6.732  -4.454  -2.281  0.00  0.00    +0.020 A 
ATOM     29  C   UNL     1       5.553  -4.631  -2.985  0.00  0.00    +0.043 A 
ATOM     30 CL   UNL     1       5.487  -4.251  -4.678  0.00  0.00    -0.083 Cl
ENDBRANCH  23  24
BRANCH  23  31
ATOM     31  N   UNL     1       2.274  -6.234  -2.373  0.00  0.00    +0.385 N 
ATOM     32  C   UNL     1       0.948  -6.352  -3.034  0.00  0.00    -0.078 C 
ATOM     33  C   UNL     1       0.398  -7.693  -2.486  0.00  0.00    -0.020 C 
ATOM     34  C   UNL     1       1.661  -8.583  -2.418  0.00  0.00    -0.020 C 
ATOM     35  C   UNL     1       2.844  -7.598  -2.367  0.00  0.00    -0.078 C 
ATOM     36  H   UNL     1       2.189  -5.827  -1.355  0.00  0.00    -0.081 HD
ENDBRANCH  23  31
ENDBRANCH  22  23
ENDBRANCH   3  22
TORSDOF 7
