REMARK  Name = ZINC58394602
REMARK  4 active torsions:
REMARK  status: ('A' for Active; 'I' for Inactive)
REMARK    1  A    between atoms: N_11  and  C_15
REMARK    2  A    between atoms: C_15  and  C_16
REMARK    3  A    between atoms: C_21  and  C_24
REMARK    4  A    between atoms: C_24  and  C_25
REMARK                            x       y       z     vdW  Elec       q    Type
REMARK                         _______ _______ _______ _____ _____    ______ ____
ROOT
ATOM      1  C   UNL     1       0.364  -3.130  -0.017  0.00  0.00    +0.227 C 
ENDROOT
BRANCH   1  12
ATOM      2  C   UNL     1      -0.017   1.385   0.010  0.00  0.00    +0.002 A 
ATOM      3  C   UNL     1       1.125   2.132   0.003  0.00  0.00    +0.009 A 
ATOM      4  C   UNL     1       2.365   1.473  -0.012  0.00  0.00    -0.014 A 
ATOM      5  C   UNL     1       3.596   2.151  -0.019  0.00  0.00    +0.009 A 
ATOM      6  C   UNL     1       4.760   1.440  -0.034  0.00  0.00    +0.003 A 
ATOM      7  C   UNL     1       4.758   0.040  -0.042  0.00  0.00    +0.029 A 
ATOM      8  C   UNL     1       3.590  -0.629  -0.036  0.00  0.00    +0.118 A 
ATOM      9  C   UNL     1       2.374   0.063  -0.020  0.00  0.00    +0.031 A 
ATOM     10  C   UNL     1       1.209  -0.701  -0.013  0.00  0.00    +0.061 A 
ATOM     11  C   UNL     1       0.002  -0.004   0.002  0.00  0.00    +0.025 A 
ATOM     12  N   UNL     1       1.399  -2.093  -0.022  0.00  0.00    -0.194 N 
ATOM     13  S   UNL     1       3.061  -2.318  -0.041  0.00  0.00    +0.076 S 
ATOM     14  O   UNL     1       3.409  -2.878  -1.299  0.00  0.00    -0.150 OA
ATOM     15  O   UNL     1       3.434  -2.893   1.204  0.00  0.00    -0.150 OA
ENDBRANCH   1  12
BRANCH   1  16
ATOM     16  C   UNL     1      -0.093  -3.390  -1.430  0.00  0.00    +0.235 C 
ATOM     17  O   UNL     1       0.398  -2.771  -2.350  0.00  0.00    -0.274 OA
ATOM     18  N   UNL     1      -1.047  -4.311  -1.671  0.00  0.00    -0.300 N 
ATOM     19  C   UNL     1      -1.655  -5.065  -0.566  0.00  0.00    +0.108 C 
ATOM     20  C   UNL     1      -3.178  -4.918  -0.648  0.00  0.00    +0.023 C 
ATOM     21  C   UNL     1      -3.653  -5.346  -2.038  0.00  0.00    +0.001 C 
ATOM     22  C   UNL     1      -3.022  -4.439  -3.097  0.00  0.00    +0.023 C 
ATOM     23  C   UNL     1      -1.502  -4.576  -3.042  0.00  0.00    +0.108 C 
BRANCH  21  24
ATOM     24  C   UNL     1      -5.177  -5.233  -2.113  0.00  0.00    +0.099 C 
BRANCH  24  25
ATOM     25  C   UNL     1      -5.657  -5.769  -3.437  0.00  0.00    +0.211 C 
ATOM     26  O   UNL     1      -4.858  -6.200  -4.242  0.00  0.00    -0.276 OA
ATOM     27  N   UNL     1      -6.973  -5.771  -3.727  0.00  0.00    -0.329 N 
ATOM     28  H   UNL     1      -7.612  -5.427  -3.083  0.00  0.00    +0.145 HD
ATOM     29  H   UNL     1      -7.282  -6.116  -4.579  0.00  0.00    +0.145 HD
ENDBRANCH  24  25
ENDBRANCH  21  24
ENDBRANCH   1  16
TORSDOF 4
