REMARK  Name = ZINC16230540
REMARK  9 active torsions:
REMARK  status: ('A' for Active; 'I' for Inactive)
REMARK    1  A    between atoms: C_1  and  C_2
REMARK    2  A    between atoms: C_4  and  C_8
REMARK    3  A    between atoms: C_5  and  C_7
REMARK    4  A    between atoms: N_10  and  N_11
REMARK    5  A    between atoms: C_12  and  C_14
REMARK    6  A    between atoms: C_14  and  C_16
REMARK    7  A    between atoms: C_14  and  N_19
REMARK    8  A    between atoms: C_16  and  C_17
REMARK    9  A    between atoms: C_16  and  C_18
REMARK                            x       y       z     vdW  Elec       q    Type
REMARK                         _______ _______ _______ _____ _____    ______ ____
ROOT
ATOM      1  C   UNL     1      -1.170   3.603   0.117  0.00  0.00    +0.162 C 
ENDROOT
BRANCH   1   2
ATOM      2  N   UNL     1      -2.571   4.001   0.276  0.00  0.00    -0.316 N 
ATOM      3  C   UNL     1      -2.958   5.291  -0.012  0.00  0.00    +0.150 C 
ATOM      4  N   UNL     1      -2.088   6.160  -0.420  0.00  0.00    -0.113 NA
ATOM      5  S   UNL     1      -2.939   7.581  -0.660  0.00  0.00    +0.101 S 
ATOM      6  O   UNL     1      -2.956   7.850  -2.056  0.00  0.00    -0.146 OA
ATOM      7  O   UNL     1      -2.496   8.517   0.313  0.00  0.00    -0.146 OA
ATOM      8  C   UNL     1      -4.563   7.045  -0.195  0.00  0.00    +0.123 A 
ATOM      9  C   UNL     1      -4.362   5.700   0.145  0.00  0.00    +0.043 A 
ATOM     10  C   UNL     1      -5.481   4.967   0.569  0.00  0.00    +0.013 A 
ATOM     11  C   UNL     1      -6.719   5.568   0.640  0.00  0.00    +0.001 A 
ATOM     12  C   UNL     1      -6.886   6.897   0.298  0.00  0.00    +0.002 A 
ATOM     13  C   UNL     1      -5.789   7.638  -0.123  0.00  0.00    +0.030 A 
ATOM     14  H   UNL     1      -3.226   3.356   0.585  0.00  0.00    +0.148 HD
ENDBRANCH   1   2
BRANCH   1  16
ATOM     15  N   UNL     1      -0.052   1.592  -0.792  0.00  0.00    -0.233 N 
ATOM     16  C   UNL     1      -1.093   2.116  -0.114  0.00  0.00    +0.250 C 
ATOM     17  O   UNL     1      -1.968   1.391   0.310  0.00  0.00    -0.272 OA
ATOM     18  H   UNL     1       0.609   2.177  -1.193  0.00  0.00    +0.173 HD
BRANCH  15  21
ATOM     19  C   UNL     1       1.109  -0.321  -1.603  0.00  0.00    +0.263 C 
ATOM     20  O   UNL     1       1.938   0.412  -2.107  0.00  0.00    -0.269 OA
ATOM     21  N   UNL     1       0.071   0.202  -0.921  0.00  0.00    -0.230 N 
ATOM     22  H   UNL     1      -0.590  -0.383  -0.520  0.00  0.00    +0.173 HD
BRANCH  19  26
ATOM     23  C   UNL     1       0.270  -5.341  -1.249  0.00  0.00    +0.086 C 
ATOM     24  C   UNL     1       0.853  -3.990  -1.573  0.00  0.00    +0.103 A 
ATOM     25  C   UNL     1       0.339  -2.810  -1.194  0.00  0.00    +0.057 A 
ATOM     26  C   UNL     1       1.238  -1.783  -1.739  0.00  0.00    +0.079 A 
ATOM     27  C   UNL     1       2.222  -2.466  -2.393  0.00  0.00    +0.114 A 
ATOM     28  O   UNL     1       1.972  -3.775  -2.281  0.00  0.00    -0.464 OA
ATOM     29  C   UNL     1       3.390  -1.851  -3.118  0.00  0.00    +0.087 C 
ENDBRANCH  19  26
ENDBRANCH  15  21
ENDBRANCH   1  16
BRANCH   1  30
ATOM     30  C   UNL     1      -0.390   3.964   1.383  0.00  0.00    +0.012 C 
ATOM     31  C   UNL     1      -0.911   3.133   2.557  0.00  0.00    +0.009 C 
ATOM     32  C   UNL     1       1.096   3.668   1.168  0.00  0.00    +0.009 C 
ENDBRANCH   1  30
TORSDOF 5
