REMARK  Name = ZINC03670229
REMARK  8 active torsions:
REMARK  status: ('A' for Active; 'I' for Inactive)
REMARK    1  A    between atoms: C_1  and  C_2
REMARK    2  A    between atoms: C_2  and  C_4
REMARK    3  A    between atoms: C_2  and  N_12
REMARK    4  A    between atoms: C_4  and  C_5
REMARK    5  A    between atoms: C_5  and  C_6
REMARK    6  A    between atoms: C_13  and  C_15
REMARK    7  A    between atoms: C_15  and  O_34
REMARK    8  A    between atoms: N_25  and  C_26
REMARK                            x       y       z     vdW  Elec       q    Type
REMARK                         _______ _______ _______ _____ _____    ______ ____
ROOT
ATOM      1  C   UNL     1       3.669   1.847  -0.140  0.00  0.00    +0.247 C 
ATOM      2  C   UNL     1       4.941   1.032  -0.144  0.00  0.00    +0.033 A 
ATOM      3  C   UNL     1       6.175   1.631  -0.253  0.00  0.00    +0.010 A 
ATOM      4  C   UNL     1       7.319   0.852  -0.259  0.00  0.00    +0.001 A 
ATOM      5  C   UNL     1       7.220  -0.524  -0.156  0.00  0.00    +0.002 A 
ATOM      6  C   UNL     1       5.983  -1.128  -0.047  0.00  0.00    +0.024 A 
ATOM      7  C   UNL     1       4.833  -0.351  -0.041  0.00  0.00    +0.043 A 
ATOM      8  N   UNL     1       3.574  -0.942   0.067  0.00  0.00    -0.269 N 
ATOM      9  C   UNL     1       2.436  -0.237   0.078  0.00  0.00    +0.314 C 
ATOM     10  O   UNL     1       1.383  -0.837   0.175  0.00  0.00    -0.252 OA
ATOM     11  N   UNL     1       2.403   1.105  -0.015  0.00  0.00    -0.214 N 
ATOM     12  H   UNL     1       3.520  -1.908   0.138  0.00  0.00    +0.156 HD
ENDROOT
BRANCH  11  13
ATOM     13  C   UNL     1       1.180   1.787   0.000  0.00  0.00    +0.043 A 
ATOM     14  C   UNL     1       0.242   1.556  -0.998  0.00  0.00    +0.025 A 
ATOM     15  C   UNL     1      -0.960   2.235  -0.984  0.00  0.00    +0.023 A 
ATOM     16  C   UNL     1      -1.237   3.135   0.030  0.00  0.00    +0.059 A 
ATOM     17  C   UNL     1      -0.304   3.367   1.026  0.00  0.00    +0.061 A 
ATOM     18  C   UNL     1       0.904   2.695   1.013  0.00  0.00    +0.045 A 
ATOM     19 CL   UNL     1      -0.651   4.503   2.293  0.00  0.00    -0.082 Cl
ATOM     20 CL   UNL     1      -2.753   3.981   0.048  0.00  0.00    -0.082 Cl
ENDBRANCH  11  13
BRANCH   1  22
ATOM     21  N   UNL     1       3.367   2.021  -2.589  0.00  0.00    -0.309 N 
ATOM     22  C   UNL     1       3.618   2.642  -1.419  0.00  0.00    +0.269 C 
ATOM     23  O   UNL     1       3.802   3.841  -1.396  0.00  0.00    -0.270 OA
ATOM     24  H   UNL     1       3.220   1.063  -2.608  0.00  0.00    +0.149 HD
BRANCH  21  26
ATOM     25  C   UNL     1       4.732   2.956  -4.390  0.00  0.00    +0.028 C 
ATOM     26  C   UNL     1       3.317   2.794  -3.833  0.00  0.00    +0.070 C 
BRANCH  26  27
ATOM     27  C   UNL     1       2.447   2.060  -4.855  0.00  0.00    +0.026 C 
BRANCH  27  28
ATOM     28  C   UNL     1       1.003   2.008  -4.352  0.00  0.00    +0.037 C 
BRANCH  28  29
ATOM     29  C   UNL     1       0.146   1.285  -5.359  0.00  0.00    -0.047 A 
ATOM     30  C   UNL     1      -0.481   1.992  -6.368  0.00  0.00    +0.003 A 
ATOM     31  C   UNL     1      -1.263   1.328  -7.295  0.00  0.00    +0.000 A 
ATOM     32  C   UNL     1      -1.427  -0.041  -7.206  0.00  0.00    +0.000 A 
ATOM     33  C   UNL     1      -0.805  -0.748  -6.194  0.00  0.00    +0.000 A 
ATOM     34  C   UNL     1      -0.018  -0.085  -5.270  0.00  0.00    +0.003 A 
ENDBRANCH  28  29
ENDBRANCH  27  28
ENDBRANCH  26  27
ENDBRANCH  21  26
ENDBRANCH   1  22
BRANCH   1  35
ATOM     35  O   UNL     1       3.747   2.772   0.946  0.00  0.00    -0.360 OA
ATOM     36  H   UNL     1       4.551   3.309   0.948  0.00  0.00    +0.213 HD
ENDBRANCH   1  35
TORSDOF 7
