REMARK  Name = ZINC12595617
REMARK  8 active torsions:
REMARK  status: ('A' for Active; 'I' for Inactive)
REMARK    1  A    between atoms: C_1  and  C_2
REMARK    2  A    between atoms: N_10  and  N_14
REMARK    3  A    between atoms: C_15  and  C_17
REMARK    4  A    between atoms: C_17  and  N_67
REMARK    5  A    between atoms: C_18  and  N_67
REMARK    6  A    between atoms: C_19  and  C_20
REMARK    7  A    between atoms: C_19  and  N_67
REMARK    8  A    between atoms: C_23  and  N_26
REMARK                            x       y       z     vdW  Elec       q    Type
REMARK                         _______ _______ _______ _____ _____    ______ ____
ROOT
ATOM      1  N   UNL     1      -0.839   0.778  -4.788  0.00  0.00    -0.225 N 
ATOM      2  C   UNL     1      -1.114   1.262  -3.560  0.00  0.00    +0.213 C 
ATOM      3  O   UNL     1      -2.089   1.963  -3.389  0.00  0.00    -0.276 OA
ATOM      4  H   UNL     1      -0.060   0.216  -4.925  0.00  0.00    +0.173 HD
ENDROOT
BRANCH   1  14
ATOM      5  C   UNL     1      -5.187   2.888 -11.083  0.00  0.00    +0.007 C 
ATOM      6  C   UNL     1      -3.974   2.903 -10.151  0.00  0.00    -0.014 C 
ATOM      7  C   UNL     1      -4.412   3.333  -8.750  0.00  0.00    +0.006 C 
ATOM      8  C   UNL     1      -3.195   3.358  -7.822  0.00  0.00    +0.035 C 
ATOM      9  C   UNL     1      -2.561   1.973  -7.771  0.00  0.00    +0.114 C 
ATOM     10  C   UNL     1      -2.142   1.520  -9.165  0.00  0.00    +0.035 C 
ATOM     11  C   UNL     1      -3.363   1.501 -10.088  0.00  0.00    +0.006 C 
ATOM     12  C   UNL     1      -1.373   1.971  -6.837  0.00  0.00    +0.263 C 
ATOM     13  O   UNL     1      -0.358   2.627  -6.939  0.00  0.00    -0.271 OA
ATOM     14  N   UNL     1      -1.679   1.086  -5.866  0.00  0.00    -0.137 N 
ATOM     15  C   UNL     1      -2.882   0.534  -6.064  0.00  0.00    +0.326 C 
ATOM     16  O   UNL     1      -3.375  -0.296  -5.325  0.00  0.00    -0.251 OA
ATOM     17  N   UNL     1      -3.487   1.004  -7.172  0.00  0.00    -0.284 N 
ATOM     18  H   UNL     1      -4.361   0.750  -7.509  0.00  0.00    +0.151 HD
ENDBRANCH   1  14
BRANCH   2  19
ATOM     19  C   UNL     1      -0.211   0.930  -2.400  0.00  0.00    +0.020 C 
BRANCH  19  21
ATOM     20  C   UNL     1      -0.640   3.036  -1.283  0.00  0.00    -0.095 C 
ATOM     21  N   UNL     1      -0.751   1.565  -1.179  0.00  0.00    +0.386 N 
ATOM     22  H   UNL     1      -1.741   1.312  -1.081  0.00  0.00    -0.081 HD
BRANCH  21  23
ATOM     23  C   UNL     1      -0.013   1.086   0.008  0.00  0.00    -0.043 C 
BRANCH  23  24
ATOM     24  C   UNL     1      -0.718   1.572   1.248  0.00  0.00    -0.064 A 
ATOM     25  C   UNL     1      -0.358   2.780   1.817  0.00  0.00    +0.003 A 
ATOM     26  C   UNL     1      -1.007   3.231   2.950  0.00  0.00    +0.023 A 
ATOM     27  C   UNL     1      -2.013   2.464   3.524  0.00  0.00    +0.030 A 
ATOM     28  C   UNL     1      -2.368   1.249   2.953  0.00  0.00    +0.023 A 
ATOM     29  C   UNL     1      -1.720   0.806   1.817  0.00  0.00    +0.003 A 
BRANCH  27  30
ATOM     30  N   UNL     1      -2.667   2.915   4.673  0.00  0.00    -0.330 N 
ATOM     31  C   UNL     1      -4.119   2.977   4.462  0.00  0.00    +0.105 C 
ATOM     32  C   UNL     1      -4.813   3.333   5.779  0.00  0.00    +0.019 C 
ATOM     33  C   UNL     1      -4.292   4.684   6.276  0.00  0.00    +0.003 C 
ATOM     34  C   UNL     1      -2.772   4.607   6.441  0.00  0.00    +0.019 C 
ATOM     35  C   UNL     1      -2.137   4.215   5.105  0.00  0.00    +0.105 C 
ENDBRANCH  27  30
ENDBRANCH  23  24
ENDBRANCH  21  23
ENDBRANCH  19  21
ENDBRANCH   2  19
TORSDOF 6
