REMARK  Name = ZINC39696399
REMARK  13 active torsions:
REMARK  status: ('A' for Active; 'I' for Inactive)
REMARK    1  A    between atoms: C_1  and  C_2
REMARK    2  A    between atoms: C_2  and  C_3
REMARK    3  A    between atoms: C_2  and  C_4
REMARK    4  A    between atoms: C_2  and  S_5
REMARK    5  A    between atoms: S_5  and  C_6
REMARK    6  A    between atoms: C_6  and  C_7
REMARK    7  A    between atoms: C_7  and  N_8
REMARK    8  A    between atoms: C_9  and  C_11
REMARK    9  A    between atoms: C_22  and  C_24
REMARK   10  A    between atoms: C_27  and  O_32
REMARK   11  A    between atoms: C_29  and  O_30
REMARK   12  A    between atoms: O_30  and  C_31
REMARK   13  A    between atoms: O_32  and  C_33
REMARK                            x       y       z     vdW  Elec       q    Type
REMARK                         _______ _______ _______ _____ _____    ______ ____
ROOT
ATOM      1  C   UNL     1       6.994   0.616  -3.293  0.00  0.00    +0.100 C 
ATOM      2  C   UNL     1       7.673   0.153  -1.984  0.00  0.00    +0.121 C 
ATOM      3  N   UNL     1       8.470  -1.033  -2.376  0.00  0.00    -0.296 N 
ATOM      4  C   UNL     1       9.032  -0.679  -3.701  0.00  0.00    +0.115 C 
ATOM      5  C   UNL     1       7.891   0.071  -4.417  0.00  0.00    -0.004 C 
ATOM      6  C   UNL     1       8.454   1.220  -5.248  0.00  0.00    -0.010 C 
ATOM      7  C   UNL     1       9.294   0.651  -6.395  0.00  0.00    -0.082 C 
ATOM      8  N   UNL     1       8.460  -0.221  -7.230  0.00  0.00    +0.379 N 
ATOM      9  C   UNL     1       7.998  -1.373  -6.447  0.00  0.00    -0.082 C 
ATOM     10  C   UNL     1       7.103  -0.890  -5.303  0.00  0.00    -0.010 C 
ATOM     11  C   UNL     1       8.646  -2.176  -1.682  0.00  0.00    +0.250 C 
ATOM     12  O   UNL     1       8.038  -2.357  -0.645  0.00  0.00    -0.270 OA
ATOM     13  H   UNL     1       7.661   0.299  -7.564  0.00  0.00    -0.086 HD
ATOM     14  H   UNL     1       8.999  -0.546  -8.019  0.00  0.00    -0.086 HD
ENDROOT
BRANCH  11  15
ATOM     15  C   UNL     1       9.575  -3.204  -2.181  0.00  0.00    +0.079 A 
ATOM     16  C   UNL     1      10.747  -2.829  -2.846  0.00  0.00    +0.020 A 
ATOM     17  C   UNL     1      11.612  -3.793  -3.310  0.00  0.00    +0.046 A 
ATOM     18  C   UNL     1      11.325  -5.142  -3.121  0.00  0.00    +0.124 A 
ATOM     19  C   UNL     1      10.166  -5.525  -2.464  0.00  0.00    +0.092 A 
ATOM     20  C   UNL     1       9.290  -4.564  -1.987  0.00  0.00    +0.136 A 
BRANCH  20  21
ATOM     21  O   UNL     1       8.158  -4.937  -1.338  0.00  0.00    -0.494 OA
ATOM     22  C   UNL     1       7.935  -6.339  -1.177  0.00  0.00    +0.277 C 
ENDBRANCH  20  21
BRANCH  18  23
ATOM     23  O   UNL     1      12.184  -6.086  -3.583  0.00  0.00    -0.495 OA
ATOM     24  C   UNL     1      13.359  -5.623  -4.251  0.00  0.00    +0.277 C 
ENDBRANCH  18  23
ENDBRANCH  11  15
BRANCH   1  26
ATOM     25  N   UNL     1       4.641   0.711  -4.049  0.00  0.00    -0.314 N 
ATOM     26  C   UNL     1       5.608   0.034  -3.399  0.00  0.00    +0.218 C 
ATOM     27  O   UNL     1       5.362  -1.044  -2.899  0.00  0.00    -0.275 OA
ATOM     28  H   UNL     1       4.837   1.573  -4.449  0.00  0.00    +0.149 HD
BRANCH  25  29
ATOM     29  C   UNL     1       3.293   0.146  -4.152  0.00  0.00    +0.115 C 
BRANCH  29  30
ATOM     30  C   UNL     1       2.395   1.107  -4.933  0.00  0.00    +0.088 C 
BRANCH  30  31
ATOM     31  S   UNL     1       0.726   0.407  -5.061  0.00  0.00    -0.153 S 
BRANCH  31  33
ATOM     32  C   UNL     1       0.450   1.844  -7.372  0.00  0.00    +0.022 C 
ATOM     33  C   UNL     1      -0.201   1.651  -6.000  0.00  0.00    +0.008 C 
ATOM     34  C   UNL     1      -0.189   2.979  -5.239  0.00  0.00    +0.022 C 
ATOM     35  C   UNL     1      -1.645   1.181  -6.183  0.00  0.00    +0.022 C 
ENDBRANCH  31  33
ENDBRANCH  30  31
ENDBRANCH  29  30
ENDBRANCH  25  29
ENDBRANCH   1  26
TORSDOF 8
