REMARK  Name = ZINC08791536
REMARK  6 active torsions:
REMARK  status: ('A' for Active; 'I' for Inactive)
REMARK    1  A    between atoms: C_1  and  C_2
REMARK    2  A    between atoms: C_2  and  C_3
REMARK    3  A    between atoms: C_3  and  C_4
REMARK    4  A    between atoms: C_4  and  N_5
REMARK    5  A    between atoms: C_10  and  C_27
REMARK    6  A    between atoms: C_27  and  C_28
REMARK                            x       y       z     vdW  Elec       q    Type
REMARK                         _______ _______ _______ _____ _____    ______ ____
ROOT
ATOM      1  N   UNL     1      -4.175   7.797   0.555  0.00  0.00    -0.242 N 
ATOM      2  C   UNL     1      -2.887   8.021   0.268  0.00  0.00    +0.224 C 
ATOM      3  O   UNL     1      -2.446   8.247  -0.838  0.00  0.00    -0.275 OA
ATOM      4  C   UNL     1      -2.069   7.948   1.537  0.00  0.00    +0.073 C 
ATOM      5  C   UNL     1      -1.157   6.704   1.486  0.00  0.00    -0.053 C 
ATOM      6  C   UNL     1      -2.747   6.223   3.129  0.00  0.00    +0.050 C 
ATOM      7  C   UNL     1      -3.127   7.622   2.628  0.00  0.00    +0.088 C 
ATOM      8  C   UNL     1      -4.422   7.564   1.850  0.00  0.00    +0.225 C 
ATOM      9  O   UNL     1      -5.515   7.341   2.325  0.00  0.00    -0.275 OA
ATOM     10  C   UNL     1      -3.961   5.411   3.478  0.00  0.00    -0.026 A 
ATOM     11  C   UNL     1      -5.061   4.994   2.762  0.00  0.00    +0.004 A 
ATOM     12  C   UNL     1      -6.041   4.235   3.377  0.00  0.00    +0.002 A 
ATOM     13  C   UNL     1      -5.913   3.896   4.712  0.00  0.00    +0.022 A 
ATOM     14  C   UNL     1      -4.813   4.311   5.434  0.00  0.00    +0.062 A 
ATOM     15  C   UNL     1      -3.821   5.077   4.822  0.00  0.00    +0.054 A 
ATOM     16  N   UNL     1      -2.634   5.608   5.331  0.00  0.00    -0.285 N 
ATOM     17  C   UNL     1      -1.945   6.295   4.400  0.00  0.00    +0.211 C 
ATOM     18  O   UNL     1      -0.884   6.862   4.555  0.00  0.00    -0.277 OA
ATOM     19 CL   UNL     1      -4.663   3.881   7.109  0.00  0.00    -0.082 Cl
ATOM     20  H   UNL     1      -2.340   5.496   6.249  0.00  0.00    +0.155 HD
ATOM     21  N   UNL     1      -1.989   5.633   2.034  0.00  0.00    +0.394 N 
ATOM     22  H   UNL     1      -1.399   4.867   2.381  0.00  0.00    -0.083 HD
ATOM     23  H   UNL     1      -2.626   5.274   1.313  0.00  0.00    -0.083 HD
ENDROOT
BRANCH   1  24
ATOM     24  C   UNL     1      -5.227   7.806  -0.464  0.00  0.00    +0.116 C 
BRANCH  24  25
ATOM     25  C   UNL     1      -5.791   9.222  -0.602  0.00  0.00    +0.019 C 
BRANCH  25  27
ATOM     26  C   UNL     1      -7.455  10.647  -1.804  0.00  0.00    +0.004 C 
ATOM     27  C   UNL     1      -6.891   9.231  -1.666  0.00  0.00    -0.002 C 
ENDBRANCH  25  27
ENDBRANCH  24  25
ENDBRANCH   1  24
BRANCH   5  28
ATOM     28  C   UNL     1      -0.741   6.409   0.043  0.00  0.00    +0.022 C 
BRANCH  28  29
ATOM     29  C   UNL     1       0.245   5.269   0.029  0.00  0.00    -0.024 A 
ATOM     30  C   UNL     1       1.583   5.371   0.017  0.00  0.00    +0.087 A 
ATOM     31  N   UNL     1       2.147   4.124   0.004  0.00  0.00    -0.360 N 
ATOM     32  H   UNL     1       3.099   3.943  -0.006  0.00  0.00    +0.165 HD
ATOM     33  C   UNL     1       1.159   3.165   0.008  0.00  0.00    +0.047 A 
ATOM     34  C   UNL     1      -0.075   3.840   0.023  0.00  0.00    +0.003 A 
ATOM     35  C   UNL     1      -1.267   3.112   0.031  0.00  0.00    +0.010 A 
ATOM     36  C   UNL     1      -1.228   1.746   0.017  0.00  0.00    +0.001 A 
ATOM     37  C   UNL     1      -0.013   1.076   0.008  0.00  0.00    +0.002 A 
ATOM     38  C   UNL     1       1.175   1.774   0.000  0.00  0.00    +0.026 A 
ENDBRANCH  28  29
ENDBRANCH   5  28
TORSDOF 5
