REMARK  Name = ZINC63066424
REMARK  4 active torsions:
REMARK  status: ('A' for Active; 'I' for Inactive)
REMARK    1  A    between atoms: C_1  and  C_2
REMARK    2  A    between atoms: C_2  and  C_19
REMARK    3  A    between atoms: N_6  and  C_7
REMARK    4  A    between atoms: C_16  and  N_17
REMARK                            x       y       z     vdW  Elec       q    Type
REMARK                         _______ _______ _______ _____ _____    ______ ____
ROOT
ATOM      1  C   UNL     1       2.046  -0.256   1.500  0.00  0.00    +0.062 A 
ATOM      2  C   UNL     1       3.069  -1.118   1.047  0.00  0.00    +0.022 A 
ATOM      3  C   UNL     1       2.779  -2.250   0.271  0.00  0.00    +0.027 A 
ATOM      4  C   UNL     1       3.793  -3.059  -0.147  0.00  0.00    +0.019 A 
ATOM      5  C   UNL     1       5.116  -2.775   0.187  0.00  0.00    +0.017 A 
ATOM      6  C   UNL     1       5.432  -1.685   0.938  0.00  0.00    +0.027 A 
ATOM      7  C   UNL     1       4.413  -0.827   1.388  0.00  0.00    +0.048 A 
ATOM      8  N   UNL     1       4.698   0.251   2.127  0.00  0.00    -0.359 N 
ATOM      9  C   UNL     1       3.760   1.062   2.555  0.00  0.00    +0.107 A 
ATOM     10  C   UNL     1       2.414   0.849   2.259  0.00  0.00    +0.063 A 
ATOM     11 BR   UNL     1       3.400  -4.585  -1.193  0.00  0.00    -0.050 Br
ATOM     12  H   UNL     1       5.623   0.437   2.352  0.00  0.00    +0.165 HD
ENDROOT
BRANCH   1  18
ATOM     13  C   UNL     1      -0.019   1.526   0.010  0.00  0.00    +0.031 C 
ATOM     14  C   UNL     1       0.002  -0.004   0.002  0.00  0.00    +0.029 C 
ATOM     15  C   UNL     1      -1.440  -0.549   0.068  0.00  0.00    +0.027 C 
ATOM     16  C   UNL     1      -1.302  -1.785   0.996  0.00  0.00    +0.021 C 
ATOM     17  C   UNL     1      -0.225  -1.303   1.999  0.00  0.00    +0.106 C 
ATOM     18  N   UNL     1       0.712  -0.501   1.190  0.00  0.00    -0.323 N 
ATOM     19  C   UNL     1       0.694  -0.508  -1.266  0.00  0.00    +0.031 C 
ENDBRANCH   1  18
BRANCH  10  20
ATOM     20  N   UNL     1       1.439   1.741   2.728  0.00  0.00    -0.355 N 
ATOM     21  H   UNL     1       0.503   1.588   2.523  0.00  0.00    +0.142 HD
ATOM     22  H   UNL     1       1.700   2.510   3.257  0.00  0.00    +0.142 HD
ENDBRANCH  10  20
TORSDOF 2
