REMARK  Name = ZINC08583341
REMARK  8 active torsions:
REMARK  status: ('A' for Active; 'I' for Inactive)
REMARK    1  A    between atoms: C_1  and  C_2
REMARK    2  A    between atoms: C_6  and  C_8
REMARK    3  A    between atoms: C_8  and  S_9
REMARK    4  A    between atoms: S_9  and  C_12
REMARK    5  A    between atoms: C_12  and  C_13
REMARK    6  A    between atoms: C_20  and  C_25
REMARK    7  A    between atoms: N_27  and  C_28
REMARK    8  A    between atoms: C_28  and  C_29
REMARK                            x       y       z     vdW  Elec       q    Type
REMARK                         _______ _______ _______ _____ _____    ______ ____
ROOT
ATOM      1  C   UNL     1       2.959  -4.362   5.134  0.00  0.00    +0.178 C 
ATOM      2  C   UNL     1       2.801  -5.124   6.425  0.00  0.00    +0.239 C 
ATOM      3  O   UNL     1       2.746  -4.520   7.476  0.00  0.00    -0.273 OA
ATOM      4  N   UNL     1       2.720  -6.467   6.424  0.00  0.00    -0.282 N 
ATOM      5  C   UNL     1       2.920  -7.196   5.245  0.00  0.00    +0.055 A 
ATOM      6  C   UNL     1       2.638  -8.548   5.201  0.00  0.00    +0.038 A 
ATOM      7  C   UNL     1       2.835  -9.260   4.014  0.00  0.00    +0.039 A 
ATOM      8  C   UNL     1       3.315  -8.604   2.877  0.00  0.00    +0.015 A 
ATOM      9  C   UNL     1       3.598  -7.256   2.925  0.00  0.00    +0.025 A 
ATOM     10  C   UNL     1       3.406  -6.550   4.104  0.00  0.00    +0.049 A 
ATOM     11  N   UNL     1       3.710  -5.188   4.177  0.00  0.00    -0.330 N 
ATOM     12  H   UNL     1       2.521  -6.936   7.250  0.00  0.00    +0.155 HD
ATOM     13  H   UNL     1       4.396  -4.797   3.613  0.00  0.00    +0.147 HD
ENDROOT
BRANCH   7  14
ATOM     14  C   UNL     1       2.536 -10.703   3.962  0.00  0.00    +0.244 C 
ATOM     15  O   UNL     1       2.119 -11.274   4.951  0.00  0.00    -0.270 OA
ATOM     16  N   UNL     1       2.726 -11.390   2.818  0.00  0.00    -0.307 N 
ATOM     17  H   UNL     1       3.058 -10.935   2.029  0.00  0.00    +0.149 HD
BRANCH  16  18
ATOM     18  C   UNL     1       2.429 -12.824   2.766  0.00  0.00    +0.141 C 
BRANCH  18  19
ATOM     19  C   UNL     1       2.724 -13.348   1.384  0.00  0.00    -0.012 A 
ATOM     20  C   UNL     1       1.695 -13.533   0.481  0.00  0.00    +0.006 A 
ATOM     21  C   UNL     1       1.965 -14.014  -0.787  0.00  0.00    +0.000 A 
ATOM     22  C   UNL     1       3.265 -14.311  -1.151  0.00  0.00    +0.001 A 
ATOM     23  C   UNL     1       4.295 -14.126  -0.248  0.00  0.00    +0.020 A 
ATOM     24  C   UNL     1       4.026 -13.639   1.018  0.00  0.00    +0.046 A 
ATOM     25 CL   UNL     1       5.320 -13.402   2.151  0.00  0.00    -0.083 Cl
ENDBRANCH  18  19
ENDBRANCH  16  18
ENDBRANCH   7  14
BRANCH   1  26
ATOM     26  C   UNL     1       1.578  -4.039   4.558  0.00  0.00    +0.198 C 
BRANCH  26  27
ATOM     27  S   UNL     1       1.770  -3.127   3.002  0.00  0.00    -0.025 S 
ATOM     28  O   UNL     1       2.388  -3.985   2.052  0.00  0.00    -0.174 OA
ATOM     29  O   UNL     1       2.367  -1.870   3.288  0.00  0.00    -0.174 OA
BRANCH  27  30
ATOM     30  C   UNL     1       0.054  -2.845   2.489  0.00  0.00    +0.201 C 
BRANCH  30  36
ATOM     31  C   UNL     1      -0.018   1.503   0.010  0.00  0.00    +0.044 C 
ATOM     32  C   UNL     1       0.002  -0.004   0.002  0.00  0.00    -0.050 A 
ATOM     33  C   UNL     1       0.006  -0.689  -1.199  0.00  0.00    +0.003 A 
ATOM     34  C   UNL     1       0.025  -2.071  -1.207  0.00  0.00    +0.001 A 
ATOM     35  C   UNL     1       0.040  -2.768  -0.013  0.00  0.00    +0.005 A 
ATOM     36  C   UNL     1       0.037  -2.084   1.188  0.00  0.00    -0.026 A 
ATOM     37  C   UNL     1       0.023  -0.702   1.195  0.00  0.00    +0.008 A 
ENDBRANCH  30  36
ENDBRANCH  27  30
ENDBRANCH  26  27
ENDBRANCH   1  26
TORSDOF 7
