REMARK  Name = ZINC14274772
REMARK  6 active torsions:
REMARK  status: ('A' for Active; 'I' for Inactive)
REMARK    1  A    between atoms: C_6  and  C_11
REMARK    2  A    between atoms: N_16  and  C_17
REMARK    3  A    between atoms: C_17  and  N_19
REMARK    4  A    between atoms: C_20  and  C_22
REMARK    5  A    between atoms: C_25  and  N_31
REMARK    6  A    between atoms: C_26  and  N_28
REMARK                            x       y       z     vdW  Elec       q    Type
REMARK                         _______ _______ _______ _____ _____    ______ ____
ROOT
ATOM      1  C   UNL     1       3.216  -6.399   0.205  0.00  0.00    +0.163 C 
ATOM      2  S   UNL     1       1.647  -7.018  -0.088  0.00  0.00    -0.016 S 
ENDROOT
BRANCH   1   8
ATOM      3  C   UNL     1       1.156  -2.217   0.262  0.00  0.00    +0.055 A 
ATOM      4  C   UNL     1      -0.008  -2.895   0.026  0.00  0.00    +0.074 A 
ATOM      5  S   UNL     1       0.595  -4.577  -0.031  0.00  0.00    -0.060 S 
ATOM      6  C   UNL     1       2.319  -4.207   0.263  0.00  0.00    +0.162 A 
ATOM      7  N   UNL     1       2.291  -2.891   0.370  0.00  0.00    -0.335 N 
ATOM      8  N   UNL     1       3.401  -5.072   0.351  0.00  0.00    -0.169 NA
ATOM      9  H   UNL     1       3.234  -2.356   0.551  0.00  0.00    +0.168 HD
BRANCH   3  15
ATOM     10  C   UNL     1       2.257   4.104   0.881  0.00  0.00    +0.001 A 
ATOM     11  C   UNL     1       3.475   3.426   0.899  0.00  0.00    +0.001 A 
ATOM     12  C   UNL     1       3.523   2.071   0.785  0.00  0.00    +0.008 A 
ATOM     13  C   UNL     1       2.329   1.341   0.646  0.00  0.00    -0.017 A 
ATOM     14  C   UNL     1       2.343  -0.057   0.526  0.00  0.00    +0.018 A 
ATOM     15  C   UNL     1       1.148  -0.740   0.391  0.00  0.00    -0.001 A 
ATOM     16  C   UNL     1      -0.073  -0.045   0.374  0.00  0.00    +0.010 A 
ATOM     17  C   UNL     1      -0.107   1.307   0.490  0.00  0.00    +0.009 A 
ATOM     18  C   UNL     1       1.091   2.031   0.628  0.00  0.00    -0.018 A 
ATOM     19  C   UNL     1       1.082   3.431   0.749  0.00  0.00    +0.008 A 
ENDBRANCH   3  15
ENDBRANCH   1   8
BRANCH   1  20
ATOM     20  N   UNL     1       4.267  -7.240   0.290  0.00  0.00    -0.262 N 
ATOM     21  C   UNL     1       4.082  -8.567   0.145  0.00  0.00    +0.250 C 
ATOM     22  O   UNL     1       2.967  -9.006  -0.064  0.00  0.00    -0.270 OA
ATOM     23  H   UNL     1       5.275  -6.842   0.479  0.00  0.00    +0.157 HD
BRANCH  21  24
ATOM     24  C   UNL     1       5.231  -9.486   0.238  0.00  0.00    +0.039 A 
ATOM     25  C   UNL     1       6.514  -8.982   0.471  0.00  0.00    +0.015 A 
ATOM     26  C   UNL     1       7.577  -9.834   0.563  0.00  0.00    +0.026 A 
ATOM     27  C   UNL     1       7.391 -11.206   0.413  0.00  0.00    +0.060 A 
ATOM     28  C   UNL     1       6.117 -11.716   0.174  0.00  0.00    +0.148 A 
ATOM     29  C   UNL     1       5.040 -10.863   0.087  0.00  0.00    +0.047 A 
BRANCH  27  30
ATOM     30  N   UNL     1       8.478 -12.068   0.501  0.00  0.00    -0.328 N 
ATOM     31  C   UNL     1       9.560 -11.656  -0.429  0.00  0.00    +0.105 C 
ATOM     32  C   UNL     1      10.816 -12.348   0.160  0.00  0.00    +0.020 C 
ATOM     33  C   UNL     1      10.591 -12.231   1.685  0.00  0.00    +0.020 C 
ATOM     34  C   UNL     1       9.074 -12.032   1.854  0.00  0.00    +0.105 C 
ENDBRANCH  27  30
BRANCH  28  35
ATOM     35  N   UNL     1       5.922 -13.175   0.015  0.00  0.00    +0.058 N 
ATOM     36  O   UNL     1       4.797 -13.630  -0.095  0.00  0.00    -0.126 OA
ATOM     37  O   UNL     1       6.885 -13.919  -0.006  0.00  0.00    -0.126 OA
ENDBRANCH  28  35
ENDBRANCH  21  24
ENDBRANCH   1  20
TORSDOF 6
