REMARK  Name = ZINC33072080
REMARK  9 active torsions:
REMARK  status: ('A' for Active; 'I' for Inactive)
REMARK    1  A    between atoms: C_1  and  C_2
REMARK    2  A    between atoms: C_16  and  C_19
REMARK    3  A    between atoms: N_21  and  C_22
REMARK    4  A    between atoms: C_22  and  C_23
REMARK    5  A    between atoms: C_23  and  C_24
REMARK    6  A    between atoms: C_24  and  O_25
REMARK    7  A    between atoms: O_25  and  C_26
REMARK    8  A    between atoms: C_26  and  C_27
REMARK    9  A    between atoms: C_26  and  C_28
REMARK                            x       y       z     vdW  Elec       q    Type
REMARK                         _______ _______ _______ _____ _____    ______ ____
ROOT
ATOM      1  C   UNL     1      -1.335   2.114   0.020  0.00  0.00    +0.044 C 
ATOM      2  C   UNL     1      -0.017   1.383   0.010  0.00  0.00    -0.048 A 
ATOM      3  C   UNL     1       0.002  -0.004   0.002  0.00  0.00    +0.005 A 
ATOM      4  C   UNL     1       1.198  -0.687  -0.013  0.00  0.00    +0.028 A 
ATOM      5  C   UNL     1       2.401   0.022  -0.020  0.00  0.00    +0.065 A 
ATOM      6  C   UNL     1       2.377   1.427  -0.013  0.00  0.00    +0.066 A 
ATOM      7  C   UNL     1       1.163   2.098   0.002  0.00  0.00    +0.031 A 
ATOM      8  N   UNL     1       3.700   1.836  -0.023  0.00  0.00    -0.327 N 
ATOM      9  H   UNL     1       3.945   2.908  -0.020  0.00  0.00    +0.169 HD
ATOM     10  C   UNL     1       4.472   0.709  -0.036  0.00  0.00    +0.174 A 
ATOM     11  N   UNL     1       3.707  -0.354  -0.035  0.00  0.00    -0.327 N 
ATOM     12  N   UNL     1       5.851   0.694  -0.049  0.00  0.00    -0.302 N 
ATOM     13  C   UNL     1       6.396   1.452   1.084  0.00  0.00    +0.108 C 
ATOM     14  C   UNL     1       7.918   1.536   0.958  0.00  0.00    +0.020 C 
ATOM     15  C   UNL     1       8.503   0.121   0.939  0.00  0.00    +0.016 C 
ATOM     16  C   UNL     1       7.883  -0.663  -0.220  0.00  0.00    +0.092 C 
ATOM     17  C   UNL     1       6.361  -0.683  -0.060  0.00  0.00    +0.120 C 
ATOM     18  H   UNL     1       3.971  -1.422  -0.043  0.00  0.00    +0.169 HD
ENDROOT
BRANCH  16  19
ATOM     19  C   UNL     1       8.409  -2.075  -0.211  0.00  0.00    +0.218 C 
ATOM     20  O   UNL     1       7.642  -3.007  -0.088  0.00  0.00    -0.275 OA
ATOM     21  N   UNL     1       9.731  -2.303  -0.339  0.00  0.00    -0.315 N 
ATOM     22  H   UNL     1      10.426  -1.458  -0.450  0.00  0.00    +0.149 HD
BRANCH  21  23
ATOM     23  C   UNL     1      10.242  -3.676  -0.329  0.00  0.00    +0.106 C 
BRANCH  23  24
ATOM     24  C   UNL     1      11.763  -3.655  -0.489  0.00  0.00    +0.047 C 
BRANCH  24  25
ATOM     25  C   UNL     1      12.297  -5.089  -0.479  0.00  0.00    +0.161 C 
BRANCH  25  26
ATOM     26  O   UNL     1      13.718  -5.069  -0.629  0.00  0.00    -0.377 OA
BRANCH  26  27
ATOM     27  C   UNL     1      14.320  -6.365  -0.632  0.00  0.00    +0.112 C 
ATOM     28  C   UNL     1      15.586  -6.338  -1.492  0.00  0.00    +0.037 C 
ATOM     29  C   UNL     1      14.685  -6.762   0.800  0.00  0.00    +0.037 C 
ENDBRANCH  26  27
ENDBRANCH  25  26
ENDBRANCH  24  25
ENDBRANCH  23  24
ENDBRANCH  21  23
ENDBRANCH  16  19
TORSDOF 6
