REMARK  Name = ZINC06193855
REMARK  8 active torsions:
REMARK  status: ('A' for Active; 'I' for Inactive)
REMARK    1  A    between atoms: C_1  and  C_2
REMARK    2  A    between atoms: C_4  and  C_40
REMARK    3  A    between atoms: C_7  and  C_14
REMARK    4  A    between atoms: C_14  and  C_16
REMARK    5  A    between atoms: C_14  and  N_69
REMARK    6  A    between atoms: N_20  and  C_21
REMARK    7  A    between atoms: C_21  and  C_22
REMARK    8  A    between atoms: N_30  and  C_33
REMARK                            x       y       z     vdW  Elec       q    Type
REMARK                         _______ _______ _______ _____ _____    ______ ____
ROOT
ATOM      1  C   UNL     1       4.873   4.287  -0.021  0.00  0.00    +0.039 C 
ENDROOT
BRANCH   1   8
ATOM      2  C   UNL     1      -1.297  -0.767   0.011  0.00  0.00    +0.044 C 
ATOM      3  C   UNL     1       0.002  -0.004   0.002  0.00  0.00    -0.048 A 
ATOM      4  C   UNL     1       1.205  -0.697  -0.013  0.00  0.00    +0.007 A 
ATOM      5  C   UNL     1       2.394  -0.024  -0.020  0.00  0.00    -0.041 A 
ATOM      6  C   UNL     1       2.400   1.375  -0.013  0.00  0.00    +0.002 A 
ATOM      7  C   UNL     1       3.656   2.127  -0.021  0.00  0.00    +0.018 A 
ATOM      8  C   UNL     1       3.599   3.482  -0.014  0.00  0.00    +0.011 A 
ATOM      9  C   UNL     1       2.351   4.141   0.001  0.00  0.00    +0.251 A 
ATOM     10  O   UNL     1       2.323   5.360   0.008  0.00  0.00    -0.268 OA
ATOM     11  N   UNL     1       1.193   3.459   0.009  0.00  0.00    -0.322 N 
ATOM     12  H   UNL     1       0.353   3.944   0.019  0.00  0.00    +0.169 HD
ATOM     13  C   UNL     1       1.182   2.080   0.002  0.00  0.00    +0.050 A 
ATOM     14  C   UNL     1      -0.017   1.374   0.010  0.00  0.00    +0.029 A 
ATOM     15  C   UNL     1       3.695  -0.785  -0.036  0.00  0.00    +0.044 C 
ENDBRANCH   1   8
BRANCH   1  21
ATOM     16  C   UNL     1       4.649   4.518  -2.422  0.00  0.00    -0.058 C 
ATOM     17  C   UNL     1       4.554   5.536  -3.561  0.00  0.00    +0.086 C 
ATOM     18  N   UNL     1       5.784   6.339  -3.600  0.00  0.00    -0.331 N 
ATOM     19  C   UNL     1       5.987   7.048  -2.328  0.00  0.00    +0.086 C 
ATOM     20  C   UNL     1       6.082   6.030  -1.190  0.00  0.00    -0.058 C 
ATOM     21  N   UNL     1       4.831   5.244  -1.147  0.00  0.00    +0.391 N 
ATOM     22  H   UNL     1       4.039   5.884  -1.012  0.00  0.00    -0.080 HD
BRANCH  18  23
ATOM     23  C   UNL     1       5.764   7.234  -4.675  0.00  0.00    +0.065 A 
ATOM     24  C   UNL     1       6.868   8.036  -4.933  0.00  0.00    +0.026 A 
ATOM     25  C   UNL     1       6.847   8.916  -5.997  0.00  0.00    +0.002 A 
ATOM     26  C   UNL     1       5.725   9.005  -6.801  0.00  0.00    +0.003 A 
ATOM     27  C   UNL     1       4.622   8.212  -6.545  0.00  0.00    +0.040 A 
ATOM     28  C   UNL     1       4.637   7.326  -5.484  0.00  0.00    +0.144 A 
ATOM     29  F   UNL     1       3.559   6.551  -5.233  0.00  0.00    -0.204 F 
ENDBRANCH  18  23
ENDBRANCH   1  21
BRANCH   1  30
ATOM     30  C   UNL     1       4.989   5.055   1.270  0.00  0.00    +0.143 A 
ATOM     31  N   UNL     1       4.322   6.133   1.601  0.00  0.00    -0.115 NA
ATOM     32  N   UNL     1       4.700   6.488   2.781  0.00  0.00    -0.023 NA
ATOM     33  N   UNL     1       5.597   5.669   3.207  0.00  0.00    -0.044 NA
ATOM     34  N   UNL     1       5.803   4.771   2.304  0.00  0.00    -0.226 N 
BRANCH  34  35
ATOM     35  C   UNL     1       6.746   3.653   2.387  0.00  0.00    +0.182 C 
BRANCH  35  36
ATOM     36  C   UNL     1       8.083   4.082   1.841  0.00  0.00    -0.026 A 
ATOM     37  C   UNL     1       8.368   3.913   0.499  0.00  0.00    +0.005 A 
ATOM     38  C   UNL     1       9.593   4.311  -0.004  0.00  0.00    +0.000 A 
ATOM     39  C   UNL     1      10.537   4.868   0.839  0.00  0.00    +0.000 A 
ATOM     40  C   UNL     1      10.255   5.032   2.182  0.00  0.00    +0.000 A 
ATOM     41  C   UNL     1       9.028   4.639   2.683  0.00  0.00    +0.005 A 
ENDBRANCH  35  36
ENDBRANCH  34  35
ENDBRANCH   1  30
TORSDOF 6
