REMARK  Name = ZINC39483488
REMARK  5 active torsions:
REMARK  status: ('A' for Active; 'I' for Inactive)
REMARK    1  A    between atoms: C_4  and  O_37
REMARK    2  A    between atoms: C_5  and  C_7
REMARK    3  A    between atoms: C_22  and  C_23
REMARK    4  A    between atoms: C_25  and  C_30
REMARK    5  A    between atoms: C_35  and  O_36
REMARK                            x       y       z     vdW  Elec       q    Type
REMARK                         _______ _______ _______ _____ _____    ______ ____
ROOT
ATOM      1  C   UNL     1       2.142  -1.864  -0.324  0.00  0.00    +0.012 A 
ATOM      2  C   UNL     1       1.866  -2.494  -1.532  0.00  0.00    +0.011 A 
ATOM      3  C   UNL     1       1.912  -3.874  -1.636  0.00  0.00    +0.001 A 
ATOM      4  C   UNL     1       2.238  -4.654  -0.545  0.00  0.00    +0.015 A 
ATOM      5  C   UNL     1       2.524  -4.050   0.677  0.00  0.00    +0.066 A 
ATOM      6  C   UNL     1       2.471  -2.643   0.803  0.00  0.00    +0.086 A 
ATOM      7  N   UNL     1       2.715  -2.086   1.998  0.00  0.00    -0.228 NA
ATOM      8  C   UNL     1       3.049  -2.800   3.054  0.00  0.00    +0.140 A 
ATOM      9  N   UNL     1       3.207  -4.163   3.001  0.00  0.00    -0.293 N 
ATOM     10  C   UNL     1       2.889  -4.835   1.863  0.00  0.00    +0.262 A 
ATOM     11  O   UNL     1       2.920  -6.051   1.825  0.00  0.00    -0.267 OA
ATOM     12  C   UNL     1       3.740  -4.926   4.122  0.00  0.00    +0.127 C 
ATOM     13  C   UNL     1       3.496  -4.289   5.471  0.00  0.00    +0.026 C 
ATOM     14  C   UNL     1       3.855  -2.813   5.497  0.00  0.00    +0.040 C 
ATOM     15  C   UNL     1       3.235  -2.098   4.331  0.00  0.00    -0.004 C 
ATOM     16  C   UNL     1       2.850  -0.813   4.456  0.00  0.00    +0.015 C 
ENDROOT
BRANCH  16  17
ATOM     17  C   UNL     1       3.182  -0.060   5.677  0.00  0.00    -0.021 A 
ATOM     18  C   UNL     1       2.303   0.911   6.162  0.00  0.00    +0.016 A 
ATOM     19  C   UNL     1       2.623   1.617   7.316  0.00  0.00    -0.011 A 
ATOM     20  C   UNL     1       3.819   1.353   7.984  0.00  0.00    +0.047 A 
ATOM     21  C   UNL     1       4.688   0.391   7.502  0.00  0.00    +0.125 A 
ATOM     22  C   UNL     1       4.375  -0.320   6.358  0.00  0.00    +0.046 A 
ATOM     23  F   UNL     1       5.845   0.141   8.154  0.00  0.00    -0.205 F 
BRANCH  19  24
ATOM     24  C   UNL     1       1.695   2.650   7.836  0.00  0.00    +0.024 A 
ATOM     25  C   UNL     1       1.192   3.631   6.984  0.00  0.00    +0.012 A 
ATOM     26  C   UNL     1       0.329   4.591   7.473  0.00  0.00    +0.001 A 
ATOM     27  C   UNL     1      -0.041   4.582   8.806  0.00  0.00    +0.004 A 
ATOM     28  C   UNL     1       0.452   3.612   9.660  0.00  0.00    +0.046 A 
ATOM     29  C   UNL     1       1.315   2.640   9.181  0.00  0.00    +0.125 A 
BRANCH  29  30
ATOM     30  O   UNL     1       1.795   1.683  10.018  0.00  0.00    -0.506 OA
ATOM     31  H   UNL     1       2.622   1.925  10.458  0.00  0.00    +0.292 HD
ENDBRANCH  29  30
ENDBRANCH  19  24
ENDBRANCH  16  17
BRANCH   1  36
ATOM     32  C   UNL     1       0.852   1.665  -0.303  0.00  0.00    +0.001 A 
ATOM     33  C   UNL     1       2.009   2.377  -0.038  0.00  0.00    +0.004 A 
ATOM     34  C   UNL     1       3.211   1.717   0.134  0.00  0.00    +0.046 A 
ATOM     35  C   UNL     1       3.263   0.336   0.043  0.00  0.00    +0.125 A 
ATOM     36  C   UNL     1       2.096  -0.388  -0.224  0.00  0.00    +0.026 A 
ATOM     37  C   UNL     1       0.889   0.289  -0.396  0.00  0.00    +0.012 A 
BRANCH  35  38
ATOM     38  O   UNL     1       4.444  -0.315   0.212  0.00  0.00    -0.506 OA
ATOM     39  H   UNL     1       4.627  -0.566   1.127  0.00  0.00    +0.292 HD
ENDBRANCH  35  38
ENDBRANCH   1  36
TORSDOF 5
