REMARK  Name = ZINC30827903
REMARK  13 active torsions:
REMARK  status: ('A' for Active; 'I' for Inactive)
REMARK    1  A    between atoms: C_1  and  C_2
REMARK    2  A    between atoms: C_2  and  C_3
REMARK    3  A    between atoms: C_3  and  C_4
REMARK    4  A    between atoms: C_4  and  C_5
REMARK    5  A    between atoms: N_7  and  C_8
REMARK    6  A    between atoms: C_8  and  N_10
REMARK    7  A    between atoms: N_10  and  C_11
REMARK    8  A    between atoms: C_13  and  C_30
REMARK    9  A    between atoms: C_14  and  O_29
REMARK   10  A    between atoms: C_15  and  C_17
REMARK   11  A    between atoms: C_21  and  C_26
REMARK   12  A    between atoms: C_26  and  C_27
REMARK   13  A    between atoms: C_26  and  C_28
REMARK                            x       y       z     vdW  Elec       q    Type
REMARK                         _______ _______ _______ _____ _____    ______ ____
ROOT
ATOM      1  C   UNL     1      -4.519  -0.480   8.010  0.00  0.00    +0.034 A 
ATOM      2  C   UNL     1      -5.193   0.561   8.638  0.00  0.00    +0.030 A 
ATOM      3  C   UNL     1      -4.990   1.866   8.236  0.00  0.00    -0.007 A 
ATOM      4  C   UNL     1      -4.106   2.148   7.205  0.00  0.00    +0.132 A 
ATOM      5  C   UNL     1      -3.428   1.104   6.564  0.00  0.00    +0.080 A 
ATOM      6  C   UNL     1      -3.638  -0.214   6.975  0.00  0.00    +0.040 A 
ATOM      7  C   UNL     1      -5.725   2.988   8.923  0.00  0.00    +0.047 C 
ENDROOT
BRANCH   5   8
ATOM      8  C   UNL     1      -2.490   1.396   5.462  0.00  0.00    +0.232 A 
ATOM      9  N   UNL     1      -1.803   0.496   4.802  0.00  0.00    -0.209 NA
ATOM     10  C   UNL     1      -1.048   1.125   3.865  0.00  0.00    +0.110 A 
ATOM     11  C   UNL     1      -0.143   0.680   2.898  0.00  0.00    +0.035 A 
ATOM     12  C   UNL     1       0.479   1.591   2.074  0.00  0.00    -0.043 A 
ATOM     13  C   UNL     1       0.216   2.947   2.202  0.00  0.00    +0.007 A 
ATOM     14  C   UNL     1      -0.678   3.401   3.148  0.00  0.00    +0.049 A 
ATOM     15  C   UNL     1      -1.315   2.499   3.986  0.00  0.00    +0.156 A 
ATOM     16  O   UNL     1      -2.213   2.626   4.988  0.00  0.00    -0.435 OA
BRANCH  12  17
ATOM     17  C   UNL     1       1.456   1.113   1.031  0.00  0.00    +0.013 C 
ATOM     18  C   UNL     1       2.827   1.740   1.290  0.00  0.00    +0.012 C 
ATOM     19  C   UNL     1       0.961   1.523  -0.357  0.00  0.00    +0.012 C 
ENDBRANCH  12  17
ENDBRANCH   5   8
BRANCH   1  20
ATOM     20  N   UNL     1      -4.732  -1.801   8.424  0.00  0.00    -0.297 N 
ATOM     21  H   UNL     1      -5.750  -2.147   8.657  0.00  0.00    +0.154 HD
BRANCH  20  22
ATOM     22  C   UNL     1      -3.690  -2.648   8.537  0.00  0.00    +0.141 C 
ATOM     23  S   UNL     1      -2.092  -2.075   8.312  0.00  0.00    -0.018 S 
BRANCH  22  26
ATOM     24  C   UNL     1      -2.863  -4.794   8.939  0.00  0.00    +0.218 C 
ATOM     25  O   UNL     1      -1.732  -4.388   8.780  0.00  0.00    -0.275 OA
ATOM     26  N   UNL     1      -3.905  -3.947   8.826  0.00  0.00    -0.268 N 
ATOM     27  H   UNL     1      -4.931  -4.315   8.970  0.00  0.00    +0.156 HD
BRANCH  24  28
ATOM     28  C   UNL     1      -3.104  -6.246   9.263  0.00  0.00    +0.096 C 
BRANCH  28  29
ATOM     29  C   UNL     1      -1.764  -6.982   9.333  0.00  0.00    +0.009 C 
BRANCH  29  31
ATOM     30  C   UNL     1      -0.669  -9.192   9.732  0.00  0.00    +0.004 C 
ATOM     31  C   UNL     1      -2.008  -8.456   9.662  0.00  0.00    -0.003 C 
ENDBRANCH  29  31
ENDBRANCH  28  29
ENDBRANCH  24  28
ENDBRANCH  22  26
ENDBRANCH  20  22
ENDBRANCH   1  20
BRANCH   4  32
ATOM     32  O   UNL     1      -3.902   3.433   6.815  0.00  0.00    -0.506 OA
ATOM     33  H   UNL     1      -3.201   3.654   5.997  0.00  0.00    +0.292 HD
ENDBRANCH   4  32
TORSDOF 9
