REMARK  Name = ZINC37385730
REMARK  3 active torsions:
REMARK  status: ('A' for Active; 'I' for Inactive)
REMARK    1  A    between atoms: C_4  and  N_8
REMARK    2  A    between atoms: N_8  and  S_9
REMARK    3  A    between atoms: S_9  and  C_12
REMARK                            x       y       z     vdW  Elec       q    Type
REMARK                         _______ _______ _______ _____ _____    ______ ____
ROOT
ATOM      1  S   UNL     1       3.646  -2.306  -0.045  0.00  0.00    +0.094 S 
ATOM      2  O   UNL     1       3.113  -2.727   1.203  0.00  0.00    -0.148 OA
ATOM      3  O   UNL     1       3.089  -2.714  -1.288  0.00  0.00    -0.148 OA
ENDROOT
BRANCH   1   4
ATOM      4  C   UNL     1       5.336  -2.802  -0.065  0.00  0.00    +0.147 A 
ATOM      5  C   UNL     1       5.990  -2.985  -1.270  0.00  0.00    +0.070 A 
ATOM      6  C   UNL     1       7.317  -3.373  -1.285  0.00  0.00    +0.037 A 
ATOM      7  C   UNL     1       7.991  -3.579  -0.095  0.00  0.00    +0.021 A 
ATOM      8  C   UNL     1       7.338  -3.397   1.110  0.00  0.00    +0.037 A 
ATOM      9  C   UNL     1       6.012  -3.003   1.125  0.00  0.00    +0.070 A 
ATOM     10 CL   UNL     1       5.194  -2.767   2.639  0.00  0.00    -0.081 Cl
ATOM     11 BR   UNL     1       9.806  -4.111  -0.116  0.00  0.00    -0.050 Br
ATOM     12 CL   UNL     1       5.144  -2.727  -2.764  0.00  0.00    -0.081 Cl
ENDBRANCH   1   4
BRANCH   1  13
ATOM     13  N   UNL     1       3.621  -0.650  -0.036  0.00  0.00    -0.096 NA
BRANCH  13  17
ATOM     14  C   UNL     1      -0.017   1.379   0.010  0.00  0.00    +0.021 A 
ATOM     15  C   UNL     1       1.170   2.090   0.002  0.00  0.00    +0.023 A 
ATOM     16  C   UNL     1       2.378   1.420  -0.013  0.00  0.00    +0.065 A 
ATOM     17  C   UNL     1       2.401   0.030  -0.021  0.00  0.00    +0.094 A 
ATOM     18  C   UNL     1       1.208  -0.680  -0.013  0.00  0.00    +0.048 A 
ATOM     19  C   UNL     1       0.002  -0.004   0.002  0.00  0.00    +0.043 A 
ATOM     20 CL   UNL     1      -1.490  -0.892   0.012  0.00  0.00    -0.083 Cl
ATOM     21 CL   UNL     1       3.867   2.313  -0.023  0.00  0.00    -0.082 Cl
ENDBRANCH  13  17
ENDBRANCH   1  13
TORSDOF 3
