REMARK  Name = ZINC24507135
REMARK  8 active torsions:
REMARK  status: ('A' for Active; 'I' for Inactive)
REMARK    1  A    between atoms: C_1  and  C_2
REMARK    2  A    between atoms: C_9  and  N_14
REMARK    3  A    between atoms: C_10  and  C_11
REMARK    4  A    between atoms: C_15  and  C_17
REMARK    5  A    between atoms: C_17  and  S_18
REMARK    6  A    between atoms: S_18  and  C_19
REMARK    7  A    between atoms: N_23  and  C_24
REMARK    8  A    between atoms: C_24  and  C_25
REMARK                            x       y       z     vdW  Elec       q    Type
REMARK                         _______ _______ _______ _____ _____    ______ ____
ROOT
ATOM      1  N   UNL     1      -2.304  -5.917   0.763  0.00  0.00    -0.279 N 
ATOM      2  C   UNL     1      -3.569  -6.205   0.396  0.00  0.00    +0.228 C 
ATOM      3  O   UNL     1      -4.297  -5.325  -0.013  0.00  0.00    -0.275 OA
ATOM      4  H   UNL     1      -1.644  -6.715   1.134  0.00  0.00    +0.155 HD
ENDROOT
BRANCH   1  12
ATOM      5  C   UNL     1      -0.019   1.526   0.010  0.00  0.00    +0.008 C 
ATOM      6  C   UNL     1       0.002  -0.004   0.002  0.00  0.00    -0.009 C 
ATOM      7  C   UNL     1       0.742  -0.514   1.242  0.00  0.00    +0.008 C 
ATOM      8  C   UNL     1       0.984  -2.020   1.121  0.00  0.00    +0.037 C 
ATOM      9  C   UNL     1      -0.340  -2.706   0.809  0.00  0.00    -0.023 A 
ATOM     10  C   UNL     1      -1.390  -2.006   0.327  0.00  0.00    -0.004 A 
ATOM     11  S   UNL     1      -2.678  -3.203   0.125  0.00  0.00    -0.077 S 
ATOM     12  C   UNL     1      -1.836  -4.615   0.673  0.00  0.00    +0.084 A 
ATOM     13  C   UNL     1      -0.579  -4.127   0.999  0.00  0.00    +0.068 A 
ATOM     14  C   UNL     1      -1.437  -0.538   0.030  0.00  0.00    +0.046 C 
BRANCH  13  15
ATOM     15  C   UNL     1       0.470  -5.011   1.517  0.00  0.00    +0.244 C 
ATOM     16  O   UNL     1       0.577  -5.192   2.716  0.00  0.00    -0.270 OA
ATOM     17  N   UNL     1       1.315  -5.624   0.665  0.00  0.00    -0.325 N 
ATOM     18  H   UNL     1       2.102  -6.288   1.053  0.00  0.00    +0.145 HD
ATOM     19  H   UNL     1       1.219  -5.461  -0.419  0.00  0.00    +0.145 HD
ENDBRANCH  13  15
ENDBRANCH   1  12
BRANCH   2  20
ATOM     20  C   UNL     1      -4.078  -7.620   0.494  0.00  0.00    +0.173 C 
BRANCH  20  21
ATOM     21  S   UNL     1      -5.798  -7.683  -0.068  0.00  0.00    -0.075 S 
BRANCH  21  22
ATOM     22  C   UNL     1      -6.127  -9.400   0.147  0.00  0.00    +0.210 A 
ATOM     23  N   UNL     1      -5.288 -10.307   0.599  0.00  0.00    -0.101 NA
ATOM     24  N   UNL     1      -5.848 -11.462   0.630  0.00  0.00    -0.022 NA
ATOM     25  N   UNL     1      -7.064 -11.382   0.209  0.00  0.00    -0.043 NA
ATOM     26  N   UNL     1      -7.294 -10.034  -0.116  0.00  0.00    -0.215 N 
BRANCH  26  27
ATOM     27  C   UNL     1      -8.531  -9.443  -0.632  0.00  0.00    +0.190 C 
BRANCH  27  28
ATOM     28  C   UNL     1      -8.520  -9.490  -2.139  0.00  0.00    +0.011 A 
ATOM     29  C   UNL     1      -8.976 -10.462  -2.966  0.00  0.00    +0.013 A 
ATOM     30  C   UNL     1      -8.861 -10.287  -4.332  0.00  0.00    +0.008 A 
ATOM     31  C   UNL     1      -8.295  -9.150  -4.804  0.00  0.00    +0.045 A 
ATOM     32  S   UNL     1      -7.909  -8.276  -3.296  0.00  0.00    -0.100 S 
ENDBRANCH  27  28
ENDBRANCH  26  27
ENDBRANCH  21  22
ENDBRANCH  20  21
ENDBRANCH   2  20
TORSDOF 7
