REMARK  Name = ZINC20718737
REMARK  3 active torsions:
REMARK  status: ('A' for Active; 'I' for Inactive)
REMARK    1  A    between atoms: C_9  and  S_14
REMARK    2  A    between atoms: C_11  and  O_13
REMARK    3  A    between atoms: S_14  and  C_15
REMARK                            x       y       z     vdW  Elec       q    Type
REMARK                         _______ _______ _______ _____ _____    ______ ____
ROOT
ATOM      1  C   UNL     1      -0.017   1.373   0.010  0.00  0.00    +0.000 A 
ATOM      2  C   UNL     1       1.178   2.071   0.002  0.00  0.00    +0.002 A 
ATOM      3  C   UNL     1       2.366   1.387  -0.008  0.00  0.00    +0.028 A 
ATOM      4  C   UNL     1       2.401  -0.025  -0.013  0.00  0.00    +0.071 A 
ATOM      5  C   UNL     1       1.200  -0.715  -0.015  0.00  0.00    -0.022 A 
ATOM      6  C   UNL     1       0.002  -0.004   0.002  0.00  0.00    +0.006 A 
ATOM      7  C   UNL     1       1.070  -2.205  -0.048  0.00  0.00    +0.039 C 
ATOM      8  C   UNL     1       2.129  -2.960   0.696  0.00  0.00    +0.029 C 
ATOM      9  C   UNL     1       3.450  -3.006  -0.033  0.00  0.00    +0.140 C 
ATOM     10  C   UNL     1       4.161  -1.702   0.015  0.00  0.00    +0.201 C 
ATOM     11  N   UNL     1       3.636  -0.563  -0.009  0.00  0.00    -0.216 NA
ENDROOT
BRANCH  10  12
ATOM     12  O   UNL     1       5.507  -1.747   0.093  0.00  0.00    -0.495 OA
ATOM     13  H   UNL     1       5.929  -0.878   0.122  0.00  0.00    +0.293 HD
ENDBRANCH  10  12
BRANCH   9  14
ATOM     14  S   UNL     1       4.498  -4.275   0.728  0.00  0.00    -0.073 S 
BRANCH  14  15
ATOM     15  C   UNL     1       5.927  -4.321  -0.302  0.00  0.00    +0.197 A 
ATOM     16  N   UNL     1       6.144  -3.581  -1.365  0.00  0.00    -0.122 NA
ATOM     17  N   UNL     1       7.287  -3.868  -1.883  0.00  0.00    -0.129 NA
ATOM     18  C   UNL     1       7.871  -4.816  -1.175  0.00  0.00    +0.162 A 
ATOM     19  N   UNL     1       7.015  -5.127  -0.139  0.00  0.00    -0.278 N 
ATOM     20  C   UNL     1       7.355  -6.084   0.776  0.00  0.00    +0.095 A 
ATOM     21  C   UNL     1       8.532  -6.734   0.680  0.00  0.00    +0.018 A 
ATOM     22  C   UNL     1       9.428  -6.437  -0.365  0.00  0.00    +0.005 A 
ATOM     23  C   UNL     1       9.102  -5.494  -1.288  0.00  0.00    +0.049 A 
ENDBRANCH  14  15
ENDBRANCH   9  14
TORSDOF 3
