REMARK  Name = ZINC10453109
REMARK  11 active torsions:
REMARK  status: ('A' for Active; 'I' for Inactive)
REMARK    1  A    between atoms: C_1  and  C_2
REMARK    2  A    between atoms: C_2  and  C_4
REMARK    3  A    between atoms: C_2  and  O_22
REMARK    4  A    between atoms: N_6  and  N_7
REMARK    5  A    between atoms: N_7  and  C_8
REMARK    6  A    between atoms: C_8  and  N_10
REMARK    7  A    between atoms: C_11  and  C_13
REMARK    8  A    between atoms: C_16  and  C_19
REMARK    9  A    between atoms: C_19  and  C_20
REMARK   10  A    between atoms: C_19  and  C_21
REMARK   11  A    between atoms: O_22  and  C_23
REMARK                            x       y       z     vdW  Elec       q    Type
REMARK                         _______ _______ _______ _____ _____    ______ ____
ROOT
ATOM      1  N   UNL     1      -3.541  -1.218   0.940  0.00  0.00    -0.245 N 
ATOM      2  H   UNL     1      -3.868  -1.571   0.098  0.00  0.00    +0.172 HD
ENDROOT
BRANCH   1   5
ATOM      3  C   UNL     1      -1.424  -0.753  -0.044  0.00  0.00    +0.270 C 
ATOM      4  O   UNL     1      -1.833  -1.194  -1.098  0.00  0.00    -0.270 OA
ATOM      5  N   UNL     1      -2.231  -0.732   1.035  0.00  0.00    -0.232 N 
ATOM      6  H   UNL     1      -1.904  -0.380   1.878  0.00  0.00    +0.173 HD
BRANCH   3   8
ATOM      7  C   UNL     1      -0.048   1.273   0.344  0.00  0.00    +0.062 C 
ATOM      8  C   UNL     1      -0.015  -0.230   0.058  0.00  0.00    +0.257 C 
BRANCH   8   9
ATOM      9  O   UNL     1       0.671  -0.465  -1.174  0.00  0.00    -0.478 OA
BRANCH   9  10
ATOM     10  C   UNL     1       2.026  -0.553  -1.118  0.00  0.00    +0.140 A 
ATOM     11  C   UNL     1       2.690  -0.303   0.074  0.00  0.00    +0.048 A 
ATOM     12  C   UNL     1       4.068  -0.393   0.128  0.00  0.00    +0.023 A 
ATOM     13  C   UNL     1       4.786  -0.732  -1.005  0.00  0.00    +0.043 A 
ATOM     14  C   UNL     1       4.126  -0.982  -2.195  0.00  0.00    +0.043 A 
ATOM     15  C   UNL     1       2.748  -0.899  -2.253  0.00  0.00    +0.084 A 
ATOM     16 CL   UNL     1       1.919  -1.219  -3.744  0.00  0.00    -0.080 Cl
ATOM     17 CL   UNL     1       6.517  -0.844  -0.933  0.00  0.00    -0.083 Cl
ENDBRANCH   9  10
ENDBRANCH   8   9
ENDBRANCH   3   8
ENDBRANCH   1   5
BRANCH   1  18
ATOM     18  C   UNL     1      -4.348  -1.197   2.020  0.00  0.00    +0.153 C 
ATOM     19  S   UNL     1      -5.949  -1.792   1.904  0.00  0.00    -0.017 S 
BRANCH  18  20
ATOM     20  N   UNL     1      -3.894  -0.708   3.191  0.00  0.00    -0.263 N 
ATOM     21  C   UNL     1      -4.700  -0.687   4.270  0.00  0.00    +0.250 C 
ATOM     22  O   UNL     1      -5.837  -1.109   4.188  0.00  0.00    -0.270 OA
ATOM     23  H   UNL     1      -2.987  -0.371   3.256  0.00  0.00    +0.157 HD
BRANCH  21  24
ATOM     24  C   UNL     1      -4.203  -0.150   5.554  0.00  0.00    +0.037 A 
ATOM     25  C   UNL     1      -2.899   0.341   5.651  0.00  0.00    +0.013 A 
ATOM     26  C   UNL     1      -2.441   0.840   6.852  0.00  0.00    +0.004 A 
ATOM     27  C   UNL     1      -3.270   0.855   7.960  0.00  0.00    -0.045 A 
ATOM     28  C   UNL     1      -4.562   0.370   7.871  0.00  0.00    +0.004 A 
ATOM     29  C   UNL     1      -5.036  -0.127   6.674  0.00  0.00    +0.013 A 
BRANCH  27  30
ATOM     30  C   UNL     1      -2.762   1.403   9.269  0.00  0.00    +0.013 C 
ATOM     31  C   UNL     1      -3.633   2.585   9.700  0.00  0.00    +0.012 C 
ATOM     32  C   UNL     1      -2.823   0.309  10.337  0.00  0.00    +0.012 C 
ENDBRANCH  27  30
ENDBRANCH  21  24
ENDBRANCH  18  20
ENDBRANCH   1  18
TORSDOF 8
