REMARK  Name = ZINC45888802
REMARK  9 active torsions:
REMARK  status: ('A' for Active; 'I' for Inactive)
REMARK    1  A    between atoms: C_4  and  C_7
REMARK    2  A    between atoms: C_7  and  C_8
REMARK    3  A    between atoms: C_8  and  C_10
REMARK    4  A    between atoms: C_8  and  N_28
REMARK    5  A    between atoms: C_16  and  C_19
REMARK    6  A    between atoms: N_21  and  C_22
REMARK    7  A    between atoms: C_29  and  O_31
REMARK    8  A    between atoms: O_31  and  C_32
REMARK    9  A    between atoms: C_32  and  C_33
REMARK                            x       y       z     vdW  Elec       q    Type
REMARK                         _______ _______ _______ _____ _____    ______ ____
ROOT
ATOM      1  C   UNL     1       4.178  -0.947   1.411  0.00  0.00    +0.166 C 
ENDROOT
BRANCH   1   2
ATOM      2  C   UNL     1       5.493  -1.683   1.396  0.00  0.00    +0.236 C 
ATOM      3  O   UNL     1       5.513  -2.892   1.490  0.00  0.00    -0.274 OA
ATOM      4  N   UNL     1       6.647  -0.997   1.278  0.00  0.00    -0.299 N 
ATOM      5  C   UNL     1       6.649   0.472   1.280  0.00  0.00    +0.108 C 
ATOM      6  C   UNL     1       7.386   0.967   0.032  0.00  0.00    +0.020 C 
ATOM      7  C   UNL     1       8.780   0.337  -0.015  0.00  0.00    +0.016 C 
ATOM      8  C   UNL     1       8.651  -1.186  -0.101  0.00  0.00    +0.093 C 
ATOM      9  C   UNL     1       7.929  -1.704   1.151  0.00  0.00    +0.120 C 
BRANCH   8  10
ATOM     10  C   UNL     1      10.024  -1.803  -0.181  0.00  0.00    +0.222 C 
ATOM     11  O   UNL     1      10.388  -2.583   0.673  0.00  0.00    -0.275 OA
ATOM     12  N   UNL     1      10.846  -1.488  -1.201  0.00  0.00    -0.285 N 
ATOM     13  H   UNL     1      10.529  -0.921  -1.922  0.00  0.00    +0.155 HD
BRANCH  12  14
ATOM     14  C   UNL     1      12.156  -1.978  -1.220  0.00  0.00    +0.033 A 
ATOM     15  C   UNL     1      13.185  -1.194  -1.725  0.00  0.00    +0.023 A 
ATOM     16  C   UNL     1      14.478  -1.681  -1.743  0.00  0.00    +0.002 A 
ATOM     17  C   UNL     1      14.748  -2.948  -1.258  0.00  0.00    +0.000 A 
ATOM     18  C   UNL     1      13.725  -3.731  -0.755  0.00  0.00    +0.002 A 
ATOM     19  C   UNL     1      12.432  -3.248  -0.729  0.00  0.00    +0.023 A 
ENDBRANCH  12  14
ENDBRANCH   8  10
ENDBRANCH   1   2
BRANCH   1  20
ATOM     20  N   UNL     1       3.169  -1.764   2.090  0.00  0.00    -0.269 N 
ATOM     21  C   UNL     1       2.105  -1.176   2.671  0.00  0.00    +0.401 C 
ATOM     22  O   UNL     1       1.982   0.033   2.631  0.00  0.00    -0.226 OA
ATOM     23  H   UNL     1       3.267  -2.728   2.122  0.00  0.00    +0.153 HD
BRANCH  21  24
ATOM     24  O   UNL     1       1.178  -1.927   3.295  0.00  0.00    -0.446 OA
BRANCH  24  25
ATOM     25  C   UNL     1       0.076  -1.236   3.889  0.00  0.00    +0.269 C 
BRANCH  25  26
ATOM     26  C   UNL     1      -0.851  -2.233   4.536  0.00  0.00    -0.010 A 
ATOM     27  C   UNL     1      -1.885  -2.790   3.807  0.00  0.00    +0.007 A 
ATOM     28  C   UNL     1      -2.735  -3.704   4.401  0.00  0.00    +0.000 A 
ATOM     29  C   UNL     1      -2.551  -4.061   5.724  0.00  0.00    +0.000 A 
ATOM     30  C   UNL     1      -1.517  -3.504   6.453  0.00  0.00    +0.000 A 
ATOM     31  C   UNL     1      -0.664  -2.594   5.858  0.00  0.00    +0.007 A 
ENDBRANCH  25  26
ENDBRANCH  24  25
ENDBRANCH  21  24
ENDBRANCH   1  20
BRANCH   1  32
ATOM     32  C   UNL     1       3.729  -0.674  -0.026  0.00  0.00    +0.067 C 
BRANCH  32  36
ATOM     33  C   UNL     1       0.187   1.712   0.014  0.00  0.00    +0.000 A 
ATOM     34  C   UNL     1       1.429   2.319  -0.011  0.00  0.00    +0.000 A 
ATOM     35  C   UNL     1       2.575   1.547  -0.024  0.00  0.00    +0.004 A 
ATOM     36  C   UNL     1       2.480   0.168  -0.011  0.00  0.00    -0.045 A 
ATOM     37  C   UNL     1       1.238  -0.439   0.015  0.00  0.00    +0.004 A 
ATOM     38  C   UNL     1       0.091   0.333   0.027  0.00  0.00    +0.000 A 
ENDBRANCH  32  36
ENDBRANCH   1  32
TORSDOF 9
