REMARK  Name = ZINC06822140
REMARK  12 active torsions:
REMARK  status: ('A' for Active; 'I' for Inactive)
REMARK    1  A    between atoms: C_1  and  C_2
REMARK    2  A    between atoms: C_2  and  C_3
REMARK    3  A    between atoms: C_6  and  N_9
REMARK    4  A    between atoms: N_9  and  C_10
REMARK    5  A    between atoms: C_10  and  C_12
REMARK    6  A    between atoms: C_10  and  C_19
REMARK    7  A    between atoms: C_15  and  C_18
REMARK    8  A    between atoms: N_21  and  C_22
REMARK    9  A    between atoms: C_22  and  C_23
REMARK   10  A    between atoms: C_29  and  C_31
REMARK   11  A    between atoms: C_32  and  N_39
REMARK   12  A    between atoms: C_33  and  C_36
REMARK                            x       y       z     vdW  Elec       q    Type
REMARK                         _______ _______ _______ _____ _____    ______ ____
ROOT
ATOM      1  N   UNL     1      -3.105   2.505   0.451  0.00  0.00    -0.251 N 
ATOM      2  C   UNL     1      -3.988   1.768  -0.252  0.00  0.00    +0.262 C 
ATOM      3  O   UNL     1      -3.935   0.552  -0.210  0.00  0.00    -0.269 OA
ENDROOT
BRANCH   1   7
ATOM      4  C   UNL     1       0.028   0.641   2.466  0.00  0.00    -0.048 A 
ATOM      5  C   UNL     1      -1.041  -0.107   2.009  0.00  0.00    +0.005 A 
ATOM      6  C   UNL     1      -2.081   0.507   1.341  0.00  0.00    +0.024 A 
ATOM      7  C   UNL     1      -2.053   1.879   1.128  0.00  0.00    +0.038 A 
ATOM      8  C   UNL     1      -0.976   2.628   1.583  0.00  0.00    +0.024 A 
ATOM      9  C   UNL     1       0.059   2.008   2.255  0.00  0.00    +0.005 A 
BRANCH   4  11
ATOM     10  C   UNL     1       2.228  -0.469   2.188  0.00  0.00    +0.009 C 
ATOM     11  C   UNL     1       1.162  -0.033   3.195  0.00  0.00    +0.032 C 
ENDBRANCH   4  11
ENDBRANCH   1   7
BRANCH   2  12
ATOM     12  C   UNL     1      -5.010   2.428  -1.065  0.00  0.00    +0.116 A 
ATOM     13  C   UNL     1      -6.318   2.025  -1.342  0.00  0.00    +0.076 A 
ATOM     14  C   UNL     1      -6.994   2.931  -2.159  0.00  0.00    +0.155 A 
ATOM     15  N   UNL     1      -6.373   4.013  -2.571  0.00  0.00    -0.203 NA
ATOM     16  S   UNL     1      -4.919   3.961  -1.966  0.00  0.00    +0.019 S 
BRANCH  14  17
ATOM     17  C   UNL     1      -8.392   2.677  -2.555  0.00  0.00    +0.262 C 
ATOM     18  O   UNL     1      -8.960   1.673  -2.170  0.00  0.00    -0.269 OA
ATOM     19  N   UNL     1      -9.039   3.557  -3.345  0.00  0.00    -0.324 N 
ATOM     20  H   UNL     1      -8.585   4.357  -3.652  0.00  0.00    +0.145 HD
ATOM     21  H   UNL     1      -9.958   3.390  -3.606  0.00  0.00    +0.145 HD
ENDBRANCH  14  17
BRANCH  13  22
ATOM     22  N   UNL     1      -6.884   0.855  -0.854  0.00  0.00    -0.355 N 
ATOM     23  H   UNL     1      -7.800   0.629  -1.078  0.00  0.00    +0.142 HD
ATOM     24  H   UNL     1      -6.363   0.263  -0.289  0.00  0.00    +0.142 HD
ENDBRANCH  13  22
ENDBRANCH   2  12
BRANCH   1  25
ATOM     25  C   UNL     1      -3.247   3.962   0.505  0.00  0.00    +0.197 C 
BRANCH  25  26
ATOM     26  C   UNL     1      -2.103   4.607  -0.234  0.00  0.00    -0.018 A 
ATOM     27  C   UNL     1      -1.085   3.825  -0.749  0.00  0.00    +0.006 A 
ATOM     28  C   UNL     1      -0.038   4.416  -1.431  0.00  0.00    +0.004 A 
ATOM     29  C   UNL     1      -0.004   5.789  -1.590  0.00  0.00    -0.050 A 
ATOM     30  C   UNL     1      -1.019   6.571  -1.071  0.00  0.00    +0.004 A 
ATOM     31  C   UNL     1      -2.069   5.979  -0.393  0.00  0.00    +0.006 A 
ATOM     32  C   UNL     1       1.140   6.433  -2.330  0.00  0.00    +0.044 C 
ENDBRANCH  25  26
BRANCH  25  33
ATOM     33  C   UNL     1      -3.235   4.415   1.943  0.00  0.00    +0.239 C 
ATOM     34  O   UNL     1      -3.119   3.600   2.834  0.00  0.00    -0.273 OA
ATOM     35  N   UNL     1      -3.353   5.724   2.238  0.00  0.00    -0.311 N 
ATOM     36  H   UNL     1      -3.446   6.376   1.525  0.00  0.00    +0.149 HD
BRANCH  35  37
ATOM     37  C   UNL     1      -3.341   6.164   3.635  0.00  0.00    +0.135 C 
BRANCH  37  38
ATOM     38  C   UNL     1      -3.490   7.686   3.692  0.00  0.00    +0.135 C 
ATOM     39  C   UNL     1      -3.393   8.182   5.152  0.00  0.00    +0.035 C 
ATOM     40  C   UNL     1      -4.418   9.336   5.225  0.00  0.00    +0.031 C 
ATOM     41  C   UNL     1      -5.013   9.401   3.801  0.00  0.00    +0.160 C 
ATOM     42  O   UNL     1      -4.808   8.079   3.253  0.00  0.00    -0.375 OA
ENDBRANCH  37  38
ENDBRANCH  35  37
ENDBRANCH  25  33
ENDBRANCH   1  25
TORSDOF 10
