REMARK  Name = ZINC14607075
REMARK  4 active torsions:
REMARK  status: ('A' for Active; 'I' for Inactive)
REMARK    1  A    between atoms: C_1  and  C_2
REMARK    2  A    between atoms: C_2  and  C_3
REMARK    3  A    between atoms: C_3  and  C_4
REMARK    4  A    between atoms: C_5  and  C_26
REMARK                            x       y       z     vdW  Elec       q    Type
REMARK                         _______ _______ _______ _____ _____    ______ ____
ROOT
ATOM      1  C   UNL     1      -1.413  -2.041   0.005  0.00  0.00    +0.019 A 
ATOM      2  C   UNL     1      -1.500  -2.726   1.160  0.00  0.00    +0.021 A 
ATOM      3  N   UNL     1      -1.485  -4.084   1.202  0.00  0.00    -0.343 N 
ATOM      4  H   UNL     1      -1.550  -4.529   2.061  0.00  0.00    +0.167 HD
ATOM      5  C   UNL     1      -1.383  -4.837   0.077  0.00  0.00    +0.140 A 
ATOM      6  C   UNL     1      -1.288  -4.207  -1.167  0.00  0.00    +0.130 A 
ATOM      7  C   UNL     1      -1.308  -2.747  -1.223  0.00  0.00    +0.200 A 
ATOM      8  O   UNL     1      -1.233  -2.155  -2.288  0.00  0.00    -0.287 OA
ATOM      9  C   UNL     1      -1.191  -5.263  -2.174  0.00  0.00    +0.286 A 
ATOM     10  O   UNL     1      -1.093  -5.112  -3.378  0.00  0.00    -0.265 OA
ATOM     11  N   UNL     1      -1.231  -6.439  -1.511  0.00  0.00    -0.193 N 
ATOM     12  N   UNL     1      -1.347  -6.184  -0.141  0.00  0.00    -0.273 N 
ATOM     13  H   UNL     1      -1.396  -6.863   0.551  0.00  0.00    +0.189 HD
ATOM     14  C   UNL     1      -1.167  -7.693  -2.093  0.00  0.00    +0.196 A 
ATOM     15  N   UNL     1      -1.052  -8.006  -3.363  0.00  0.00    -0.221 NA
ATOM     16  C   UNL     1      -1.000  -9.286  -3.793  0.00  0.00    +0.081 A 
ATOM     17  C   UNL     1      -0.879  -9.756  -5.121  0.00  0.00    +0.029 A 
ATOM     18  C   UNL     1      -0.842 -11.100  -5.387  0.00  0.00    +0.002 A 
ATOM     19  C   UNL     1      -0.921 -12.042  -4.372  0.00  0.00    +0.001 A 
ATOM     20  C   UNL     1      -1.040 -11.618  -3.061  0.00  0.00    +0.017 A 
ATOM     21  C   UNL     1      -1.078 -10.274  -2.785  0.00  0.00    +0.041 A 
ATOM     22  S   UNL     1      -1.211  -9.297  -1.307  0.00  0.00    -0.048 S 
ATOM     23  C   UNL     1      -1.616  -1.960   2.453  0.00  0.00    +0.064 C 
ENDROOT
BRANCH   1  24
ATOM     24  C   UNL     1      -1.433  -0.534   0.013  0.00  0.00    +0.040 C 
BRANCH  24  26
ATOM     25  C   UNL     1      -0.019   1.526   0.010  0.00  0.00    +0.004 C 
ATOM     26  C   UNL     1       0.002  -0.004   0.002  0.00  0.00    +0.001 C 
ENDBRANCH  24  26
ENDBRANCH   1  24
TORSDOF 2
