REMARK  Name = ZINC00959411
REMARK  8 active torsions:
REMARK  status: ('A' for Active; 'I' for Inactive)
REMARK    1  A    between atoms: C_1  and  C_2
REMARK    2  A    between atoms: C_2  and  O_3
REMARK    3  A    between atoms: O_3  and  C_4
REMARK    4  A    between atoms: C_5  and  O_28
REMARK    5  A    between atoms: C_7  and  C_11
REMARK    6  A    between atoms: C_16  and  C_20
REMARK    7  A    between atoms: C_16  and  C_21
REMARK    8  A    between atoms: O_28  and  C_29
REMARK                            x       y       z     vdW  Elec       q    Type
REMARK                         _______ _______ _______ _____ _____    ______ ____
ROOT
ATOM      1  C   UNL     1      -2.001  -6.097  -0.008  0.00  0.00    +0.176 C 
ATOM      2  C   UNL     1      -3.287  -6.452   0.707  0.00  0.00    +0.041 C 
ATOM      3  C   UNL     1      -3.295  -7.001   1.940  0.00  0.00    +0.020 C 
ATOM      4  C   UNL     1      -4.595  -7.345   2.628  0.00  0.00    +0.058 C 
ATOM      5  C   UNL     1      -5.689  -6.374   2.180  0.00  0.00    -0.023 C 
ATOM      6  C   UNL     1      -5.825  -6.471   0.656  0.00  0.00    +0.086 C 
ATOM      7  C   UNL     1      -4.490  -6.183   0.028  0.00  0.00    +0.164 C 
ATOM      8  O   UNL     1      -4.449  -5.708  -1.089  0.00  0.00    -0.292 OA
ATOM      9  C   UNL     1      -7.016  -6.751   2.841  0.00  0.00    +0.011 C 
ATOM     10  C   UNL     1      -5.303  -4.946   2.573  0.00  0.00    +0.011 C 
ATOM     11  N   UNL     1      -2.132  -7.275   2.618  0.00  0.00    -0.287 N 
ATOM     12  C   UNL     1      -0.945  -7.265   1.904  0.00  0.00    +0.218 A 
ATOM     13  N   UNL     1      -0.870  -6.719   0.668  0.00  0.00    -0.221 N 
ATOM     14  N   UNL     1       0.447  -6.886   0.243  0.00  0.00    -0.156 NA
ATOM     15  C   UNL     1       1.082  -7.498   1.214  0.00  0.00    +0.247 A 
ATOM     16  N   UNL     1       0.236  -7.724   2.216  0.00  0.00    -0.201 NA
ATOM     17  H   UNL     1      -2.141  -7.470   3.568  0.00  0.00    +0.155 HD
ENDROOT
BRANCH   1  21
ATOM     18  C   UNL     1      -1.498  -1.849   0.006  0.00  0.00    +0.176 A 
ATOM     19  C   UNL     1      -1.586  -2.536  -1.201  0.00  0.00    +0.163 A 
ATOM     20  C   UNL     1      -1.749  -3.912  -1.201  0.00  0.00    +0.055 A 
ATOM     21  C   UNL     1      -1.824  -4.600  -0.004  0.00  0.00    -0.014 A 
ATOM     22  C   UNL     1      -1.738  -3.919   1.195  0.00  0.00    +0.025 A 
ATOM     23  C   UNL     1      -1.569  -2.546   1.203  0.00  0.00    +0.063 A 
ATOM     24 BR   UNL     1      -1.442  -1.618   2.846  0.00  0.00    -0.046 Br
BRANCH  19  25
ATOM     25  O   UNL     1      -1.513  -1.858  -2.377  0.00  0.00    -0.491 OA
ATOM     26  C   UNL     1      -1.610  -2.628  -3.577  0.00  0.00    +0.277 C 
ENDBRANCH  19  25
BRANCH  18  27
ATOM     27  O   UNL     1      -1.339  -0.499   0.012  0.00  0.00    -0.487 OA
BRANCH  27  29
ATOM     28  C   UNL     1      -0.019   1.526   0.010  0.00  0.00    +0.048 C 
ATOM     29  C   UNL     1       0.002  -0.004   0.002  0.00  0.00    +0.226 C 
ENDBRANCH  27  29
ENDBRANCH  18  27
ENDBRANCH   1  21
TORSDOF 4
