REMARK  Name = ZINC63807266
REMARK  3 active torsions:
REMARK  status: ('A' for Active; 'I' for Inactive)
REMARK    1  A    between atoms: C_1  and  C_2
REMARK    2  A    between atoms: C_4  and  C_15
REMARK    3  A    between atoms: C_18  and  C_20
REMARK                            x       y       z     vdW  Elec       q    Type
REMARK                         _______ _______ _______ _____ _____    ______ ____
ROOT
ATOM      1  C   UNL     1      -0.018   1.503   0.010  0.00  0.00    +0.067 C 
ATOM      2  C   UNL     1       0.002  -0.004   0.002  0.00  0.00    +0.065 C 
ATOM      3  C   UNL     1      -1.087  -0.780   0.003  0.00  0.00    +0.017 C 
ATOM      4  C   UNL     1      -2.502  -0.337  -0.008  0.00  0.00    +0.144 C 
ATOM      5  S   UNL     1      -3.320  -0.716  -1.572  0.00  0.00    -0.136 S 
ATOM      6  C   UNL     1      -3.425  -2.513  -1.642  0.00  0.00    +0.165 C 
ATOM      7  C   UNL     1      -2.083  -3.150  -1.706  0.00  0.00    +0.225 C 
ATOM      8  O   UNL     1      -2.038  -4.051  -2.517  0.00  0.00    -0.275 OA
ATOM      9  N   UNL     1      -0.966  -2.974  -1.111  0.00  0.00    -0.288 N 
ATOM     10  C   UNL     1      -0.536  -2.183   0.003  0.00  0.00    +0.244 C 
ATOM     11  N   UNL     1       0.922  -1.976  -0.011  0.00  0.00    -0.160 NA
ATOM     12  N   UNL     1       1.124  -0.758  -0.013  0.00  0.00    -0.157 NA
ATOM     13  H   UNL     1      -0.246  -3.494  -1.502  0.00  0.00    +0.151 HD
ENDROOT
BRANCH   4  14
ATOM     14  C   UNL     1      -3.241  -1.030   1.108  0.00  0.00    +0.123 A 
ATOM     15  C   UNL     1      -3.872  -0.419   2.130  0.00  0.00    +0.047 A 
ATOM     16  C   UNL     1      -4.425  -1.433   2.938  0.00  0.00    +0.050 A 
ATOM     17  C   UNL     1      -4.097  -2.618   2.359  0.00  0.00    +0.135 A 
ATOM     18  O   UNL     1      -3.383  -2.358   1.247  0.00  0.00    -0.458 OA
BRANCH  17  19
ATOM     19  C   UNL     1      -4.464  -3.959   2.860  0.00  0.00    +0.017 A 
ATOM     20  C   UNL     1      -5.221  -4.089   4.026  0.00  0.00    +0.011 A 
ATOM     21  C   UNL     1      -5.561  -5.343   4.488  0.00  0.00    +0.001 A 
ATOM     22  C   UNL     1      -5.153  -6.471   3.799  0.00  0.00    +0.000 A 
ATOM     23  C   UNL     1      -4.402  -6.350   2.643  0.00  0.00    +0.001 A 
ATOM     24  C   UNL     1      -4.061  -5.101   2.167  0.00  0.00    +0.011 A 
ENDBRANCH  17  19
ENDBRANCH   4  14
TORSDOF 2
