REMARK  Name = ZINC24272406
REMARK  12 active torsions:
REMARK  status: ('A' for Active; 'I' for Inactive)
REMARK    1  A    between atoms: C_1  and  C_2
REMARK    2  A    between atoms: C_4  and  C_31
REMARK    3  A    between atoms: C_6  and  O_8
REMARK    4  A    between atoms: O_8  and  C_9
REMARK    5  A    between atoms: C_9  and  C_10
REMARK    6  A    between atoms: C_13  and  S_16
REMARK    7  A    between atoms: N_14  and  N_15
REMARK    8  A    between atoms: S_16  and  C_17
REMARK    9  A    between atoms: C_17  and  C_19
REMARK   10  A    between atoms: C_17  and  C_20
REMARK   11  A    between atoms: N_22  and  C_23
REMARK   12  A    between atoms: C_23  and  C_24
REMARK                            x       y       z     vdW  Elec       q    Type
REMARK                         _______ _______ _______ _____ _____    ______ ____
ROOT
ATOM      1  C   UNL     1      -0.091  -2.912   2.854  0.00  0.00    +0.189 A 
ATOM      2  N   UNL     1      -0.752  -2.623   1.769  0.00  0.00    -0.128 NA
ATOM      3  N   UNL     1      -0.768  -1.351   1.588  0.00  0.00    -0.121 NA
ATOM      4  C   UNL     1      -0.106  -0.755   2.553  0.00  0.00    +0.209 A 
ATOM      5  N   UNL     1       0.344  -1.733   3.393  0.00  0.00    -0.225 N 
ENDROOT
BRANCH   5   6
ATOM      6  N   UNL     1       1.077  -1.567   4.533  0.00  0.00    -0.295 N 
ATOM      7  H   UNL     1       1.365  -0.557   4.860  0.00  0.00    +0.163 HD
ATOM      8  H   UNL     1       1.379  -2.444   5.125  0.00  0.00    +0.163 HD
ENDBRANCH   5   6
BRANCH   1   9
ATOM      9  C   UNL     1       0.150  -4.291   3.413  0.00  0.00    +0.306 C 
BRANCH   9  10
ATOM     10  O   UNL     1      -0.911  -4.635   4.306  0.00  0.00    -0.484 OA
BRANCH  10  16
ATOM     11  C   UNL     1       1.435  -8.867   4.941  0.00  0.00    +0.044 C 
ATOM     12  C   UNL     1       0.281  -7.945   5.234  0.00  0.00    -0.047 A 
ATOM     13  C   UNL     1      -0.714  -8.340   6.110  0.00  0.00    +0.007 A 
ATOM     14  C   UNL     1      -1.775  -7.496   6.382  0.00  0.00    -0.047 A 
ATOM     15  C   UNL     1      -1.843  -6.254   5.779  0.00  0.00    +0.049 A 
ATOM     16  C   UNL     1      -0.846  -5.856   4.900  0.00  0.00    +0.122 A 
ATOM     17  C   UNL     1       0.214  -6.707   4.625  0.00  0.00    +0.049 A 
ATOM     18  C   UNL     1      -2.857  -7.929   7.337  0.00  0.00    +0.044 C 
ENDBRANCH  10  16
ENDBRANCH   9  10
ENDBRANCH   1   9
BRANCH   4  19
ATOM     19  S   UNL     1       0.147   0.980   2.733  0.00  0.00    -0.072 S 
BRANCH  19  20
ATOM     20  C   UNL     1      -0.729   1.579   1.267  0.00  0.00    +0.137 C 
ATOM     21  C   UNL     1      -0.013   1.086   0.008  0.00  0.00    +0.029 C 
BRANCH  20  22
ATOM     22  C   UNL     1      -0.749   3.086   1.275  0.00  0.00    +0.226 C 
ATOM     23  O   UNL     1       0.108   3.701   1.873  0.00  0.00    -0.275 OA
ATOM     24  N   UNL     1      -1.721   3.751   0.618  0.00  0.00    -0.310 N 
ATOM     25  H   UNL     1      -2.499   3.193   0.076  0.00  0.00    +0.149 HD
BRANCH  24  26
ATOM     26  C   UNL     1      -1.741   5.215   0.626  0.00  0.00    +0.141 C 
BRANCH  26  27
ATOM     27  C   UNL     1      -2.919   5.706  -0.175  0.00  0.00    -0.012 A 
ATOM     28  C   UNL     1      -2.737   6.147  -1.472  0.00  0.00    +0.006 A 
ATOM     29  C   UNL     1      -3.818   6.594  -2.208  0.00  0.00    +0.000 A 
ATOM     30  C   UNL     1      -5.081   6.608  -1.645  0.00  0.00    +0.001 A 
ATOM     31  C   UNL     1      -5.263   6.172  -0.346  0.00  0.00    +0.020 A 
ATOM     32  C   UNL     1      -4.182   5.720   0.390  0.00  0.00    +0.046 A 
ATOM     33 CL   UNL     1      -4.410   5.173   2.022  0.00  0.00    -0.083 Cl
ENDBRANCH  26  27
ENDBRANCH  24  26
ENDBRANCH  20  22
ENDBRANCH  19  20
ENDBRANCH   4  19
TORSDOF 9
