REMARK  Name = ZINC40002619
REMARK  9 active torsions:
REMARK  status: ('A' for Active; 'I' for Inactive)
REMARK    1  A    between atoms: C_1  and  C_2
REMARK    2  A    between atoms: C_2  and  C_4
REMARK    3  A    between atoms: C_2  and  N_15
REMARK    4  A    between atoms: N_6  and  C_7
REMARK    5  A    between atoms: N_15  and  C_16
REMARK    6  A    between atoms: C_16  and  C_18
REMARK    7  A    between atoms: C_16  and  C_28
REMARK    8  A    between atoms: C_28  and  C_29
REMARK    9  A    between atoms: C_28  and  C_30
REMARK                            x       y       z     vdW  Elec       q    Type
REMARK                         _______ _______ _______ _____ _____    ______ ____
ROOT
ATOM      1  N   UNL     1       0.678  -0.508   1.188  0.00  0.00    +0.391 N 
ATOM      2  H   UNL     1       0.068  -0.027   0.543  0.00  0.00    -0.084 HD
ATOM      3  H   UNL     1       0.388  -0.310   2.134  0.00  0.00    -0.084 HD
ENDROOT
BRANCH   1   5
ATOM      4  C   UNL     1       0.884  -2.239  -0.532  0.00  0.00    -0.004 C 
ATOM      5  C   UNL     1       0.605  -1.955   0.945  0.00  0.00    +0.014 C 
BRANCH   5   6
ATOM      6  C   UNL     1      -0.772  -2.455   1.301  0.00  0.00    +0.203 C 
ATOM      7  O   UNL     1      -1.609  -1.682   1.716  0.00  0.00    -0.277 OA
ATOM      8  N   UNL     1      -1.072  -3.761   1.159  0.00  0.00    -0.285 N 
ATOM      9  H   UNL     1      -0.382  -4.392   0.900  0.00  0.00    +0.155 HD
BRANCH   8  10
ATOM     10  C   UNL     1      -2.380  -4.207   1.384  0.00  0.00    +0.069 A 
ATOM     11  C   UNL     1      -3.441  -3.315   1.317  0.00  0.00    +0.027 A 
ATOM     12  C   UNL     1      -4.731  -3.757   1.540  0.00  0.00    +0.017 A 
ATOM     13  C   UNL     1      -4.967  -5.090   1.829  0.00  0.00    +0.021 A 
ATOM     14  C   UNL     1      -3.913  -5.983   1.897  0.00  0.00    +0.055 A 
ATOM     15  C   UNL     1      -2.620  -5.547   1.669  0.00  0.00    +0.146 A 
ATOM     16  F   UNL     1      -1.591  -6.420   1.729  0.00  0.00    -0.204 F 
ATOM     17 BR   UNL     1      -6.734  -5.690   2.134  0.00  0.00    -0.050 Br
ENDBRANCH   8  10
ENDBRANCH   5   6
ENDBRANCH   1   5
BRANCH   1  18
ATOM     18  C   UNL     1       2.059  -0.048   0.992  0.00  0.00    -0.037 C 
BRANCH  18  19
ATOM     19  C   UNL     1       2.956  -0.702   2.011  0.00  0.00    -0.057 A 
ATOM     20  C   UNL     1       2.516  -0.868   3.311  0.00  0.00    +0.006 A 
ATOM     21  C   UNL     1       3.336  -1.466   4.249  0.00  0.00    +0.049 A 
ATOM     22  C   UNL     1       4.603  -1.902   3.888  0.00  0.00    +0.162 A 
ATOM     23  C   UNL     1       5.043  -1.737   2.580  0.00  0.00    +0.162 A 
ATOM     24  C   UNL     1       4.214  -1.140   1.643  0.00  0.00    +0.051 A 
ATOM     25  O   UNL     1       6.279  -2.165   2.202  0.00  0.00    -0.485 OA
ATOM     26  C   UNL     1       7.219  -2.425   3.251  0.00  0.00    +0.270 C 
ATOM     27  C   UNL     1       6.511  -3.247   4.337  0.00  0.00    +0.270 C 
ATOM     28  O   UNL     1       5.401  -2.486   4.823  0.00  0.00    -0.485 OA
ENDBRANCH  18  19
BRANCH  18  29
ATOM     29  C   UNL     1       2.119   1.472   1.160  0.00  0.00    -0.027 C 
ATOM     30  C   UNL     1       3.541   1.961   0.877  0.00  0.00    +0.006 C 
ATOM     31  C   UNL     1       1.148   2.133   0.180  0.00  0.00    +0.006 C 
ENDBRANCH  18  29
ENDBRANCH   1  18
TORSDOF 6
