REMARK  Name = ZINC64637613
REMARK  4 active torsions:
REMARK  status: ('A' for Active; 'I' for Inactive)
REMARK    1  A    between atoms: C_6  and  N_7
REMARK    2  A    between atoms: C_8  and  C_10
REMARK    3  A    between atoms: C_22  and  N_25
REMARK    4  A    between atoms: C_26  and  C_28
REMARK                            x       y       z     vdW  Elec       q    Type
REMARK                         _______ _______ _______ _____ _____    ______ ____
ROOT
ATOM      1  C   UNL     1      -0.025   1.388  -0.009  0.00  0.00    +0.024 A 
ATOM      2  C   UNL     1       1.176   2.079  -0.024  0.00  0.00    +0.018 A 
ATOM      3  C   UNL     1       2.366   1.387  -0.035  0.00  0.00    +0.032 A 
ATOM      4  C   UNL     1       2.426  -0.010  -0.031  0.00  0.00    +0.044 A 
ATOM      5  C   UNL     1       1.196  -0.689  -0.017  0.00  0.00    +0.047 A 
ATOM      6  C   UNL     1      -0.001   0.000  -0.005  0.00  0.00    +0.035 A 
ATOM      7  N   UNL     1       3.684  -0.612  -0.042  0.00  0.00    -0.316 N 
ATOM      8  C   UNL     1       4.859   0.270  -0.056  0.00  0.00    +0.224 C 
ATOM      9  S   UNL     1       4.061   1.925  -0.054  0.00  0.00    -0.082 S 
ATOM     10  H   UNL     1       3.780  -1.577  -0.039  0.00  0.00    +0.149 HD
ENDROOT
BRANCH   6  11
ATOM     11  N   UNL     1      -1.208  -0.711   0.010  0.00  0.00    -0.283 N 
ATOM     12  C   UNL     1      -2.265  -0.229   0.692  0.00  0.00    +0.244 C 
ATOM     13  O   UNL     1      -2.200   0.859   1.224  0.00  0.00    -0.273 OA
ATOM     14  H   UNL     1      -1.282  -1.550  -0.471  0.00  0.00    +0.155 HD
BRANCH  12  15
ATOM     15  C   UNL     1      -3.530  -1.043   0.794  0.00  0.00    +0.190 C 
ATOM     16  C   UNL     1      -3.258  -2.340   1.523  0.00  0.00    +0.016 C 
ATOM     17  C   UNL     1      -4.041  -2.322   2.625  0.00  0.00    -0.002 A 
ATOM     18  C   UNL     1      -4.235  -3.277   3.723  0.00  0.00    +0.029 A 
ATOM     19  C   UNL     1      -5.109  -2.975   4.710  0.00  0.00    +0.042 A 
ATOM     20  C   UNL     1      -5.834  -1.773   4.710  0.00  0.00    +0.022 A 
ATOM     21  C   UNL     1      -5.710  -0.847   3.736  0.00  0.00    +0.027 A 
ATOM     22  C   UNL     1      -4.818  -1.062   2.648  0.00  0.00    +0.043 A 
ATOM     23  N   UNL     1      -4.527  -0.329   1.600  0.00  0.00    -0.370 N 
ATOM     24 CL   UNL     1      -5.341  -4.102   6.009  0.00  0.00    -0.084 Cl
ATOM     25  H   UNL     1      -4.906   0.540   1.392  0.00  0.00    +0.161 HD
ENDBRANCH  12  15
ENDBRANCH   6  11
BRANCH   8  26
ATOM     26  N   UNL     1       5.654   0.069  -1.269  0.00  0.00    -0.288 N 
ATOM     27  C   UNL     1       6.912   0.549  -1.338  0.00  0.00    +0.218 C 
ATOM     28  O   UNL     1       7.385   1.147  -0.395  0.00  0.00    -0.275 OA
ATOM     29  H   UNL     1       5.276  -0.409  -2.024  0.00  0.00    +0.151 HD
BRANCH  27  30
ATOM     30  C   UNL     1       7.730   0.343  -2.587  0.00  0.00    +0.075 C 
ATOM     31  C   UNL     1       7.891  -1.156  -2.849  0.00  0.00    +0.013 C 
ATOM     32  C   UNL     1       8.722  -1.366  -4.117  0.00  0.00    +0.001 C 
ATOM     33  C   UNL     1      10.101  -0.729  -3.934  0.00  0.00    +0.000 C 
ATOM     34  C   UNL     1       9.940   0.770  -3.672  0.00  0.00    +0.001 C 
ATOM     35  C   UNL     1       9.109   0.980  -2.404  0.00  0.00    +0.013 C 
ENDBRANCH  27  30
ENDBRANCH   8  26
TORSDOF 4
