REMARK  Name = ZINC13467588
REMARK  14 active torsions:
REMARK  status: ('A' for Active; 'I' for Inactive)
REMARK    1  A    between atoms: C_1  and  C_2
REMARK    2  A    between atoms: C_2  and  O_3
REMARK    3  A    between atoms: O_3  and  C_4
REMARK    4  A    between atoms: C_4  and  C_6
REMARK    5  A    between atoms: C_8  and  C_29
REMARK    6  A    between atoms: C_9  and  C_24
REMARK    7  A    between atoms: C_11  and  C_19
REMARK    8  A    between atoms: C_11  and  O_23
REMARK    9  A    between atoms: C_13  and  C_14
REMARK   10  A    between atoms: C_13  and  O_18
REMARK   11  A    between atoms: C_24  and  O_26
REMARK   12  A    between atoms: O_26  and  C_27
REMARK   13  A    between atoms: C_27  and  C_28
REMARK   14  A    between atoms: C_32  and  C_35
REMARK                            x       y       z     vdW  Elec       q    Type
REMARK                         _______ _______ _______ _____ _____    ______ ____
ROOT
ATOM      1  C   UNL     1       2.069  -3.114  -1.581  0.00  0.00    +0.162 C 
ATOM      2  C   UNL     1       2.251  -4.335  -2.486  0.00  0.00    +0.055 C 
ATOM      3  C   UNL     1       2.183  -3.890  -3.950  0.00  0.00    +0.162 C 
ATOM      4  C   UNL     1       0.845  -3.194  -4.204  0.00  0.00    +0.230 C 
ATOM      5  N   UNL     1       0.718  -2.033  -3.315  0.00  0.00    -0.245 NA
ATOM      6  C   UNL     1       0.734  -2.440  -1.904  0.00  0.00    +0.230 C 
ATOM      7  H   UNL     1       1.440  -1.353  -3.502  0.00  0.00    +0.128 HD
ENDROOT
BRANCH   2   8
ATOM      8  C   UNL     1       1.157  -5.334  -2.212  0.00  0.00    -0.042 A 
ATOM      9  C   UNL     1       0.482  -5.923  -3.267  0.00  0.00    +0.005 A 
ATOM     10  C   UNL     1      -0.521  -6.838  -3.023  0.00  0.00    +0.019 A 
ATOM     11  C   UNL     1      -0.855  -7.169  -1.708  0.00  0.00    +0.052 A 
ATOM     12  C   UNL     1      -0.170  -6.571  -0.649  0.00  0.00    +0.019 A 
ATOM     13  C   UNL     1       0.834  -5.662  -0.907  0.00  0.00    +0.005 A 
BRANCH  11  14
ATOM     14  C   UNL     1      -1.896  -8.118  -1.448  0.00  0.00    +0.099 C 
ATOM     15  N   UNL     1      -2.721  -8.870  -1.241  0.00  0.00    -0.191 NA
ENDBRANCH  11  14
ENDBRANCH   2   8
BRANCH   6  16
ATOM     16  C   UNL     1       0.557  -1.207  -1.015  0.00  0.00    +0.433 C 
ATOM     17  F   UNL     1       1.676  -0.377  -1.140  0.00  0.00    -0.166 F 
ATOM     18  F   UNL     1      -0.589  -0.508  -1.410  0.00  0.00    -0.166 F 
ATOM     19  F   UNL     1       0.421  -1.609   0.318  0.00  0.00    -0.166 F 
ENDBRANCH   6  16
BRANCH   4  20
ATOM     20  C   UNL     1       0.780  -2.730  -5.661  0.00  0.00    +0.433 C 
ATOM     21  F   UNL     1       0.739  -3.845  -6.505  0.00  0.00    -0.166 F 
ATOM     22  F   UNL     1      -0.369  -1.957  -5.854  0.00  0.00    -0.166 F 
ATOM     23  F   UNL     1       1.913  -1.964  -5.956  0.00  0.00    -0.166 F 
ENDBRANCH   4  20
BRANCH   1  24
ATOM     24  C   UNL     1       2.075  -3.552  -0.139  0.00  0.00    +0.315 C 
ATOM     25  O   UNL     1       1.055  -3.515   0.509  0.00  0.00    -0.250 OA
BRANCH  24  26
ATOM     26  O   UNL     1       3.214  -3.982   0.427  0.00  0.00    -0.465 OA
BRANCH  26  28
ATOM     27  C   UNL     1       4.531  -4.838   2.264  0.00  0.00    +0.048 C 
ATOM     28  C   UNL     1       3.147  -4.381   1.798  0.00  0.00    +0.229 C 
ENDBRANCH  26  28
ENDBRANCH  24  26
ENDBRANCH   1  24
BRANCH   6  29
ATOM     29  O   UNL     1      -0.335  -3.358  -1.662  0.00  0.00    -0.366 OA
ATOM     30  H   UNL     1      -1.206  -3.022  -1.913  0.00  0.00    +0.212 HD
ENDBRANCH   6  29
BRANCH   4  31
ATOM     31  O   UNL     1      -0.224  -4.109  -3.949  0.00  0.00    -0.366 OA
ATOM     32  H   UNL     1      -1.100  -3.759  -4.161  0.00  0.00    +0.212 HD
ENDBRANCH   4  31
BRANCH   3  33
ATOM     33  C   UNL     1       3.312  -2.934  -4.237  0.00  0.00    +0.315 C 
ATOM     34  O   UNL     1       3.723  -2.204  -3.366  0.00  0.00    -0.250 OA
BRANCH  33  35
ATOM     35  O   UNL     1       3.860  -2.892  -5.462  0.00  0.00    -0.465 OA
BRANCH  35  36
ATOM     36  C   UNL     1       4.926  -1.961  -5.664  0.00  0.00    +0.229 C 
ATOM     37  C   UNL     1       5.419  -2.057  -7.109  0.00  0.00    +0.048 C 
ENDBRANCH  35  36
ENDBRANCH  33  35
ENDBRANCH   3  33
TORSDOF 12
