REMARK  Name = ZINC39607000
REMARK  12 active torsions:
REMARK  status: ('A' for Active; 'I' for Inactive)
REMARK    1  A    between atoms: C_1  and  C_2
REMARK    2  A    between atoms: C_5  and  C_9
REMARK    3  A    between atoms: C_6  and  C_8
REMARK    4  A    between atoms: C_9  and  N_10
REMARK    5  A    between atoms: C_11  and  C_13
REMARK    6  A    between atoms: C_24  and  C_26
REMARK    7  A    between atoms: C_28  and  O_36
REMARK    8  A    between atoms: C_29  and  O_34
REMARK    9  A    between atoms: C_30  and  O_32
REMARK   10  A    between atoms: O_32  and  C_33
REMARK   11  A    between atoms: O_34  and  C_35
REMARK   12  A    between atoms: O_36  and  C_37
REMARK                            x       y       z     vdW  Elec       q    Type
REMARK                         _______ _______ _______ _____ _____    ______ ____
ROOT
ATOM      1  C   UNL     1      -2.445  -6.644   1.015  0.00  0.00    +0.100 C 
ATOM      2  C   UNL     1      -3.203  -6.269   2.308  0.00  0.00    +0.121 C 
ATOM      3  N   UNL     1      -3.995  -7.476   2.641  0.00  0.00    -0.296 N 
ATOM      4  C   UNL     1      -3.092  -8.609   2.325  0.00  0.00    +0.115 C 
ATOM      5  C   UNL     1      -2.373  -8.180   1.030  0.00  0.00    -0.004 C 
ATOM      6  C   UNL     1      -3.092  -8.755  -0.187  0.00  0.00    -0.010 C 
ATOM      7  C   UNL     1      -2.959 -10.280  -0.180  0.00  0.00    -0.082 C 
ATOM      8  N   UNL     1      -1.538 -10.649  -0.206  0.00  0.00    +0.379 N 
ATOM      9  C   UNL     1      -0.874 -10.172   1.013  0.00  0.00    -0.082 C 
ATOM     10  C   UNL     1      -0.920  -8.642   1.056  0.00  0.00    -0.010 C 
ATOM     11  C   UNL     1      -5.253  -7.532   3.122  0.00  0.00    +0.247 C 
ATOM     12  O   UNL     1      -5.915  -6.517   3.210  0.00  0.00    -0.270 OA
ATOM     13  H   UNL     1      -1.454 -11.653  -0.263  0.00  0.00    -0.086 HD
ATOM     14  H   UNL     1      -1.099 -10.231  -1.012  0.00  0.00    -0.086 HD
ENDROOT
BRANCH  11  15
ATOM     15  C   UNL     1      -5.825  -8.826   3.542  0.00  0.00    +0.044 A 
ATOM     16  C   UNL     1      -4.982  -9.893   3.864  0.00  0.00    +0.062 A 
ATOM     17  C   UNL     1      -5.521 -11.104   4.257  0.00  0.00    +0.166 A 
ATOM     18  C   UNL     1      -6.903 -11.261   4.333  0.00  0.00    +0.204 A 
ATOM     19  C   UNL     1      -7.745 -10.199   4.013  0.00  0.00    +0.166 A 
ATOM     20  C   UNL     1      -7.211  -8.984   3.625  0.00  0.00    +0.062 A 
BRANCH  19  21
ATOM     21  O   UNL     1      -9.094 -10.355   4.088  0.00  0.00    -0.491 OA
ATOM     22  C   UNL     1      -9.898  -9.225   3.745  0.00  0.00    +0.277 C 
ENDBRANCH  19  21
BRANCH  18  23
ATOM     23  O   UNL     1      -7.430 -12.452   4.720  0.00  0.00    -0.488 OA
ATOM     24  C   UNL     1      -7.658 -12.637   6.118  0.00  0.00    +0.277 C 
ENDBRANCH  18  23
BRANCH  17  25
ATOM     25  O   UNL     1      -4.701 -12.143   4.570  0.00  0.00    -0.491 OA
ATOM     26  C   UNL     1      -3.295 -11.912   4.470  0.00  0.00    +0.277 C 
ENDBRANCH  17  25
ENDBRANCH  11  15
BRANCH   1  28
ATOM     27  N   UNL     1      -0.456  -5.717  -0.128  0.00  0.00    -0.311 N 
ATOM     28  C   UNL     1      -1.058  -6.054   1.030  0.00  0.00    +0.218 C 
ATOM     29  O   UNL     1      -0.483  -5.883   2.084  0.00  0.00    -0.275 OA
ATOM     30  H   UNL     1      -0.916  -5.854  -0.971  0.00  0.00    +0.149 HD
BRANCH  27  31
ATOM     31  C   UNL     1       0.892  -5.144  -0.114  0.00  0.00    +0.139 C 
BRANCH  31  36
ATOM     32  C   UNL     1       2.575  -4.049  -5.532  0.00  0.00    +0.044 C 
ATOM     33  C   UNL     1       2.136  -4.335  -4.119  0.00  0.00    -0.050 A 
ATOM     34  C   UNL     1       2.578  -5.475  -3.475  0.00  0.00    +0.004 A 
ATOM     35  C   UNL     1       2.176  -5.737  -2.179  0.00  0.00    +0.006 A 
ATOM     36  C   UNL     1       1.331  -4.858  -1.526  0.00  0.00    -0.027 A 
ATOM     37  C   UNL     1       0.890  -3.717  -2.170  0.00  0.00    -0.046 A 
ATOM     38  C   UNL     1       1.296  -3.453  -3.465  0.00  0.00    +0.007 A 
ATOM     39  C   UNL     1      -0.030  -2.759  -1.459  0.00  0.00    +0.044 C 
ENDBRANCH  31  36
ENDBRANCH  27  31
ENDBRANCH   1  28
TORSDOF 7
