REMARK  Name = ZINC49358720
REMARK  1 active torsions:
REMARK  status: ('A' for Active; 'I' for Inactive)
REMARK    1  A    between atoms: C_16  and  C_18
REMARK                            x       y       z     vdW  Elec       q    Type
REMARK                         _______ _______ _______ _____ _____    ______ ____
ROOT
ATOM      1  C   UNL     1      -0.006   1.388   0.002  0.00  0.00    +0.013 A 
ATOM      2  C   UNL     1       1.158   2.077  -0.004  0.00  0.00    +0.046 A 
ATOM      3  S   UNL     1       2.365   0.759  -0.018  0.00  0.00    -0.101 S 
ATOM      4  C   UNL     1       1.231  -0.604  -0.016  0.00  0.00    -0.004 A 
ATOM      5  C   UNL     1       0.009  -0.006  -0.002  0.00  0.00    -0.020 A 
ATOM      6  C   UNL     1      -1.260  -0.856   0.014  0.00  0.00    +0.145 C 
ATOM      7  N   UNL     1      -0.879  -2.239  -0.305  0.00  0.00    -0.281 N 
ATOM      8  C   UNL     1       0.275  -2.838   0.381  0.00  0.00    +0.115 C 
ATOM      9  C   UNL     1       1.537  -2.066  -0.031  0.00  0.00    +0.062 C 
ATOM     10  C   UNL     1      -1.577  -2.947  -1.215  0.00  0.00    +0.308 C 
ATOM     11  O   UNL     1      -1.198  -4.054  -1.544  0.00  0.00    -0.252 OA
ATOM     12  N   UNL     1      -2.694  -2.428  -1.761  0.00  0.00    -0.247 N 
ATOM     13  C   UNL     1      -3.471  -3.197  -2.620  0.00  0.00    +0.189 A 
ATOM     14  N   UNL     1      -3.289  -4.441  -3.017  0.00  0.00    -0.125 NA
ATOM     15  N   UNL     1      -4.089  -5.014  -3.809  0.00  0.00    -0.139 NA
ATOM     16  C   UNL     1      -5.137  -4.349  -4.253  0.00  0.00    +0.169 A 
ATOM     17  S   UNL     1      -4.896  -2.785  -3.422  0.00  0.00    -0.030 S 
ATOM     18  H   UNL     1      -2.957  -1.517  -1.554  0.00  0.00    +0.158 HD
ENDROOT
BRANCH  16  19
ATOM     19  C   UNL     1      -6.231  -4.786  -5.193  0.00  0.00    +0.398 C 
ATOM     20  F   UNL     1      -6.434  -6.164  -5.064  0.00  0.00    -0.202 F 
ATOM     21  F   UNL     1      -7.414  -4.109  -4.877  0.00  0.00    -0.202 F 
ENDBRANCH  16  19
TORSDOF 1
