REMARK  Name = ZINC36569015
REMARK  12 active torsions:
REMARK  status: ('A' for Active; 'I' for Inactive)
REMARK    1  A    between atoms: C_1  and  C_2
REMARK    2  A    between atoms: C_2  and  C_3
REMARK    3  A    between atoms: C_3  and  N_4
REMARK    4  A    between atoms: N_4  and  C_5
REMARK    5  A    between atoms: C_5  and  C_7
REMARK    6  A    between atoms: C_5  and  C_14
REMARK    7  A    between atoms: C_12  and  O_13
REMARK    8  A    between atoms: N_16  and  C_17
REMARK    9  A    between atoms: C_17  and  S_18
REMARK   10  A    between atoms: S_18  and  C_21
REMARK   11  A    between atoms: C_24  and  C_27
REMARK   12  A    between atoms: C_28  and  C_30
REMARK                            x       y       z     vdW  Elec       q    Type
REMARK                         _______ _______ _______ _____ _____    ______ ____
ROOT
ATOM      1  C   UNL     1      -0.388  -2.833  -1.937  0.00  0.00    +0.196 C 
ENDROOT
BRANCH   1   2
ATOM      2  C   UNL     1      -1.783  -2.452  -1.516  0.00  0.00    +0.023 A 
ATOM      3  C   UNL     1      -2.071  -1.142  -1.182  0.00  0.00    +0.009 A 
ATOM      4  C   UNL     1      -3.351  -0.791  -0.795  0.00  0.00    +0.001 A 
ATOM      5  C   UNL     1      -4.347  -1.750  -0.741  0.00  0.00    +0.004 A 
ATOM      6  C   UNL     1      -4.064  -3.060  -1.074  0.00  0.00    +0.046 A 
ATOM      7  C   UNL     1      -2.782  -3.414  -1.468  0.00  0.00    +0.122 A 
BRANCH   7   8
ATOM      8  O   UNL     1      -2.502  -4.701  -1.801  0.00  0.00    -0.506 OA
ATOM      9  H   UNL     1      -2.215  -5.247  -1.056  0.00  0.00    +0.292 HD
ENDBRANCH   7   8
ENDBRANCH   1   2
BRANCH   1  10
ATOM     10  C   UNL     1      -0.257  -2.690  -3.431  0.00  0.00    +0.239 C 
ATOM     11  O   UNL     1       0.622  -1.998  -3.900  0.00  0.00    -0.273 OA
ATOM     12  N   UNL     1      -1.118  -3.331  -4.247  0.00  0.00    -0.294 N 
ATOM     13  H   UNL     1      -1.821  -3.884  -3.873  0.00  0.00    +0.150 HD
BRANCH  12  14
ATOM     14  C   UNL     1      -0.991  -3.192  -5.700  0.00  0.00    +0.278 C 
BRANCH  14  15
ATOM     15  S   UNL     1      -0.015  -4.573  -6.357  0.00  0.00    +0.013 S 
ATOM     16  O   UNL     1       0.064  -4.486  -7.773  0.00  0.00    -0.168 OA
ATOM     17  O   UNL     1       1.157  -4.758  -5.576  0.00  0.00    -0.168 OA
BRANCH  15  18
ATOM     18  C   UNL     1      -0.993  -6.006  -6.048  0.00  0.00    +0.090 A 
ATOM     19  C   UNL     1      -0.850  -6.696  -4.859  0.00  0.00    +0.027 A 
ATOM     20  C   UNL     1      -1.617  -7.820  -4.616  0.00  0.00    +0.005 A 
ATOM     21  C   UNL     1      -2.527  -8.254  -5.562  0.00  0.00    -0.050 A 
ATOM     22  C   UNL     1      -2.671  -7.562  -6.751  0.00  0.00    +0.005 A 
ATOM     23  C   UNL     1      -1.907  -6.436  -6.992  0.00  0.00    +0.027 A 
ATOM     24  C   UNL     1      -3.363  -9.479  -5.298  0.00  0.00    +0.044 C 
ENDBRANCH  15  18
ENDBRANCH  14  15
ENDBRANCH  12  14
ENDBRANCH   1  10
BRANCH   1  25
ATOM     25  N   UNL     1       0.580  -1.954  -1.276  0.00  0.00    -0.282 N 
ATOM     26  C   UNL     1       0.784  -2.055   0.053  0.00  0.00    +0.248 C 
ATOM     27  O   UNL     1       1.656  -1.396   0.585  0.00  0.00    -0.270 OA
BRANCH  26  28
ATOM     28  C   UNL     1      -0.053  -2.966   0.862  0.00  0.00    +0.038 A 
ATOM     29  C   UNL     1      -0.983  -3.801   0.241  0.00  0.00    +0.013 A 
ATOM     30  C   UNL     1      -1.761  -4.649   1.001  0.00  0.00    +0.002 A 
ATOM     31  C   UNL     1      -1.621  -4.674   2.378  0.00  0.00    +0.020 A 
ATOM     32  C   UNL     1      -0.701  -3.848   3.001  0.00  0.00    +0.042 A 
ATOM     33  C   UNL     1       0.087  -2.998   2.250  0.00  0.00    +0.033 A 
ATOM     34 CL   UNL     1      -0.533  -3.886   4.728  0.00  0.00    -0.084 Cl
ENDBRANCH  26  28
BRANCH  25  35
ATOM     35  C   UNL     1       1.325  -0.965  -2.059  0.00  0.00    +0.109 C 
BRANCH  35  37
ATOM     36  C   UNL     1       3.275  -0.628  -3.584  0.00  0.00    +0.005 C 
ATOM     37  C   UNL     1       2.565  -1.625  -2.666  0.00  0.00    +0.016 C 
ENDBRANCH  35  37
ENDBRANCH  25  35
ENDBRANCH   1  25
TORSDOF 10
