REMARK  Name = ZINC12445770
REMARK  4 active torsions:
REMARK  status: ('A' for Active; 'I' for Inactive)
REMARK    1  A    between atoms: C_11  and  C_28
REMARK    2  A    between atoms: C_15  and  C_16
REMARK    3  A    between atoms: C_15  and  N_60
REMARK    4  A    between atoms: C_21  and  C_22
REMARK                            x       y       z     vdW  Elec       q    Type
REMARK                         _______ _______ _______ _____ _____    ______ ____
ROOT
ATOM      1  C   UNL     1       9.993   3.613  -1.480  0.00  0.00    +0.001 A 
ATOM      2  C   UNL     1      10.329   2.903  -2.620  0.00  0.00    +0.002 A 
ATOM      3  C   UNL     1       9.802   1.652  -2.893  0.00  0.00    +0.026 A 
ATOM      4  C   UNL     1       8.907   1.127  -1.963  0.00  0.00    +0.047 A 
ATOM      5  C   UNL     1       8.567   1.859  -0.795  0.00  0.00    +0.003 A 
ATOM      6  C   UNL     1       9.116   3.121  -0.545  0.00  0.00    +0.010 A 
ATOM      7  C   UNL     1       7.633   1.031  -0.066  0.00  0.00    -0.022 A 
ATOM      8  C   UNL     1       7.457  -0.101  -0.784  0.00  0.00    +0.012 A 
ATOM      9  N   UNL     1       8.217  -0.051  -1.921  0.00  0.00    -0.359 N 
ATOM     10  H   UNL     1       8.260  -0.747  -2.595  0.00  0.00    +0.166 HD
ATOM     11  C   UNL     1       6.543  -1.221  -0.345  0.00  0.00    +0.030 C 
ATOM     12  C   UNL     1       6.385  -0.033   1.769  0.00  0.00    -0.072 C 
ATOM     13  C   UNL     1       6.943   1.298   1.248  0.00  0.00    +0.019 C 
ATOM     14  N   UNL     1       5.619  -0.684   0.682  0.00  0.00    +0.392 N 
ATOM     15  H   UNL     1       5.005   0.013   0.245  0.00  0.00    -0.080 HD
ENDROOT
BRANCH  11  16
ATOM     16  C   UNL     1       5.737  -1.707  -1.521  0.00  0.00    +0.033 A 
ATOM     17  C   UNL     1       6.267  -2.666  -2.364  0.00  0.00    +0.022 A 
ATOM     18  C   UNL     1       5.514  -3.111  -3.439  0.00  0.00    +0.003 A 
ATOM     19  C   UNL     1       4.255  -2.563  -3.635  0.00  0.00    +0.020 A 
ATOM     20  C   UNL     1       3.794  -1.604  -2.755  0.00  0.00    +0.111 A 
ATOM     21  N   UNL     1       4.535  -1.208  -1.738  0.00  0.00    -0.261 NA
ENDBRANCH  11  16
BRANCH  14  22
ATOM     22  C   UNL     1       4.790  -1.775   1.233  0.00  0.00    -0.038 C 
BRANCH  22  23
ATOM     23  C   UNL     1       4.059  -1.272   2.452  0.00  0.00    -0.023 A 
ATOM     24  C   UNL     1       4.403  -1.507   3.739  0.00  0.00    +0.107 A 
ATOM     25  N   UNL     1       3.500  -0.886   4.526  0.00  0.00    -0.284 N 
ATOM     26  H   UNL     1       3.493  -0.884   5.526  0.00  0.00    +0.188 HD
ATOM     27  N   UNL     1       2.573  -0.243   3.694  0.00  0.00    -0.178 NA
ATOM     28  C   UNL     1       2.906  -0.480   2.452  0.00  0.00    +0.067 A 
BRANCH  28  29
ATOM     29  C   UNL     1       2.178   0.019   1.231  0.00  0.00    +0.040 C 
ATOM     30  C   UNL     1       0.742  -0.511   1.242  0.00  0.00    +0.010 C 
ATOM     31  C   UNL     1       0.002  -0.004   0.002  0.00  0.00    +0.001 C 
ATOM     32  C   UNL     1      -0.019   1.526   0.010  0.00  0.00    +0.000 C 
ATOM     33  C   UNL     1       1.417   2.055  -0.000  0.00  0.00    +0.001 C 
ATOM     34  C   UNL     1       2.157   1.548   1.239  0.00  0.00    +0.010 C 
ENDBRANCH  28  29
ENDBRANCH  22  23
ENDBRANCH  14  22
TORSDOF 4
