REMARK  Name = ZINC38742218
REMARK  6 active torsions:
REMARK  status: ('A' for Active; 'I' for Inactive)
REMARK    1  A    between atoms: C_1  and  C_2
REMARK    2  A    between atoms: C_4  and  C_8
REMARK    3  A    between atoms: C_16  and  C_18
REMARK    4  A    between atoms: C_19  and  C_20
REMARK    5  A    between atoms: C_25  and  O_26
REMARK    6  A    between atoms: O_26  and  C_27
REMARK                            x       y       z     vdW  Elec       q    Type
REMARK                         _______ _______ _______ _____ _____    ______ ____
ROOT
ATOM      1  C   UNL     1      -0.964  -2.951   1.248  0.00  0.00    +0.206 C 
ATOM      2  N   UNL     1      -2.440  -3.082   1.284  0.00  0.00    -0.231 NA
ATOM      3  N   UNL     1      -2.731  -4.523   1.378  0.00  0.00    -0.224 NA
ATOM      4  C   UNL     1      -1.499  -5.071   1.981  0.00  0.00    +0.240 C 
ATOM      5  N   UNL     1      -0.441  -4.335   1.213  0.00  0.00    -0.206 N 
ATOM      6  N   UNL     1       0.542  -5.154   0.701  0.00  0.00    -0.174 NA
ATOM      7  C   UNL     1       0.406  -6.449   0.605  0.00  0.00    +0.118 C 
ATOM      8  S   UNL     1      -1.184  -6.786   1.423  0.00  0.00    -0.063 S 
ATOM      9  H   UNL     1      -2.828  -2.583   2.070  0.00  0.00    +0.143 HD
ATOM     10  H   UNL     1      -3.530  -4.692   1.970  0.00  0.00    +0.144 HD
ENDROOT
BRANCH   1  14
ATOM     11  C   UNL     1      -0.018   1.503   0.010  0.00  0.00    +0.067 C 
ATOM     12  C   UNL     1       0.002  -0.004   0.002  0.00  0.00    +0.058 C 
ATOM     13  C   UNL     1      -1.086  -0.777   0.003  0.00  0.00    +0.029 C 
ATOM     14  C   UNL     1      -0.531  -2.190  -0.007  0.00  0.00    +0.190 C 
ATOM     15  N   UNL     1       0.926  -1.973  -0.013  0.00  0.00    -0.177 NA
ATOM     16  N   UNL     1       1.125  -0.756  -0.013  0.00  0.00    -0.159 NA
ENDBRANCH   1  14
BRANCH   7  17
ATOM     17  C   UNL     1       1.324  -7.411  -0.010  0.00  0.00    +0.037 C 
ATOM     18  C   UNL     1       2.474  -6.984  -0.567  0.00  0.00    +0.014 C 
BRANCH  18  19
ATOM     19  C   UNL     1       3.396  -7.950  -1.184  0.00  0.00    +0.017 A 
ATOM     20  C   UNL     1       3.081  -9.312  -1.200  0.00  0.00    +0.011 A 
ATOM     21  C   UNL     1       3.949 -10.212  -1.781  0.00  0.00    +0.001 A 
ATOM     22  C   UNL     1       5.133  -9.772  -2.349  0.00  0.00    +0.004 A 
ATOM     23  C   UNL     1       5.457  -8.428  -2.339  0.00  0.00    +0.046 A 
ATOM     24  C   UNL     1       4.595  -7.510  -1.765  0.00  0.00    +0.127 A 
BRANCH  24  25
ATOM     25  O   UNL     1       4.910  -6.189  -1.761  0.00  0.00    -0.495 OA
ATOM     26  C   UNL     1       6.146  -5.814  -2.371  0.00  0.00    +0.277 C 
ENDBRANCH  24  25
ENDBRANCH  18  19
ENDBRANCH   7  17
TORSDOF 4
