REMARK  Name = ZINC39689171
REMARK  6 active torsions:
REMARK  status: ('A' for Active; 'I' for Inactive)
REMARK    1  A    between atoms: C_1  and  C_2
REMARK    2  A    between atoms: C_6  and  C_9
REMARK    3  A    between atoms: C_13  and  C_22
REMARK    4  A    between atoms: N_24  and  C_25
REMARK    5  A    between atoms: C_25  and  C_26
REMARK    6  A    between atoms: N_29  and  C_32
REMARK                            x       y       z     vdW  Elec       q    Type
REMARK                         _______ _______ _______ _____ _____    ______ ____
ROOT
ATOM      1  C   UNL     1       0.037  -2.823   2.435  0.00  0.00    +0.251 C 
ATOM      2  O   UNL     1       1.102  -3.110   2.946  0.00  0.00    -0.270 OA
ATOM      3  N   UNL     1      -1.116  -3.191   3.028  0.00  0.00    -0.296 N 
ATOM      4  C   UNL     1      -2.499  -2.941   2.558  0.00  0.00    +0.121 C 
ATOM      5  C   UNL     1      -3.264  -4.243   2.883  0.00  0.00    +0.100 C 
ATOM      6  C   UNL     1      -2.465  -4.892   4.026  0.00  0.00    -0.004 C 
ATOM      7  C   UNL     1      -1.287  -3.943   4.294  0.00  0.00    +0.115 C 
ATOM      8  C   UNL     1      -3.335  -5.020   5.273  0.00  0.00    -0.010 C 
ATOM      9  C   UNL     1      -2.538  -5.720   6.377  0.00  0.00    -0.082 C 
ATOM     10  N   UNL     1      -2.115  -7.047   5.912  0.00  0.00    +0.379 N 
ATOM     11  C   UNL     1      -1.204  -6.911   4.769  0.00  0.00    -0.082 C 
ATOM     12  C   UNL     1      -1.945  -6.261   3.597  0.00  0.00    -0.010 C 
ATOM     13  H   UNL     1      -1.643  -7.530   6.661  0.00  0.00    -0.086 HD
ATOM     14  H   UNL     1      -2.927  -7.578   5.632  0.00  0.00    -0.086 HD
ENDROOT
BRANCH   1  20
ATOM     15  C   UNL     1      -0.085   1.530  -0.009  0.00  0.00    +0.047 C 
ATOM     16  C   UNL     1      -0.052   0.024  -0.018  0.00  0.00    -0.014 A 
ATOM     17  C   UNL     1      -0.050  -0.659  -1.220  0.00  0.00    +0.007 A 
ATOM     18  C   UNL     1      -0.021  -2.042  -1.239  0.00  0.00    +0.021 A 
ATOM     19  C   UNL     1       0.008  -2.752  -0.055  0.00  0.00    +0.056 A 
ATOM     20  C   UNL     1       0.007  -2.071   1.165  0.00  0.00    +0.091 A 
ATOM     21  C   UNL     1      -0.018  -0.672   1.176  0.00  0.00    +0.140 A 
ATOM     22  F   UNL     1      -0.014  -0.004   2.350  0.00  0.00    -0.204 F 
ATOM     23 CL   UNL     1       0.045  -4.488  -0.082  0.00  0.00    -0.083 Cl
ENDBRANCH   1  20
BRANCH   5  24
ATOM     24  C   UNL     1      -3.292  -5.149   1.680  0.00  0.00    +0.218 C 
ATOM     25  O   UNL     1      -2.423  -5.067   0.838  0.00  0.00    -0.275 OA
ATOM     26  N   UNL     1      -4.283  -6.051   1.538  0.00  0.00    -0.315 N 
ATOM     27  H   UNL     1      -4.979  -6.117   2.212  0.00  0.00    +0.149 HD
BRANCH  26  28
ATOM     28  C   UNL     1      -4.311  -6.933   0.368  0.00  0.00    +0.107 C 
BRANCH  28  29
ATOM     29  C   UNL     1      -5.530  -7.853   0.452  0.00  0.00    +0.003 C 
ATOM     30  C   UNL     1      -5.381  -8.793   1.652  0.00  0.00    -0.014 C 
ATOM     31  C   UNL     1      -6.564  -9.763   1.683  0.00  0.00    -0.078 C 
ATOM     32  N   UNL     1      -6.590 -10.549   0.444  0.00  0.00    +0.382 N 
ATOM     33  C   UNL     1      -6.804  -9.662  -0.705  0.00  0.00    -0.078 C 
ATOM     34  C   UNL     1      -5.631  -8.688  -0.828  0.00  0.00    -0.014 C 
ATOM     35  H   UNL     1      -5.710 -11.032   0.335  0.00  0.00    -0.081 HD
BRANCH  32  36
ATOM     36  C   UNL     1      -7.679 -11.532   0.511  0.00  0.00    -0.069 C 
ATOM     37  C   UNL     1      -7.426 -12.523   1.666  0.00  0.00    -0.015 C 
ATOM     38  C   UNL     1      -7.926 -13.882   1.117  0.00  0.00    -0.002 C 
ATOM     39  C   UNL     1      -7.488 -13.833  -0.368  0.00  0.00    -0.002 C 
ATOM     40  C   UNL     1      -7.719 -12.365  -0.782  0.00  0.00    -0.015 C 
ENDBRANCH  32  36
ENDBRANCH  28  29
ENDBRANCH  26  28
ENDBRANCH   5  24
TORSDOF 5
