REMARK  Name = ZINC04354954
REMARK  9 active torsions:
REMARK  status: ('A' for Active; 'I' for Inactive)
REMARK    1  A    between atoms: C_1  and  C_2
REMARK    2  A    between atoms: C_2  and  C_3
REMARK    3  A    between atoms: C_2  and  C_4
REMARK    4  A    between atoms: C_2  and  C_5
REMARK    5  A    between atoms: C_13  and  C_25
REMARK    6  A    between atoms: C_15  and  C_21
REMARK    7  A    between atoms: C_15  and  C_23
REMARK    8  A    between atoms: C_16  and  N_20
REMARK    9  A    between atoms: C_17  and  C_18
REMARK                            x       y       z     vdW  Elec       q    Type
REMARK                         _______ _______ _______ _____ _____    ______ ____
ROOT
ATOM      1  C   UNL     1      -0.178  -0.801   0.002  0.00  0.00    -0.001 C 
ATOM      2  C   UNL     1      -0.234   0.695  -0.334  0.00  0.00    +0.031 C 
ATOM      3  C   UNL     1       1.174   1.160  -0.600  0.00  0.00    -0.021 C 
ATOM      4  C   UNL     1       2.067   0.352  -1.136  0.00  0.00    -0.029 C 
ATOM      5  C   UNL     1       1.771  -1.052  -1.572  0.00  0.00    +0.031 C 
ATOM      6  C   UNL     1       0.390  -1.544  -1.206  0.00  0.00    +0.013 C 
ATOM      7  C   UNL     1       2.867  -1.968  -1.025  0.00  0.00    +0.066 C 
ATOM      8  C   UNL     1       4.206  -1.562  -1.642  0.00  0.00    +0.188 C 
ATOM      9  C   UNL     1       4.454  -0.090  -1.505  0.00  0.00    +0.054 C 
ATOM     10  C   UNL     1       3.472   0.819  -1.281  0.00  0.00    +0.074 C 
ENDROOT
BRANCH   7  11
ATOM     11  C   UNL     1       2.940  -1.828   0.474  0.00  0.00    -0.039 A 
ATOM     12  C   UNL     1       2.387  -2.801   1.286  0.00  0.00    +0.004 A 
ATOM     13  C   UNL     1       2.453  -2.674   2.661  0.00  0.00    +0.002 A 
ATOM     14  C   UNL     1       3.072  -1.574   3.225  0.00  0.00    +0.020 A 
ATOM     15  C   UNL     1       3.626  -0.601   2.413  0.00  0.00    +0.041 A 
ATOM     16  C   UNL     1       3.564  -0.731   1.036  0.00  0.00    +0.024 A 
ATOM     17 CL   UNL     1       4.404   0.781   3.120  0.00  0.00    -0.084 Cl
ENDBRANCH   7  11
BRANCH   1  19
ATOM     18  C   UNL     1       0.093  -0.375   2.449  0.00  0.00    +0.011 C 
ATOM     19  C   UNL     1       0.726  -1.024   1.216  0.00  0.00    -0.035 C 
ATOM     20  C   UNL     1       0.894  -2.525   1.459  0.00  0.00    +0.011 C 
ATOM     21  C   UNL     1       2.096  -0.393   0.955  0.00  0.00    +0.011 C 
ENDBRANCH   1  19
BRANCH   9  22
ATOM     22  N   UNL     1       5.740   0.362  -1.612  0.00  0.00    -0.358 N 
ATOM     23  H   UNL     1       5.955   1.436  -1.516  0.00  0.00    +0.142 HD
ATOM     24  H   UNL     1       6.559  -0.349  -1.794  0.00  0.00    +0.142 HD
ENDBRANCH   9  22
BRANCH  10  25
ATOM     25  C   UNL     1       3.784   2.213  -1.185  0.00  0.00    +0.101 C 
ATOM     26  N   UNL     1       4.032   3.319  -1.109  0.00  0.00    -0.191 NA
ENDBRANCH  10  25
BRANCH   8  27
ATOM     27  C   UNL     1       5.288  -2.296  -0.968  0.00  0.00    +0.091 C 
ATOM     28  N   UNL     1       6.124  -2.863  -0.447  0.00  0.00    -0.194 NA
ENDBRANCH   8  27
BRANCH   8  29
ATOM     29  C   UNL     1       4.204  -1.917  -3.070  0.00  0.00    +0.091 C 
ATOM     30  N   UNL     1       4.202  -2.192  -4.173  0.00  0.00    -0.194 NA
ENDBRANCH   8  29
TORSDOF 6
