REMARK  Name = ZINC16846087
REMARK  3 active torsions:
REMARK  status: ('A' for Active; 'I' for Inactive)
REMARK    1  A    between atoms: C_5  and  C_7
REMARK    2  A    between atoms: C_7  and  S_8
REMARK    3  A    between atoms: S_8  and  C_9
REMARK                            x       y       z     vdW  Elec       q    Type
REMARK                         _______ _______ _______ _____ _____    ______ ____
ROOT
ATOM      1  C   UNL     1       3.639  -4.601  -1.140  0.00  0.00    +0.199 A 
ATOM      2  N   UNL     1       4.395  -3.555  -1.379  0.00  0.00    -0.122 NA
ATOM      3  N   UNL     1       3.734  -2.469  -1.172  0.00  0.00    -0.128 NA
ATOM      4  C   UNL     1       2.516  -2.760  -0.788  0.00  0.00    +0.174 A 
ATOM      5  N   UNL     1       2.412  -4.135  -0.754  0.00  0.00    -0.241 N 
ATOM      6  C   UNL     1       1.238  -4.733  -0.384  0.00  0.00    +0.202 A 
ATOM      7  N   UNL     1       0.185  -4.023  -0.053  0.00  0.00    -0.208 NA
ATOM      8  C   UNL     1       0.198  -2.691  -0.059  0.00  0.00    +0.116 A 
ATOM      9  C   UNL     1       1.333  -1.956  -0.416  0.00  0.00    +0.056 A 
ATOM     10  C   UNL     1       1.197  -0.494  -0.375  0.00  0.00    -0.024 A 
ATOM     11  C   UNL     1       0.002  -0.004   0.002  0.00  0.00    -0.004 A 
ATOM     12  S   UNL     1      -1.000  -1.438   0.317  0.00  0.00    -0.073 S 
ATOM     13  C   UNL     1      -0.018   1.501   0.010  0.00  0.00    +0.043 C 
ATOM     14  C   UNL     1       1.471   1.909  -0.002  0.00  0.00    +0.010 C 
ATOM     15  C   UNL     1       2.126   0.686  -0.675  0.00  0.00    +0.037 C 
ATOM     16  N   UNL     1       1.161  -6.106  -0.357  0.00  0.00    -0.328 N 
ATOM     17  H   UNL     1       1.933  -6.640  -0.600  0.00  0.00    +0.145 HD
ATOM     18  H   UNL     1       0.333  -6.540  -0.096  0.00  0.00    +0.145 HD
ENDROOT
BRANCH   1  19
ATOM     19  S   UNL     1       4.116  -6.291  -1.287  0.00  0.00    -0.081 S 
BRANCH  19  20
ATOM     20  C   UNL     1       5.844  -6.214  -1.833  0.00  0.00    +0.115 C 
BRANCH  20  25
ATOM     21  C   UNL     1       7.481  -9.534  -1.088  0.00  0.00    +0.000 A 
ATOM     22  C   UNL     1       7.368 -10.178  -2.306  0.00  0.00    +0.003 A 
ATOM     23  C   UNL     1       6.762  -9.541  -3.372  0.00  0.00    +0.038 A 
ATOM     24  C   UNL     1       6.268  -8.256  -3.220  0.00  0.00    +0.127 A 
ATOM     25  C   UNL     1       6.381  -7.612  -2.000  0.00  0.00    -0.002 A 
ATOM     26  C   UNL     1       6.993  -8.249  -0.936  0.00  0.00    +0.007 A 
ATOM     27  F   UNL     1       5.676  -7.632  -4.261  0.00  0.00    -0.205 F 
ENDBRANCH  20  25
ENDBRANCH  19  20
ENDBRANCH   1  19
TORSDOF 3
