REMARK  Name = ZINC21150588
REMARK  3 active torsions:
REMARK  status: ('A' for Active; 'I' for Inactive)
REMARK    1  A    between atoms: C_6  and  N_7
REMARK    2  A    between atoms: C_8  and  C_10
REMARK    3  A    between atoms: C_11  and  N_28
REMARK                            x       y       z     vdW  Elec       q    Type
REMARK                         _______ _______ _______ _____ _____    ______ ____
ROOT
ATOM      1  C   UNL     1      -1.298   3.060  -0.068  0.00  0.00    +0.097 A 
ATOM      2  C   UNL     1      -1.280   1.718  -0.381  0.00  0.00    +0.054 A 
ATOM      3  C   UNL     1      -2.546   1.004  -0.428  0.00  0.00    +0.031 A 
ATOM      4  C   UNL     1      -2.772  -0.371  -0.723  0.00  0.00    -0.030 A 
ATOM      5  C   UNL     1      -4.038  -0.854  -0.711  0.00  0.00    -0.005 A 
ATOM      6  C   UNL     1      -5.111   0.004  -0.418  0.00  0.00    +0.103 A 
ATOM      7  N   UNL     1      -4.902   1.281  -0.148  0.00  0.00    -0.337 N 
ATOM      8  C   UNL     1      -3.687   1.785  -0.145  0.00  0.00    +0.089 A 
ATOM      9  S   UNL     1      -3.031   3.406   0.164  0.00  0.00    -0.064 S 
ATOM     10  N   UNL     1      -6.405  -0.495  -0.411  0.00  0.00    -0.316 N 
ATOM     11  C   UNL     1      -6.568  -1.536   0.636  0.00  0.00    +0.106 C 
ATOM     12  C   UNL     1      -8.102  -1.581   0.854  0.00  0.00    +0.020 C 
ATOM     13  C   UNL     1      -8.513  -0.097   0.725  0.00  0.00    +0.020 C 
ATOM     14  C   UNL     1      -7.380   0.566  -0.081  0.00  0.00    +0.106 C 
ATOM     15  C   UNL     1      -4.358  -2.298  -1.001  0.00  0.00    +0.039 C 
ATOM     16  C   UNL     1      -3.189  -2.973  -1.716  0.00  0.00    +0.005 C 
ATOM     17  C   UNL     1      -1.910  -2.702  -0.916  0.00  0.00    +0.005 C 
ATOM     18  C   UNL     1      -1.570  -1.217  -1.042  0.00  0.00    +0.036 C 
ATOM     19  H   UNL     1      -5.752   1.941   0.079  0.00  0.00    +0.168 HD
ENDROOT
BRANCH   1  21
ATOM     20  N   UNL     1      -0.415   5.243   0.359  0.00  0.00    -0.281 N 
ATOM     21  C   UNL     1      -0.204   3.951   0.040  0.00  0.00    +0.257 C 
ATOM     22  O   UNL     1       0.930   3.549  -0.154  0.00  0.00    -0.269 OA
ATOM     23  H   UNL     1      -1.429   5.589   0.608  0.00  0.00    +0.155 HD
BRANCH  20  29
ATOM     24  C   UNL     1       1.909   5.728   0.801  0.00  0.00    +0.024 A 
ATOM     25  C   UNL     1       2.965   6.618   0.808  0.00  0.00    +0.017 A 
ATOM     26  C   UNL     1       2.771   7.926   0.402  0.00  0.00    +0.018 A 
ATOM     27  C   UNL     1       1.522   8.345  -0.019  0.00  0.00    +0.017 A 
ATOM     28  C   UNL     1       0.463   7.458  -0.035  0.00  0.00    +0.024 A 
ATOM     29  C   UNL     1       0.655   6.144   0.373  0.00  0.00    +0.034 A 
ATOM     30 BR   UNL     1       4.218   9.144   0.421  0.00  0.00    -0.050 Br
ENDBRANCH  20  29
ENDBRANCH   1  21
BRANCH   2  31
ATOM     31  N   UNL     1      -0.084   1.063  -0.639  0.00  0.00    -0.356 N 
ATOM     32  H   UNL     1      -0.086  -0.009  -0.888  0.00  0.00    +0.142 HD
ATOM     33  H   UNL     1       0.866   1.615  -0.596  0.00  0.00    +0.142 HD
ENDBRANCH   2  31
TORSDOF 3
