REMARK  Name = ZINC64156446
REMARK  5 active torsions:
REMARK  status: ('A' for Active; 'I' for Inactive)
REMARK    1  A    between atoms: C_4  and  C_7
REMARK    2  A    between atoms: C_7  and  C_9
REMARK    3  A    between atoms: C_7  and  C_24
REMARK    4  A    between atoms: C_9  and  N_10
REMARK    5  A    between atoms: C_11  and  C_13
REMARK                            x       y       z     vdW  Elec       q    Type
REMARK                         _______ _______ _______ _____ _____    ______ ____
ROOT
ATOM      1  C   UNL     1       3.711  -0.707  -0.038  0.00  0.00    +0.064 C 
ENDROOT
BRANCH   1   2
ATOM      2  C   UNL     1       3.816  -1.579   1.188  0.00  0.00    -0.033 C 
ATOM      3  C   UNL     1       4.756  -1.509   2.157  0.00  0.00    -0.000 A 
ATOM      4  C   UNL     1       5.920  -0.636   2.352  0.00  0.00    +0.010 A 
ATOM      5  C   UNL     1       6.696  -0.812   3.446  0.00  0.00    +0.001 A 
ATOM      6  C   UNL     1       6.417  -1.805   4.396  0.00  0.00    +0.002 A 
ATOM      7  C   UNL     1       5.366  -2.646   4.285  0.00  0.00    +0.026 A 
ATOM      8  C   UNL     1       4.483  -2.550   3.174  0.00  0.00    +0.043 A 
ATOM      9  N   UNL     1       3.415  -3.236   2.846  0.00  0.00    -0.380 N 
ATOM     10  C   UNL     1       2.886  -2.703   1.585  0.00  0.00    +0.145 C 
ATOM     11  H   UNL     1       3.036  -3.970   3.354  0.00  0.00    +0.160 HD
ENDBRANCH   1   2
BRANCH   1  15
ATOM     12  C   UNL     1      -0.017   1.378   0.010  0.00  0.00    +0.000 A 
ATOM     13  C   UNL     1       1.171   2.086   0.002  0.00  0.00    +0.000 A 
ATOM     14  C   UNL     1       2.377   1.411  -0.013  0.00  0.00    +0.004 A 
ATOM     15  C   UNL     1       2.396   0.029  -0.020  0.00  0.00    -0.039 A 
ATOM     16  C   UNL     1       1.208  -0.679  -0.012  0.00  0.00    +0.004 A 
ATOM     17  C   UNL     1       0.002  -0.004   0.002  0.00  0.00    +0.000 A 
ENDBRANCH   1  15
BRANCH   1  18
ATOM     18  C   UNL     1       3.791  -1.579  -1.292  0.00  0.00    +0.117 C 
BRANCH  18  19
ATOM     19  N   UNL     1       3.810  -0.724  -2.481  0.00  0.00    -0.310 N 
ATOM     20  C   UNL     1       3.878  -1.277  -3.708  0.00  0.00    +0.244 C 
ATOM     21  O   UNL     1       3.924  -2.486  -3.829  0.00  0.00    -0.270 OA
ATOM     22  H   UNL     1       3.773   0.241  -2.385  0.00  0.00    +0.149 HD
BRANCH  20  23
ATOM     23  C   UNL     1       3.896  -0.415  -4.906  0.00  0.00    +0.037 A 
ATOM     24  C   UNL     1       3.850   0.975  -4.770  0.00  0.00    +0.015 A 
ATOM     25  C   UNL     1       3.867   1.776  -5.889  0.00  0.00    +0.024 A 
ATOM     26  C   UNL     1       3.932   1.204  -7.156  0.00  0.00    +0.037 A 
ATOM     27  C   UNL     1       3.979  -0.180  -7.295  0.00  0.00    -0.025 A 
ATOM     28  C   UNL     1       3.967  -0.987  -6.179  0.00  0.00    +0.018 A 
ATOM     29  C   UNL     1       4.050  -0.793  -8.669  0.00  0.00    +0.046 C 
ATOM     30  C   UNL     1       3.256   0.066  -9.653  0.00  0.00    +0.101 C 
ATOM     31  C   UNL     1       3.642   1.512  -9.497  0.00  0.00    +0.218 C 
ATOM     32  O   UNL     1       3.677   2.232 -10.473  0.00  0.00    -0.275 OA
ATOM     33  N   UNL     1       3.950   2.016  -8.288  0.00  0.00    -0.285 N 
ATOM     34  H   UNL     1       4.186   2.953  -8.204  0.00  0.00    +0.155 HD
ENDBRANCH  20  23
ENDBRANCH  18  19
ENDBRANCH   1  18
TORSDOF 5
