REMARK  Name = ZINC22380899
REMARK  9 active torsions:
REMARK  status: ('A' for Active; 'I' for Inactive)
REMARK    1  A    between atoms: C_1  and  N_2
REMARK    2  A    between atoms: N_2  and  C_3
REMARK    3  A    between atoms: N_2  and  C_4
REMARK    4  A    between atoms: C_4  and  C_6
REMARK    5  A    between atoms: C_4  and  C_27
REMARK    6  A    between atoms: C_6  and  N_7
REMARK    7  A    between atoms: C_8  and  C_10
REMARK    8  A    between atoms: C_10  and  C_11
REMARK    9  A    between atoms: C_11  and  C_12
REMARK                            x       y       z     vdW  Elec       q    Type
REMARK                         _______ _______ _______ _____ _____    ______ ____
ROOT
ATOM      1  C   UNL     1      -3.227   8.236  -3.697  0.00  0.00    +0.103 C 
ENDROOT
BRANCH   1   3
ATOM      2  N   UNL     1      -3.151  10.402  -4.888  0.00  0.00    -0.316 N 
ATOM      3  C   UNL     1      -3.417   9.082  -4.929  0.00  0.00    +0.213 C 
ATOM      4  O   UNL     1      -3.810   8.574  -5.958  0.00  0.00    -0.276 OA
ATOM      5  H   UNL     1      -2.794  10.863  -3.955  0.00  0.00    +0.149 HD
BRANCH   2   6
ATOM      6  C   UNL     1      -3.336  11.224  -6.087  0.00  0.00    +0.096 C 
BRANCH   6   7
ATOM      7  C   UNL     1      -2.966  12.675  -5.772  0.00  0.00    +0.016 C 
BRANCH   7   8
ATOM      8  C   UNL     1      -3.272  13.542  -6.966  0.00  0.00    +0.093 A 
ATOM      9  C   UNL     1      -2.364  14.097  -7.789  0.00  0.00    +0.043 A 
ATOM     10  C   UNL     1      -3.085  14.821  -8.766  0.00  0.00    +0.041 A 
ATOM     11  C   UNL     1      -4.390  14.672  -8.477  0.00  0.00    +0.195 A 
ATOM     12  O   UNL     1      -4.497  13.897  -7.386  0.00  0.00    -0.469 OA
ENDBRANCH   7   8
BRANCH   7  14
ATOM     13  C   UNL     1      -3.372  14.512  -4.247  0.00  0.00    -0.096 C 
ATOM     14  N   UNL     1      -3.745  13.140  -4.617  0.00  0.00    +0.384 N 
ATOM     15  C   UNL     1      -5.187  13.040  -4.880  0.00  0.00    -0.096 C 
ATOM     16  H   UNL     1      -3.511  12.484  -3.765  0.00  0.00    -0.082 HD
ENDBRANCH   7  14
ENDBRANCH   6   7
ENDBRANCH   2   6
ENDBRANCH   1   3
BRANCH   1  17
ATOM     17  C   UNL     1      -3.596   6.785  -4.011  0.00  0.00    +0.083 C 
BRANCH  17  18
ATOM     18  C   UNL     1      -3.406   5.939  -2.779  0.00  0.00    +0.111 A 
ATOM     19  N   UNL     1      -3.683   4.615  -2.854  0.00  0.00    -0.310 N 
ATOM     20  H   UNL     1      -4.038   4.181  -3.800  0.00  0.00    +0.170 HD
ATOM     21  C   UNL     1      -3.544   3.771  -1.805  0.00  0.00    +0.260 A 
ATOM     22  O   UNL     1      -3.797   2.581  -1.892  0.00  0.00    -0.267 OA
ATOM     23  C   UNL     1      -3.081   4.365  -0.583  0.00  0.00    +0.075 A 
ATOM     24  C   UNL     1      -2.849   3.690   0.681  0.00  0.00    -0.023 A 
ATOM     25  C   UNL     1      -2.409   4.455   1.706  0.00  0.00    -0.004 A 
ATOM     26  S   UNL     1      -2.282   6.096   1.040  0.00  0.00    -0.073 S 
ATOM     27  C   UNL     1      -2.819   5.753  -0.605  0.00  0.00    +0.116 A 
ATOM     28  N   UNL     1      -2.979   6.520  -1.679  0.00  0.00    -0.227 NA
ATOM     29  C   UNL     1      -2.097   4.011   3.102  0.00  0.00    +0.043 C 
ATOM     30  C   UNL     1      -2.705   2.616   3.314  0.00  0.00    +0.005 C 
ATOM     31  C   UNL     1      -2.327   1.732   2.122  0.00  0.00    +0.005 C 
ATOM     32  C   UNL     1      -3.082   2.193   0.875  0.00  0.00    +0.037 C 
ENDBRANCH  17  18
ENDBRANCH   1  17
TORSDOF 7
