REMARK  Name = ZINC01044012
REMARK  12 active torsions:
REMARK  status: ('A' for Active; 'I' for Inactive)
REMARK    1  A    between atoms: C_1  and  C_2
REMARK    2  A    between atoms: C_2  and  C_3
REMARK    3  A    between atoms: C_2  and  C_4
REMARK    4  A    between atoms: C_2  and  N_5
REMARK    5  A    between atoms: N_5  and  S_6
REMARK    6  A    between atoms: S_6  and  C_9
REMARK    7  A    between atoms: C_20  and  S_22
REMARK    8  A    between atoms: S_22  and  N_25
REMARK    9  A    between atoms: N_25  and  C_26
REMARK   10  A    between atoms: C_26  and  C_27
REMARK   11  A    between atoms: C_26  and  C_28
REMARK   12  A    between atoms: C_26  and  C_29
REMARK                            x       y       z     vdW  Elec       q    Type
REMARK                         _______ _______ _______ _____ _____    ______ ____
ROOT
ATOM      1  C   UNL     1      -1.529   0.912  -0.060  0.00  0.00    +0.106 A 
ATOM      2  C   UNL     1      -1.403   1.477  -1.317  0.00  0.00    +0.029 A 
ATOM      3  C   UNL     1      -0.330   1.152  -2.120  0.00  0.00    +0.011 A 
ATOM      4  C   UNL     1       0.635   0.252  -1.665  0.00  0.00    -0.014 A 
ATOM      5  C   UNL     1       0.500  -0.311  -0.399  0.00  0.00    -0.033 A 
ATOM      6  C   UNL     1      -0.577   0.019   0.397  0.00  0.00    +0.033 A 
ATOM      7  C   UNL     1       1.675  -1.233  -0.183  0.00  0.00    +0.071 C 
ATOM      8  C   UNL     1       2.504  -1.152  -1.442  0.00  0.00    -0.033 A 
ATOM      9  C   UNL     1       1.868  -0.266  -2.307  0.00  0.00    -0.014 A 
ATOM     10  C   UNL     1       2.433  -0.007  -3.557  0.00  0.00    +0.011 A 
ATOM     11  C   UNL     1       3.609  -0.626  -3.924  0.00  0.00    +0.029 A 
ATOM     12  C   UNL     1       4.234  -1.505  -3.057  0.00  0.00    +0.106 A 
ATOM     13  C   UNL     1       3.680  -1.768  -1.817  0.00  0.00    +0.033 A 
ENDROOT
BRANCH   1  14
ATOM     14  S   UNL     1      -2.907   1.327   0.957  0.00  0.00    +0.059 S 
ATOM     15  O   UNL     1      -3.853   1.972   0.116  0.00  0.00    -0.153 OA
ATOM     16  O   UNL     1      -3.223   0.162   1.706  0.00  0.00    -0.153 OA
BRANCH  14  17
ATOM     17  N   UNL     1      -2.389   2.463   2.045  0.00  0.00    -0.185 NA
ATOM     18  H   UNL     1      -2.381   2.259   2.993  0.00  0.00    +0.149 HD
BRANCH  17  20
ATOM     19  C   UNL     1      -3.130   4.539   0.986  0.00  0.00    +0.029 C 
ATOM     20  C   UNL     1      -1.941   3.777   1.575  0.00  0.00    +0.032 C 
ATOM     21  C   UNL     1      -1.359   4.567   2.748  0.00  0.00    +0.029 C 
ATOM     22  C   UNL     1      -0.868   3.595   0.499  0.00  0.00    +0.029 C 
ENDBRANCH  17  20
ENDBRANCH  14  17
ENDBRANCH   1  14
BRANCH  12  23
ATOM     23  S   UNL     1       5.736  -2.292  -3.534  0.00  0.00    +0.059 S 
ATOM     24  O   UNL     1       6.513  -1.311  -4.206  0.00  0.00    -0.153 OA
ATOM     25  O   UNL     1       6.212  -2.988  -2.389  0.00  0.00    -0.153 OA
BRANCH  23  26
ATOM     26  N   UNL     1       5.350  -3.444  -4.660  0.00  0.00    -0.185 NA
ATOM     27  H   UNL     1       5.643  -3.340  -5.579  0.00  0.00    +0.149 HD
BRANCH  26  28
ATOM     28  C   UNL     1       4.567  -4.618  -4.268  0.00  0.00    +0.032 C 
ATOM     29  C   UNL     1       3.303  -4.167  -3.534  0.00  0.00    +0.029 C 
ATOM     30  C   UNL     1       4.176  -5.410  -5.518  0.00  0.00    +0.029 C 
ATOM     31  C   UNL     1       5.405  -5.504  -3.344  0.00  0.00    +0.029 C 
ENDBRANCH  26  28
ENDBRANCH  23  26
ENDBRANCH  12  23
TORSDOF 6
