REMARK  Name = ZINC33331708
REMARK  6 active torsions:
REMARK  status: ('A' for Active; 'I' for Inactive)
REMARK    1  A    between atoms: C_1  and  C_2
REMARK    2  A    between atoms: C_2  and  C_28
REMARK    3  A    between atoms: N_14  and  C_15
REMARK    4  A    between atoms: N_18  and  C_21
REMARK    5  A    between atoms: C_21  and  C_22
REMARK    6  A    between atoms: N_30  and  C_31
REMARK                            x       y       z     vdW  Elec       q    Type
REMARK                         _______ _______ _______ _____ _____    ______ ____
ROOT
ATOM      1  C   UNL     1      -1.035   2.169  -0.891  0.00  0.00    +0.043 C 
ATOM      2  C   UNL     1      -0.116   1.618   0.201  0.00  0.00    +0.129 C 
ATOM      3  C   UNL     1      -0.267   0.097   0.253  0.00  0.00    +0.157 C 
ATOM      4  N   UNL     1       0.814  -0.464   1.068  0.00  0.00    -0.333 N 
ATOM      5  C   UNL     1       0.818  -1.619   1.827  0.00  0.00    +0.057 A 
ATOM      6  C   UNL     1      -0.054  -2.664   2.167  0.00  0.00    +0.034 A 
ATOM      7  C   UNL     1       0.361  -3.659   2.978  0.00  0.00    +0.048 A 
ATOM      8  S   UNL     1       2.047  -3.193   3.336  0.00  0.00    -0.095 S 
ATOM      9  C   UNL     1       2.103  -1.697   2.384  0.00  0.00    +0.038 A 
ATOM     10  C   UNL     1       2.856  -0.604   1.971  0.00  0.00    +0.048 A 
ATOM     11  C   UNL     1       2.056   0.154   1.168  0.00  0.00    +0.106 A 
ATOM     12  C   UNL     1       2.321   1.422   0.479  0.00  0.00    +0.264 C 
ATOM     13  O   UNL     1       3.441   1.895   0.412  0.00  0.00    -0.268 OA
ATOM     14  N   UNL     1       1.252   2.038  -0.079  0.00  0.00    -0.278 N 
ENDROOT
BRANCH  14  15
ATOM     15  C   UNL     1       1.477   3.160  -0.993  0.00  0.00    +0.074 C 
ATOM     16  C   UNL     1       2.419   2.724  -2.118  0.00  0.00    +0.004 C 
ATOM     17  C   UNL     1       2.699   3.917  -3.034  0.00  0.00    -0.077 C 
ATOM     18  N   UNL     1       3.307   5.004  -2.255  0.00  0.00    +0.382 N 
ATOM     19  C   UNL     1       2.399   5.471  -1.199  0.00  0.00    -0.077 C 
ATOM     20  C   UNL     1       2.111   4.325  -0.228  0.00  0.00    +0.004 C 
ATOM     21  H   UNL     1       4.209   4.604  -1.769  0.00  0.00    -0.081 HD
BRANCH  18  22
ATOM     22  C   UNL     1       3.715   6.113  -3.127  0.00  0.00    -0.043 C 
BRANCH  22  23
ATOM     23  C   UNL     1       4.825   5.654  -4.037  0.00  0.00    -0.064 A 
ATOM     24  C   UNL     1       6.143   5.790  -3.644  0.00  0.00    +0.002 A 
ATOM     25  C   UNL     1       7.161   5.365  -4.476  0.00  0.00    +0.000 A 
ATOM     26  C   UNL     1       6.861   4.811  -5.707  0.00  0.00    +0.000 A 
ATOM     27  C   UNL     1       5.543   4.679  -6.103  0.00  0.00    +0.000 A 
ATOM     28  C   UNL     1       4.525   5.101  -5.268  0.00  0.00    +0.002 A 
ENDBRANCH  22  23
ENDBRANCH  18  22
ENDBRANCH  14  15
BRANCH   2  29
ATOM     29  C   UNL     1      -0.540   2.194   1.527  0.00  0.00    +0.238 C 
ATOM     30  O   UNL     1      -1.674   2.596   1.679  0.00  0.00    -0.273 OA
ATOM     31  N   UNL     1       0.341   2.263   2.545  0.00  0.00    -0.311 N 
ATOM     32  H   UNL     1       1.370   1.899   2.407  0.00  0.00    +0.149 HD
BRANCH  31  33
ATOM     33  C   UNL     1      -0.071   2.824   3.834  0.00  0.00    +0.073 C 
ATOM     34  C   UNL     1       0.120   4.354   3.830  0.00  0.00    +0.022 C 
ATOM     35  C   UNL     1       0.598   4.680   5.268  0.00  0.00    +0.002 C 
ATOM     36  C   UNL     1       1.526   3.485   5.600  0.00  0.00    +0.002 C 
ATOM     37  C   UNL     1       0.822   2.271   4.959  0.00  0.00    +0.022 C 
ENDBRANCH  31  33
ENDBRANCH   2  29
TORSDOF 5
