REMARK  Name = ZINC06003216
REMARK  12 active torsions:
REMARK  status: ('A' for Active; 'I' for Inactive)
REMARK    1  A    between atoms: C_1  and  C_2
REMARK    2  A    between atoms: C_4  and  C_23
REMARK    3  A    between atoms: C_13  and  N_15
REMARK    4  A    between atoms: N_15  and  N_16
REMARK    5  A    between atoms: N_16  and  C_17
REMARK    6  A    between atoms: C_17  and  N_19
REMARK    7  A    between atoms: C_25  and  O_33
REMARK    8  A    between atoms: C_26  and  O_31
REMARK    9  A    between atoms: C_27  and  O_29
REMARK   10  A    between atoms: O_29  and  C_30
REMARK   11  A    between atoms: O_31  and  C_32
REMARK   12  A    between atoms: O_33  and  C_34
REMARK                            x       y       z     vdW  Elec       q    Type
REMARK                         _______ _______ _______ _____ _____    ______ ____
ROOT
ATOM      1  C   UNL     1      -0.737   7.667   1.327  0.00  0.00    +0.013 C 
ATOM      2  C   UNL     1      -0.913   6.154   1.188  0.00  0.00    +0.055 C 
ATOM      3  C   UNL     1      -0.100   5.647  -0.006  0.00  0.00    +0.061 C 
ATOM      4  C   UNL     1      -0.749   6.097  -1.290  0.00  0.00    +0.006 A 
ATOM      5  C   UNL     1      -0.001   6.075  -2.457  0.00  0.00    +0.057 A 
ATOM      6  C   UNL     1      -0.562   6.476  -3.656  0.00  0.00    +0.167 A 
ATOM      7  C   UNL     1      -1.887   6.906  -3.691  0.00  0.00    +0.170 A 
ATOM      8  C   UNL     1      -2.632   6.929  -2.526  0.00  0.00    +0.095 A 
ATOM      9  C   UNL     1      -2.064   6.526  -1.322  0.00  0.00    +0.130 A 
ATOM     10  O   UNL     1      -2.830   6.568  -0.199  0.00  0.00    -0.472 OA
ATOM     11  C   UNL     1      -2.390   5.825   0.938  0.00  0.00    +0.262 C 
ATOM     12  O   UNL     1      -2.202   7.244  -4.976  0.00  0.00    -0.452 OA
ATOM     13  C   UNL     1      -0.941   7.406  -5.651  0.00  0.00    +0.466 C 
ATOM     14  O   UNL     1      -0.048   6.546  -4.920  0.00  0.00    -0.453 OA
ENDROOT
BRANCH   3  15
ATOM     15  C   UNL     1      -0.044   4.142   0.027  0.00  0.00    -0.032 A 
ATOM     16  C   UNL     1       1.083   3.504   0.511  0.00  0.00    +0.054 A 
ATOM     17  C   UNL     1       1.138   2.119   0.543  0.00  0.00    +0.165 A 
ATOM     18  C   UNL     1       0.059   1.372   0.088  0.00  0.00    +0.204 A 
ATOM     19  C   UNL     1      -1.071   2.017  -0.403  0.00  0.00    +0.165 A 
ATOM     20  C   UNL     1      -1.120   3.402  -0.426  0.00  0.00    +0.054 A 
BRANCH  19  21
ATOM     21  O   UNL     1      -2.128   1.290  -0.854  0.00  0.00    -0.491 OA
ATOM     22  C   UNL     1      -3.255   2.019  -1.344  0.00  0.00    +0.277 C 
ENDBRANCH  19  21
BRANCH  18  23
ATOM     23  O   UNL     1       0.109   0.012   0.118  0.00  0.00    -0.488 OA
ATOM     24  C   UNL     1      -0.365  -0.629   1.304  0.00  0.00    +0.277 C 
ENDBRANCH  18  23
BRANCH  17  25
ATOM     25  O   UNL     1       2.248   1.493   1.018  0.00  0.00    -0.491 OA
ATOM     26  C   UNL     1       3.319   2.324   1.469  0.00  0.00    +0.277 C 
ENDBRANCH  17  25
ENDBRANCH   3  15
BRANCH  11  27
ATOM     27  N   UNL     1      -3.187   6.200   2.114  0.00  0.00    -0.203 NA
ATOM     28  H   UNL     1      -2.600   6.581   2.841  0.00  0.00    +0.148 HD
BRANCH  27  29
ATOM     29  N   UNL     1      -4.177   7.078   1.774  0.00  0.00    -0.259 N 
ATOM     30  H   UNL     1      -4.223   7.431   0.873  0.00  0.00    +0.168 HD
BRANCH  29  31
ATOM     31  C   UNL     1      -5.090   7.451   2.693  0.00  0.00    +0.142 C 
ATOM     32  S   UNL     1      -6.332   8.551   2.267  0.00  0.00    -0.018 S 
BRANCH  31  33
ATOM     33  N   UNL     1      -5.026   6.960   3.946  0.00  0.00    -0.340 N 
ATOM     34  H   UNL     1      -4.322   6.337   4.187  0.00  0.00    +0.144 HD
ATOM     35  H   UNL     1      -5.683   7.229   4.607  0.00  0.00    +0.144 HD
ENDBRANCH  31  33
ENDBRANCH  29  31
ENDBRANCH  27  29
ENDBRANCH  11  27
TORSDOF 8
