REMARK  Name = ZINC20274146
REMARK  9 active torsions:
REMARK  status: ('A' for Active; 'I' for Inactive)
REMARK    1  A    between atoms: C_1  and  O_2
REMARK    2  A    between atoms: O_2  and  C_3
REMARK    3  A    between atoms: C_7  and  C_9
REMARK    4  A    between atoms: N_14  and  C_28
REMARK    5  A    between atoms: C_18  and  C_26
REMARK    6  A    between atoms: C_19  and  N_25
REMARK    7  A    between atoms: C_20  and  C_21
REMARK    8  A    between atoms: C_20  and  C_23
REMARK    9  A    between atoms: C_28  and  C_29
REMARK                            x       y       z     vdW  Elec       q    Type
REMARK                         _______ _______ _______ _____ _____    ______ ____
ROOT
ATOM      1  C   UNL     1       2.525   5.591   0.008  0.00  0.00    +0.068 C 
ATOM      2  C   UNL     1       3.364   6.076  -1.175  0.00  0.00    +0.044 C 
ATOM      3  C   UNL     1       2.923   5.454  -2.479  0.00  0.00    +0.094 C 
ATOM      4  N   UNL     1       2.095   6.366  -3.273  0.00  0.00    -0.294 NA
ATOM      5  C   UNL     1       2.844   7.599  -3.577  0.00  0.00    +0.112 C 
ATOM      6  C   UNL     1       3.138   8.291  -2.267  0.00  0.00    -0.006 C 
ATOM      7  C   UNL     1       3.346   7.578  -1.176  0.00  0.00    -0.026 C 
ATOM      8  C   UNL     1       3.569   8.258   0.124  0.00  0.00    +0.074 C 
ATOM      9  C   UNL     1       3.471   7.540   1.272  0.00  0.00    +0.054 C 
ATOM     10  C   UNL     1       3.172   6.072   1.308  0.00  0.00    +0.188 C 
ENDROOT
BRANCH   1  15
ATOM     11  C   UNL     1       3.553   1.964  -0.242  0.00  0.00    +0.120 A 
ATOM     12  C   UNL     1       2.345   1.320  -0.012  0.00  0.00    +0.045 A 
ATOM     13  C   UNL     1       1.203   2.060   0.223  0.00  0.00    +0.004 A 
ATOM     14  C   UNL     1       1.262   3.442   0.230  0.00  0.00    +0.004 A 
ATOM     15  C   UNL     1       2.464   4.086   0.001  0.00  0.00    -0.037 A 
ATOM     16  C   UNL     1       3.610   3.350  -0.230  0.00  0.00    +0.049 A 
BRANCH  11  18
ATOM     17  C   UNL     1       4.545  -0.185  -0.466  0.00  0.00    +0.277 C 
ATOM     18  O   UNL     1       4.678   1.238  -0.474  0.00  0.00    -0.495 OA
ENDBRANCH  11  18
ENDBRANCH   1  15
BRANCH   9  19
ATOM     19  N   UNL     1       3.655   8.191   2.460  0.00  0.00    -0.358 N 
ATOM     20  H   UNL     1       3.583   7.637   3.407  0.00  0.00    +0.142 HD
ATOM     21  H   UNL     1       3.877   9.268   2.468  0.00  0.00    +0.142 HD
ENDBRANCH   9  19
BRANCH  10  22
ATOM     22  C   UNL     1       2.259   5.795   2.429  0.00  0.00    +0.091 C 
ATOM     23  N   UNL     1       1.554   5.582   3.294  0.00  0.00    -0.194 NA
ENDBRANCH  10  22
BRANCH  10  24
ATOM     24  C   UNL     1       4.428   5.333   1.519  0.00  0.00    +0.091 C 
ATOM     25  N   UNL     1       5.397   4.763   1.682  0.00  0.00    -0.194 NA
ENDBRANCH  10  24
BRANCH   8  26
ATOM     26  C   UNL     1       3.883   9.655   0.168  0.00  0.00    +0.101 C 
ATOM     27  N   UNL     1       4.133  10.762   0.202  0.00  0.00    -0.191 NA
ENDBRANCH   8  26
BRANCH   4  28
ATOM     28  C   UNL     1       1.628   5.716  -4.505  0.00  0.00    +0.120 C 
BRANCH  28  29
ATOM     29  C   UNL     1       0.591   6.585  -5.169  0.00  0.00    -0.033 A 
ATOM     30  C   UNL     1      -0.747   6.424  -4.858  0.00  0.00    +0.005 A 
ATOM     31  C   UNL     1      -1.698   7.225  -5.463  0.00  0.00    +0.000 A 
ATOM     32  C   UNL     1      -1.312   8.178  -6.387  0.00  0.00    +0.000 A 
ATOM     33  C   UNL     1       0.025   8.335  -6.702  0.00  0.00    +0.000 A 
ATOM     34  C   UNL     1       0.976   7.538  -6.093  0.00  0.00    +0.005 A 
ENDBRANCH  28  29
ENDBRANCH   4  28
TORSDOF 8
