REMARK  Name = ZINC39710419
REMARK  12 active torsions:
REMARK  status: ('A' for Active; 'I' for Inactive)
REMARK    1  A    between atoms: C_1  and  C_2
REMARK    2  A    between atoms: C_2  and  C_3
REMARK    3  A    between atoms: C_10  and  C_15
REMARK    4  A    between atoms: C_15  and  C_17
REMARK    5  A    between atoms: C_15  and  N_27
REMARK    6  A    between atoms: N_22  and  C_23
REMARK    7  A    between atoms: C_23  and  C_24
REMARK    8  A    between atoms: C_23  and  C_25
REMARK    9  A    between atoms: C_23  and  C_26
REMARK   10  A    between atoms: N_30  and  C_33
REMARK   11  A    between atoms: C_35  and  C_40
REMARK   12  A    between atoms: C_38  and  C_39
REMARK                            x       y       z     vdW  Elec       q    Type
REMARK                         _______ _______ _______ _____ _____    ______ ____
ROOT
ATOM      1  C   UNL     1       5.678  -0.886  -4.156  0.00  0.00    -0.009 C 
ENDROOT
BRANCH   1   9
ATOM      2  C   UNL     1       1.032   0.083  -0.760  0.00  0.00    -0.047 A 
ATOM      3  C   UNL     1       0.155  -0.360  -1.751  0.00  0.00    +0.005 A 
ATOM      4  C   UNL     1       0.577  -1.017  -2.863  0.00  0.00    +0.024 A 
ATOM      5  C   UNL     1       1.945  -1.280  -3.061  0.00  0.00    +0.040 A 
ATOM      6  N   UNL     1       2.348  -1.925  -4.156  0.00  0.00    -0.285 N 
ATOM      7  C   UNL     1       3.616  -2.204  -4.404  0.00  0.00    +0.223 C 
ATOM      8  O   UNL     1       3.923  -2.796  -5.422  0.00  0.00    -0.275 OA
ATOM      9  C   UNL     1       4.683  -1.785  -3.418  0.00  0.00    +0.088 C 
ATOM     10  C   UNL     1       4.231  -1.051  -2.171  0.00  0.00    -0.006 C 
ATOM     11  C   UNL     1       2.894  -0.823  -2.031  0.00  0.00    -0.007 A 
ATOM     12  C   UNL     1       2.372  -0.117  -0.860  0.00  0.00    +0.013 A 
ATOM     13  H   UNL     1       1.679  -2.202  -4.801  0.00  0.00    +0.155 HD
BRANCH   2  15
ATOM     14  C   UNL     1       0.432   2.307   0.158  0.00  0.00    +0.009 C 
ATOM     15  C   UNL     1       0.482   0.804   0.443  0.00  0.00    +0.032 C 
ENDBRANCH   2  15
ENDBRANCH   1   9
BRANCH   1  16
ATOM     16  N   UNL     1       6.261  -1.625  -5.285  0.00  0.00    +0.387 N 
ATOM     17  C   UNL     1       7.373  -0.851  -5.850  0.00  0.00    -0.059 C 
ATOM     18  C   UNL     1       7.908  -1.564  -7.096  0.00  0.00    +0.086 C 
ATOM     19  N   UNL     1       8.254  -2.946  -6.730  0.00  0.00    -0.333 N 
ATOM     20  C   UNL     1       7.250  -3.745  -6.011  0.00  0.00    +0.086 C 
ATOM     21  C   UNL     1       6.746  -2.929  -4.816  0.00  0.00    -0.059 C 
ATOM     22  H   UNL     1       5.557  -1.764  -5.994  0.00  0.00    -0.081 HD
BRANCH  19  23
ATOM     23  C   UNL     1       9.501  -3.485  -7.057  0.00  0.00    +0.033 A 
ATOM     24  C   UNL     1      10.563  -3.370  -6.170  0.00  0.00    +0.026 A 
ATOM     25  C   UNL     1      11.794  -3.905  -6.496  0.00  0.00    -0.049 A 
ATOM     26  C   UNL     1      11.970  -4.553  -7.705  0.00  0.00    +0.004 A 
ATOM     27  C   UNL     1      10.914  -4.669  -8.591  0.00  0.00    +0.005 A 
ATOM     28  C   UNL     1       9.679  -4.142  -8.268  0.00  0.00    -0.029 A 
ATOM     29  C   UNL     1       8.528  -4.275  -9.231  0.00  0.00    +0.045 C 
ATOM     30  C   UNL     1      12.947  -3.781  -5.534  0.00  0.00    +0.044 C 
ENDBRANCH  19  23
ENDBRANCH   1  16
BRANCH   1  31
ATOM     31  C   UNL     1       4.952   0.355  -4.679  0.00  0.00    +0.205 C 
ATOM     32  N   UNL     1       4.093   0.005  -5.819  0.00  0.00    -0.152 NA
ATOM     33  N   UNL     1       4.474   0.629  -6.812  0.00  0.00    -0.070 NA
ATOM     34  N   UNL     1       5.571   1.449  -6.549  0.00  0.00    -0.179 N 
ATOM     35  N   UNL     1       5.921   1.327  -5.227  0.00  0.00    -0.183 NA
ATOM     36  H   UNL     1       6.015   2.018  -7.197  0.00  0.00    +0.191 HD
BRANCH  35  37
ATOM     37  C   UNL     1       5.823   2.617  -4.532  0.00  0.00    +0.035 C 
ATOM     38  C   UNL     1       6.090   2.413  -3.039  0.00  0.00    +0.029 C 
ATOM     39  C   UNL     1       6.858   3.586  -5.107  0.00  0.00    +0.029 C 
ATOM     40  C   UNL     1       4.420   3.195  -4.726  0.00  0.00    +0.029 C 
ENDBRANCH  35  37
ENDBRANCH   1  31
TORSDOF 6
