REMARK  Name = ZINC40823791
REMARK  6 active torsions:
REMARK  status: ('A' for Active; 'I' for Inactive)
REMARK    1  A    between atoms: C_1  and  C_2
REMARK    2  A    between atoms: C_6  and  C_7
REMARK    3  A    between atoms: N_9  and  N_10
REMARK    4  A    between atoms: N_13  and  C_16
REMARK    5  A    between atoms: N_21  and  N_22
REMARK    6  A    between atoms: N_22  and  C_23
REMARK                            x       y       z     vdW  Elec       q    Type
REMARK                         _______ _______ _______ _____ _____    ______ ____
ROOT
ATOM      1  C   UNL     1      -0.018   1.503   0.010  0.00  0.00    +0.048 C 
ATOM      2  C   UNL     1       0.002  -0.004   0.002  0.00  0.00    +0.009 A 
ATOM      3  C   UNL     1       0.008  -0.838  -1.122  0.00  0.00    +0.042 A 
ATOM      4  C   UNL     1       0.026  -2.137  -0.673  0.00  0.00    +0.115 A 
ATOM      5  O   UNL     1       0.034  -2.112   0.658  0.00  0.00    -0.454 OA
ATOM      6  C   UNL     1       0.024  -0.830   1.091  0.00  0.00    +0.194 A 
ATOM      7  C   UNL     1       0.033  -3.326  -1.600  0.00  0.00    +0.075 C 
ATOM      8  C   UNL     1      -0.492  -2.902  -2.975  0.00  0.00    +0.014 C 
ATOM      9  C   UNL     1       0.279  -1.684  -3.495  0.00  0.00    +0.058 C 
ATOM     10  C   UNL     1       0.001  -0.511  -2.566  0.00  0.00    +0.070 C 
ATOM     11  N   UNL     1      -0.227   0.687  -3.008  0.00  0.00    -0.186 NA
ENDROOT
BRANCH   6  12
ATOM     12  C   UNL     1       0.032  -0.400   2.494  0.00  0.00    +0.293 C 
ATOM     13  O   UNL     1       0.019   0.786   2.766  0.00  0.00    -0.265 OA
ATOM     14  N   UNL     1       0.054  -1.317   3.480  0.00  0.00    -0.242 N 
ATOM     15  H   UNL     1       0.065  -2.263   3.263  0.00  0.00    +0.170 HD
BRANCH  14  16
ATOM     16  N   UNL     1       0.062  -0.916   4.786  0.00  0.00    -0.230 NA
ATOM     17  C   UNL     1       1.304  -1.326   5.456  0.00  0.00    +0.087 C 
ATOM     18  C   UNL     1       1.299  -0.807   6.896  0.00  0.00    -0.062 C 
ATOM     19  N   UNL     1       0.136  -1.352   7.608  0.00  0.00    +0.380 N 
ATOM     20  C   UNL     1      -1.098  -0.914   6.942  0.00  0.00    -0.062 C 
ATOM     21  C   UNL     1      -1.113  -1.434   5.503  0.00  0.00    +0.087 C 
ATOM     22  C   UNL     1       0.141  -0.868   8.995  0.00  0.00    -0.096 C 
ATOM     23  H   UNL     1       0.181  -2.360   7.604  0.00  0.00    -0.082 HD
ENDBRANCH  14  16
ENDBRANCH   6  12
BRANCH  11  24
ATOM     24  N   UNL     1      -0.222   0.939  -4.386  0.00  0.00    -0.238 N 
ATOM     25  H   UNL     1      -0.048   0.217  -5.010  0.00  0.00    +0.174 HD
BRANCH  24  26
ATOM     26  C   UNL     1      -0.467   2.229  -4.861  0.00  0.00    +0.048 A 
ATOM     27  C   UNL     1      -0.710   3.265  -3.967  0.00  0.00    +0.027 A 
ATOM     28  C   UNL     1      -0.952   4.540  -4.440  0.00  0.00    +0.040 A 
ATOM     29  C   UNL     1      -0.952   4.787  -5.803  0.00  0.00    +0.124 A 
ATOM     30  C   UNL     1      -0.710   3.756  -6.695  0.00  0.00    +0.040 A 
ATOM     31  C   UNL     1      -0.462   2.480  -6.228  0.00  0.00    +0.027 A 
ATOM     32  F   UNL     1      -1.188   6.035  -6.262  0.00  0.00    -0.205 F 
ENDBRANCH  24  26
ENDBRANCH  11  24
TORSDOF 4
