REMARK  Name = ZINC16025029
REMARK  8 active torsions:
REMARK  status: ('A' for Active; 'I' for Inactive)
REMARK    1  A    between atoms: C_1  and  C_2
REMARK    2  A    between atoms: C_2  and  C_3
REMARK    3  A    between atoms: C_3  and  C_5
REMARK    4  A    between atoms: C_3  and  N_6
REMARK    5  A    between atoms: C_11  and  C_28
REMARK    6  A    between atoms: C_28  and  C_29
REMARK    7  A    between atoms: C_29  and  C_30
REMARK    8  A    between atoms: C_29  and  C_31
REMARK                            x       y       z     vdW  Elec       q    Type
REMARK                         _______ _______ _______ _____ _____    ______ ____
ROOT
ATOM      1  N   UNL     1      -2.082  -0.162   1.273  0.00  0.00    -0.239 N 
ATOM      2  C   UNL     1      -1.617  -0.547   2.467  0.00  0.00    +0.227 C 
ATOM      3  O   UNL     1      -0.631  -1.230   2.648  0.00  0.00    -0.275 OA
ATOM      4  C   UNL     1      -2.512   0.001   3.556  0.00  0.00    +0.107 C 
ATOM      5  C   UNL     1      -3.264  -1.168   4.227  0.00  0.00    +0.068 C 
ATOM      6  N   UNL     1      -4.676  -0.710   4.318  0.00  0.00    -0.295 NA
ATOM      7  C   UNL     1      -4.903   0.015   3.054  0.00  0.00    +0.136 C 
ATOM      8  C   UNL     1      -3.593   0.790   2.766  0.00  0.00    +0.122 C 
ATOM      9  C   UNL     1      -3.183   0.596   1.324  0.00  0.00    +0.228 C 
ATOM     10  O   UNL     1      -3.764   1.053   0.363  0.00  0.00    -0.275 OA
ATOM     11  C   UNL     1      -6.077   0.947   3.159  0.00  0.00    +0.003 A 
ATOM     12  C   UNL     1      -6.369   2.017   3.975  0.00  0.00    +0.008 A 
ATOM     13  C   UNL     1      -7.566   2.694   3.826  0.00  0.00    +0.000 A 
ATOM     14  C   UNL     1      -8.468   2.294   2.857  0.00  0.00    +0.002 A 
ATOM     15  C   UNL     1      -8.179   1.224   2.036  0.00  0.00    +0.023 A 
ATOM     16  C   UNL     1      -6.976   0.536   2.179  0.00  0.00    +0.039 A 
ATOM     17  N   UNL     1      -6.463  -0.560   1.481  0.00  0.00    -0.283 N 
ATOM     18  C   UNL     1      -5.250  -0.928   1.935  0.00  0.00    +0.243 C 
ATOM     19  O   UNL     1      -4.569  -1.842   1.521  0.00  0.00    -0.273 OA
ATOM     20  H   UNL     1      -5.305  -1.494   4.403  0.00  0.00    +0.123 HD
ATOM     21  H   UNL     1      -6.927  -1.004   0.754  0.00  0.00    +0.155 HD
ENDROOT
BRANCH   1  22
ATOM     22  C   UNL     1      -1.433  -0.534   0.013  0.00  0.00    +0.081 C 
ATOM     23  C   UNL     1      -1.416  -2.058  -0.121  0.00  0.00    +0.028 C 
BRANCH  22  25
ATOM     24  C   UNL     1      -0.019   1.526   0.010  0.00  0.00    +0.006 C 
ATOM     25  C   UNL     1       0.002  -0.004   0.002  0.00  0.00    +0.019 C 
ENDBRANCH  22  25
ENDBRANCH   1  22
BRANCH   5  26
ATOM     26  C   UNL     1      -2.697  -1.434   5.623  0.00  0.00    +0.022 C 
BRANCH  26  27
ATOM     27  C   UNL     1      -3.370  -2.671   6.220  0.00  0.00    -0.016 C 
ATOM     28  C   UNL     1      -3.000  -3.903   5.391  0.00  0.00    +0.007 C 
ATOM     29  C   UNL     1      -2.896  -2.865   7.661  0.00  0.00    +0.007 C 
ENDBRANCH  26  27
ENDBRANCH   5  26
TORSDOF 4
