REMARK  Name = ZINC02797080
REMARK  3 active torsions:
REMARK  status: ('A' for Active; 'I' for Inactive)
REMARK    1  A    between atoms: C_3  and  O_9
REMARK    2  A    between atoms: O_9  and  C_10
REMARK    3  A    between atoms: C_10  and  C_11
REMARK                            x       y       z     vdW  Elec       q    Type
REMARK                         _______ _______ _______ _____ _____    ______ ____
ROOT
ATOM      1  C   UNL     1      -6.325  -0.108  -2.809  0.00  0.00    +0.189 A 
ATOM      2  N   UNL     1      -5.135   0.188  -2.297  0.00  0.00    -0.207 NA
ATOM      3  C   UNL     1      -5.255   0.409  -1.002  0.00  0.00    +0.168 A 
ATOM      4  C   UNL     1      -4.296   0.768   0.060  0.00  0.00    +0.055 A 
ATOM      5  C   UNL     1      -2.856   0.991  -0.039  0.00  0.00    -0.024 A 
ATOM      6  C   UNL     1      -2.205   1.310   1.101  0.00  0.00    -0.004 A 
ATOM      7  S   UNL     1      -3.459   1.333   2.353  0.00  0.00    -0.073 S 
ATOM      8  C   UNL     1      -4.854   0.912   1.341  0.00  0.00    +0.114 A 
ATOM      9  N   UNL     1      -6.151   0.736   1.567  0.00  0.00    -0.228 NA
ATOM     10  C   UNL     1      -6.984   0.419   0.616  0.00  0.00    +0.226 A 
ATOM     11  N   UNL     1      -6.569   0.249  -0.668  0.00  0.00    -0.201 N 
ATOM     12  N   UNL     1      -7.230  -0.084  -1.859  0.00  0.00    -0.145 NA
ATOM     13  C   UNL     1      -0.738   1.584   1.266  0.00  0.00    +0.043 C 
ATOM     14  C   UNL     1      -0.013   1.086   0.008  0.00  0.00    +0.005 C 
ATOM     15  C   UNL     1      -0.760   1.596  -1.228  0.00  0.00    +0.005 C 
ATOM     16  C   UNL     1      -2.101   0.874  -1.360  0.00  0.00    +0.037 C 
ENDROOT
BRANCH   1  17
ATOM     17  C   UNL     1      -6.594  -0.424  -4.257  0.00  0.00    +0.307 C 
BRANCH  17  18
ATOM     18  O   UNL     1      -6.458  -1.831  -4.471  0.00  0.00    -0.481 OA
BRANCH  18  21
ATOM     19  C   UNL     1      -7.215  -1.863  -8.031  0.00  0.00    +0.042 A 
ATOM     20  C   UNL     1      -7.000  -1.398  -6.746  0.00  0.00    +0.051 A 
ATOM     21  C   UNL     1      -6.670  -2.286  -5.735  0.00  0.00    +0.156 A 
ATOM     22  C   UNL     1      -6.549  -3.642  -6.015  0.00  0.00    +0.168 A 
ATOM     23  C   UNL     1      -6.769  -4.103  -7.300  0.00  0.00    +0.080 A 
ATOM     24  C   UNL     1      -7.099  -3.214  -8.308  0.00  0.00    +0.126 A 
ATOM     25  F   UNL     1      -7.309  -3.665  -9.564  0.00  0.00    -0.205 F 
ATOM     26  F   UNL     1      -6.222  -4.509  -5.032  0.00  0.00    -0.202 F 
ENDBRANCH  18  21
ENDBRANCH  17  18
ENDBRANCH   1  17
TORSDOF 3
