REMARK  Name = ZINC62811459
REMARK  5 active torsions:
REMARK  status: ('A' for Active; 'I' for Inactive)
REMARK    1  A    between atoms: C_2  and  N_23
REMARK    2  A    between atoms: C_3  and  C_7
REMARK    3  A    between atoms: N_9  and  C_10
REMARK    4  A    between atoms: N_9  and  C_17
REMARK    5  A    between atoms: C_10  and  C_11
REMARK                            x       y       z     vdW  Elec       q    Type
REMARK                         _______ _______ _______ _____ _____    ______ ____
ROOT
ATOM      1  C   UNL     1       3.528   0.495   0.032  0.00  0.00    +0.269 C 
ATOM      2  O   UNL     1       2.314   0.567   0.040  0.00  0.00    -0.268 OA
ATOM      3  N   UNL     1       4.131  -0.698  -0.143  0.00  0.00    -0.290 N 
ENDROOT
BRANCH   1   6
ATOM      4  C   UNL     1       4.961   3.819   0.463  0.00  0.00    +0.128 A 
ATOM      5  C   UNL     1       3.857   3.043   0.297  0.00  0.00    +0.075 A 
ATOM      6  C   UNL     1       4.340   1.712   0.214  0.00  0.00    +0.167 A 
ATOM      7  N   UNL     1       5.653   1.768   0.332  0.00  0.00    -0.167 NA
ATOM      8  N   UNL     1       6.035   2.986   0.477  0.00  0.00    -0.282 N 
ATOM      9  H   UNL     1       6.956   3.271   0.583  0.00  0.00    +0.188 HD
BRANCH   5  10
ATOM     10  N   UNL     1       2.522   3.469   0.223  0.00  0.00    -0.355 N 
ATOM     11  H   UNL     1       2.310   4.413   0.292  0.00  0.00    +0.142 HD
ATOM     12  H   UNL     1       1.812   2.820   0.102  0.00  0.00    +0.142 HD
ENDBRANCH   5  10
ENDBRANCH   1   6
BRANCH   3  13
ATOM     13  C   UNL     1       3.327  -1.893  -0.411  0.00  0.00    +0.087 C 
ATOM     14  C   UNL     1       2.587  -2.282   0.868  0.00  0.00    +0.034 C 
ATOM     15  C   UNL     1       1.201  -1.581   0.923  0.00  0.00    +0.071 C 
ATOM     16  S   UNL     1       0.711  -1.727  -0.852  0.00  0.00    -0.159 S 
ATOM     17  C   UNL     1       2.386  -1.600  -1.597  0.00  0.00    +0.091 C 
ENDBRANCH   3  13
BRANCH   3  18
ATOM     18  C   UNL     1       5.590  -0.799  -0.066  0.00  0.00    +0.140 C 
BRANCH  18  19
ATOM     19  C   UNL     1       6.010  -1.027   1.387  0.00  0.00    +0.136 C 
ATOM     20  C   UNL     1       7.553  -1.102   1.496  0.00  0.00    +0.035 C 
ATOM     21  C   UNL     1       7.765  -0.683   2.977  0.00  0.00    +0.031 C 
ATOM     22  C   UNL     1       6.632   0.342   3.192  0.00  0.00    +0.160 C 
ATOM     23  O   UNL     1       5.628   0.096   2.198  0.00  0.00    -0.375 OA
ENDBRANCH  18  19
ENDBRANCH   3  18
TORSDOF 5
