REMARK  Name = ZINC36156199
REMARK  16 active torsions:
REMARK  status: ('A' for Active; 'I' for Inactive)
REMARK    1  A    between atoms: C_1  and  O_2
REMARK    2  A    between atoms: O_2  and  C_3
REMARK    3  A    between atoms: C_3  and  C_4
REMARK    4  A    between atoms: C_4  and  N_5
REMARK    5  A    between atoms: N_5  and  C_6
REMARK    6  A    between atoms: N_5  and  C_17
REMARK    7  A    between atoms: C_6  and  C_7
REMARK    8  A    between atoms: C_10  and  O_15
REMARK    9  A    between atoms: C_11  and  O_13
REMARK   10  A    between atoms: O_13  and  C_14
REMARK   11  A    between atoms: O_15  and  C_16
REMARK   12  A    between atoms: C_17  and  C_18
REMARK   13  A    between atoms: C_21  and  C_23
REMARK   14  A    between atoms: C_23  and  C_24
REMARK   15  A    between atoms: C_23  and  C_31
REMARK   16  A    between atoms: C_23  and  O_38
REMARK                            x       y       z     vdW  Elec       q    Type
REMARK                         _______ _______ _______ _____ _____    ______ ____
ROOT
ATOM      1  C   UNL     1      -1.239  -4.107  -1.091  0.00  0.00    +0.089 A 
ATOM      2  C   UNL     1      -1.967  -4.262  -2.212  0.00  0.00    +0.043 A 
ATOM      3  C   UNL     1      -3.266  -4.646  -1.806  0.00  0.00    +0.048 A 
ATOM      4  C   UNL     1      -3.254  -4.704  -0.462  0.00  0.00    +0.146 A 
ATOM      5  O   UNL     1      -2.022  -4.381  -0.035  0.00  0.00    -0.463 OA
ENDROOT
BRANCH   1   6
ATOM      6  C   UNL     1       0.211  -3.701  -1.032  0.00  0.00    -0.003 C 
BRANCH   6   7
ATOM      7  N   UNL     1       0.307  -2.238  -0.946  0.00  0.00    +0.389 N 
ATOM      8  H   UNL     1      -0.197  -1.822  -1.716  0.00  0.00    -0.081 HD
BRANCH   7   9
ATOM      9  C   UNL     1      -0.277  -1.783   0.323  0.00  0.00    -0.049 C 
BRANCH   9  10
ATOM     10  C   UNL     1      -0.324  -0.254   0.344  0.00  0.00    +0.141 C 
BRANCH  10  12
ATOM     11  C   UNL     1      -1.346   1.631  -0.727  0.00  0.00    +0.193 C 
ATOM     12  O   UNL     1      -1.228   0.209  -0.661  0.00  0.00    -0.385 OA
ENDBRANCH  10  12
ENDBRANCH   9  10
ENDBRANCH   7   9
BRANCH   7  13
ATOM     13  C   UNL     1       1.718  -1.835  -1.009  0.00  0.00    -0.042 C 
BRANCH  13  14
ATOM     14  C   UNL     1       2.278  -2.177  -2.365  0.00  0.00    -0.060 A 
ATOM     15  C   UNL     1       2.962  -3.364  -2.549  0.00  0.00    +0.005 A 
ATOM     16  C   UNL     1       3.478  -3.683  -3.792  0.00  0.00    +0.049 A 
ATOM     17  C   UNL     1       3.310  -2.812  -4.856  0.00  0.00    +0.161 A 
ATOM     18  C   UNL     1       2.620  -1.617  -4.671  0.00  0.00    +0.162 A 
ATOM     19  C   UNL     1       2.102  -1.306  -3.424  0.00  0.00    +0.051 A 
BRANCH  18  20
ATOM     20  O   UNL     1       2.452  -0.759  -5.713  0.00  0.00    -0.491 OA
ATOM     21  C   UNL     1       1.734   0.448  -5.449  0.00  0.00    +0.277 C 
ENDBRANCH  18  20
BRANCH  17  22
ATOM     22  O   UNL     1       3.817  -3.123  -6.079  0.00  0.00    -0.491 OA
ATOM     23  C   UNL     1       4.513  -4.366  -6.195  0.00  0.00    +0.277 C 
ENDBRANCH  17  22
ENDBRANCH  13  14
ENDBRANCH   7  13
ENDBRANCH   6   7
ENDBRANCH   1   6
BRANCH   4  24
ATOM     24  C   UNL     1      -4.422  -5.072   0.415  0.00  0.00    +0.174 C 
BRANCH  24  25
ATOM     25  C   UNL     1      -3.918  -5.725   1.676  0.00  0.00    -0.002 A 
ATOM     26  C   UNL     1      -4.181  -7.061   1.915  0.00  0.00    +0.007 A 
ATOM     27  C   UNL     1      -3.719  -7.662   3.071  0.00  0.00    +0.003 A 
ATOM     28  C   UNL     1      -2.993  -6.927   3.990  0.00  0.00    +0.038 A 
ATOM     29  C   UNL     1      -2.729  -5.590   3.751  0.00  0.00    +0.124 A 
ATOM     30  C   UNL     1      -3.187  -4.990   2.590  0.00  0.00    +0.045 A 
ATOM     31  F   UNL     1      -2.020  -4.870   4.649  0.00  0.00    -0.205 F 
ENDBRANCH  24  25
BRANCH  24  32
ATOM     32  C   UNL     1      -5.196  -3.828   0.769  0.00  0.00    -0.002 A 
ATOM     33  C   UNL     1      -4.524  -2.656   1.063  0.00  0.00    +0.007 A 
ATOM     34  C   UNL     1      -5.232  -1.514   1.388  0.00  0.00    +0.003 A 
ATOM     35  C   UNL     1      -6.614  -1.543   1.420  0.00  0.00    +0.038 A 
ATOM     36  C   UNL     1      -7.288  -2.716   1.126  0.00  0.00    +0.124 A 
ATOM     37  C   UNL     1      -6.577  -3.858   0.795  0.00  0.00    +0.045 A 
ATOM     38  F   UNL     1      -8.638  -2.746   1.157  0.00  0.00    -0.205 F 
ENDBRANCH  24  32
BRANCH  24  39
ATOM     39  O   UNL     1      -5.275  -5.981  -0.284  0.00  0.00    -0.372 OA
ATOM     40  H   UNL     1      -5.637  -5.626  -1.107  0.00  0.00    +0.212 HD
ENDBRANCH  24  39
ENDBRANCH   4  24
TORSDOF 13
