REMARK  Name = ZINC30767170
REMARK  4 active torsions:
REMARK  status: ('A' for Active; 'I' for Inactive)
REMARK    1  A    between atoms: C_1  and  C_2
REMARK    2  A    between atoms: C_7  and  C_8
REMARK    3  A    between atoms: C_21  and  C_25
REMARK    4  A    between atoms: C_21  and  C_26
REMARK                            x       y       z     vdW  Elec       q    Type
REMARK                         _______ _______ _______ _____ _____    ______ ____
ROOT
ATOM      1  C   UNL     1      -0.018   1.503   0.010  0.00  0.00    +0.047 C 
ATOM      2  C   UNL     1       0.002  -0.004   0.002  0.00  0.00    -0.010 A 
ATOM      3  C   UNL     1       0.008  -0.834  -1.125  0.00  0.00    +0.042 A 
ATOM      4  C   UNL     1       0.026  -2.156  -0.678  0.00  0.00    +0.028 A 
ATOM      5  N   UNL     1       0.035  -2.137   0.655  0.00  0.00    -0.354 N 
ATOM      6  H   UNL     1       0.050  -2.921   1.227  0.00  0.00    +0.166 HD
ATOM      7  C   UNL     1       0.024  -0.827   1.094  0.00  0.00    +0.106 A 
ATOM      8  C   UNL     1       0.032  -3.337  -1.615  0.00  0.00    +0.060 C 
ATOM      9  C   UNL     1      -0.488  -2.895  -2.987  0.00  0.00    -0.023 C 
ATOM     10  C   UNL     1       0.287  -1.673  -3.491  0.00  0.00    +0.086 C 
ATOM     11  C   UNL     1       0.002  -0.505  -2.559  0.00  0.00    +0.166 C 
ATOM     12  O   UNL     1      -0.216   0.616  -2.968  0.00  0.00    -0.292 OA
ATOM     13  C   UNL     1      -1.972  -2.540  -2.873  0.00  0.00    +0.011 C 
ATOM     14  C   UNL     1      -0.321  -4.044  -3.983  0.00  0.00    +0.011 C 
ENDROOT
BRANCH   7  15
ATOM     15  C   UNL     1       0.032  -0.392   2.496  0.00  0.00    +0.266 C 
ATOM     16  O   UNL     1       0.019   0.795   2.765  0.00  0.00    -0.268 OA
ATOM     17  N   UNL     1       0.054  -1.307   3.485  0.00  0.00    -0.259 N 
ATOM     18  C   UNL     1       0.062  -0.895   4.812  0.00  0.00    +0.165 A 
ATOM     19  N   UNL     1       0.045   0.331   5.287  0.00  0.00    -0.229 NA
ATOM     20  C   UNL     1       0.055   0.579   6.594  0.00  0.00    +0.054 A 
ATOM     21  C   UNL     1       0.086  -0.525   7.384  0.00  0.00    +0.014 A 
ATOM     22  S   UNL     1       0.089  -1.845   6.203  0.00  0.00    -0.057 S 
ATOM     23  C   UNL     1       0.107  -0.579   8.874  0.00  0.00    +0.044 C 
ATOM     24  C   UNL     1       0.459   0.822   9.400  0.00  0.00    +0.006 C 
ATOM     25  C   UNL     1      -0.405   1.854   8.670  0.00  0.00    +0.006 C 
ATOM     26  C   UNL     1       0.034   1.971   7.209  0.00  0.00    +0.056 C 
ATOM     27  H   UNL     1       0.065  -2.253   3.271  0.00  0.00    +0.157 HD
ENDBRANCH   7  15
TORSDOF 1
