REMARK  Name = ZINC62734741
REMARK  10 active torsions:
REMARK  status: ('A' for Active; 'I' for Inactive)
REMARK    1  A    between atoms: C_1  and  N_2
REMARK    2  A    between atoms: N_2  and  C_3
REMARK    3  A    between atoms: N_2  and  C_14
REMARK    4  A    between atoms: C_3  and  C_4
REMARK    5  A    between atoms: C_14  and  C_15
REMARK    6  A    between atoms: N_17  and  C_18
REMARK    7  A    between atoms: N_17  and  C_19
REMARK    8  A    between atoms: C_20  and  N_35
REMARK    9  A    between atoms: N_21  and  C_28
REMARK   10  A    between atoms: C_28  and  C_29
REMARK                            x       y       z     vdW  Elec       q    Type
REMARK                         _______ _______ _______ _____ _____    ______ ____
ROOT
ATOM      1  C   UNL     1      -0.253  -0.376  -2.855  0.00  0.00    +0.234 C 
ATOM      2  O   UNL     1      -1.271   0.207  -2.541  0.00  0.00    -0.274 OA
ATOM      3  N   UNL     1       0.037  -0.571  -4.158  0.00  0.00    -0.266 N 
ATOM      4  C   UNL     1       1.319  -1.168  -4.541  0.00  0.00    +0.138 C 
ENDROOT
BRANCH   3   5
ATOM      5  C   UNL     1      -0.894  -0.202  -5.152  0.00  0.00    +0.139 A 
ATOM      6  C   UNL     1      -1.215   1.125  -5.354  0.00  0.00    +0.128 A 
ATOM      7  N   UNL     1      -2.126   1.454  -6.331  0.00  0.00    -0.276 N 
ATOM      8  C   UNL     1      -2.698   0.493  -7.080  0.00  0.00    +0.331 A 
ATOM      9  O   UNL     1      -3.501   0.804  -7.939  0.00  0.00    -0.246 OA
ATOM     10  N   UNL     1      -2.397  -0.805  -6.897  0.00  0.00    -0.273 N 
ATOM     11  H   UNL     1      -2.822  -1.478  -7.451  0.00  0.00    +0.173 HD
ATOM     12  C   UNL     1      -1.507  -1.180  -5.958  0.00  0.00    +0.277 A 
ATOM     13  O   UNL     1      -1.238  -2.359  -5.803  0.00  0.00    -0.266 OA
BRANCH   6  14
ATOM     14  N   UNL     1      -0.632   2.106  -4.589  0.00  0.00    -0.343 N 
ATOM     15  H   UNL     1       0.070   1.877  -3.960  0.00  0.00    +0.144 HD
ATOM     16  H   UNL     1      -0.923   3.027  -4.677  0.00  0.00    +0.144 HD
ENDBRANCH   6  14
BRANCH   7  17
ATOM     17  C   UNL     1      -2.477   2.858  -6.556  0.00  0.00    +0.163 C 
BRANCH  17  18
ATOM     18  C   UNL     1      -1.543   3.451  -7.580  0.00  0.00    -0.028 A 
ATOM     19  C   UNL     1      -0.362   4.045  -7.175  0.00  0.00    +0.005 A 
ATOM     20  C   UNL     1       0.494   4.589  -8.114  0.00  0.00    +0.000 A 
ATOM     21  C   UNL     1       0.171   4.538  -9.457  0.00  0.00    +0.000 A 
ATOM     22  C   UNL     1      -1.010   3.943  -9.861  0.00  0.00    +0.000 A 
ATOM     23  C   UNL     1      -1.864   3.395  -8.923  0.00  0.00    +0.005 A 
ENDBRANCH  17  18
ENDBRANCH   7  17
ENDBRANCH   3   5
BRANCH   1  24
ATOM     24  C   UNL     1       0.686  -0.880  -1.790  0.00  0.00    +0.181 C 
BRANCH  24  26
ATOM     25  C   UNL     1       0.132   0.910  -0.256  0.00  0.00    +0.105 C 
ATOM     26  N   UNL     1       0.148  -0.544  -0.465  0.00  0.00    -0.291 NA
BRANCH  26  27
ATOM     27  C   UNL     1       0.906  -1.219   0.597  0.00  0.00    +0.138 C 
BRANCH  27  28
ATOM     28  C   UNL     1       0.747  -2.711   0.457  0.00  0.00    +0.037 A 
ATOM     29  C   UNL     1       1.829  -3.505   0.142  0.00  0.00    +0.093 A 
ATOM     30  C   UNL     1       1.663  -4.885   0.017  0.00  0.00    +0.259 A 
ATOM     31  O   UNL     1       2.618  -5.593  -0.261  0.00  0.00    -0.267 OA
ATOM     32  N   UNL     1       0.429  -5.442   0.206  0.00  0.00    -0.264 N 
ATOM     33  C   UNL     1       0.108  -6.776   0.118  0.00  0.00    +0.104 A 
ATOM     34  C   UNL     1      -1.139  -7.198   0.326  0.00  0.00    +0.067 A 
ATOM     35  S   UNL     1      -1.990  -5.667   0.678  0.00  0.00    -0.059 S 
ATOM     36  C   UNL     1      -0.589  -4.581   0.515  0.00  0.00    +0.158 A 
ATOM     37  N   UNL     1      -0.439  -3.286   0.639  0.00  0.00    -0.338 N 
ATOM     38  H   UNL     1      -1.206  -2.736   0.865  0.00  0.00    +0.168 HD
ENDBRANCH  27  28
ENDBRANCH  26  27
ENDBRANCH  24  26
ENDBRANCH   1  24
TORSDOF 8
