REMARK  Name = ZINC20882810
REMARK  9 active torsions:
REMARK  status: ('A' for Active; 'I' for Inactive)
REMARK    1  A    between atoms: C_1  and  C_2
REMARK    2  A    between atoms: C_2  and  C_3
REMARK    3  A    between atoms: C_2  and  O_4
REMARK    4  A    between atoms: O_4  and  C_5
REMARK    5  A    between atoms: C_8  and  C_11
REMARK    6  A    between atoms: C_16  and  C_21
REMARK    7  A    between atoms: C_24  and  N_27
REMARK    8  A    between atoms: N_27  and  C_28
REMARK    9  A    between atoms: N_27  and  C_29
REMARK                            x       y       z     vdW  Elec       q    Type
REMARK                         _______ _______ _______ _____ _____    ______ ____
ROOT
ATOM      1  C   UNL     1      -1.561   5.853  -1.830  0.00  0.00    +0.136 C 
ATOM      2  C   UNL     1      -3.026   5.539  -2.018  0.00  0.00    +0.036 C 
ATOM      3  C   UNL     1      -3.726   4.610  -1.346  0.00  0.00    +0.017 C 
ATOM      4  C   UNL     1      -5.195   4.378  -1.659  0.00  0.00    +0.059 C 
ATOM      5  C   UNL     1      -5.851   5.691  -2.084  0.00  0.00    +0.032 C 
ATOM      6  C   UNL     1      -5.116   6.197  -3.330  0.00  0.00    +0.088 C 
ATOM      7  C   UNL     1      -3.659   6.333  -3.004  0.00  0.00    +0.163 C 
ATOM      8  O   UNL     1      -2.997   7.156  -3.606  0.00  0.00    -0.292 OA
ATOM      9  N   UNL     1      -3.225   3.814  -0.367  0.00  0.00    -0.316 N 
ATOM     10  C   UNL     1      -2.024   3.117  -0.449  0.00  0.00    +0.052 A 
ATOM     11  C   UNL     1      -1.968   1.734  -0.419  0.00  0.00    +0.025 A 
ATOM     12  C   UNL     1      -0.734   1.105  -0.426  0.00  0.00    +0.002 A 
ATOM     13  C   UNL     1       0.429   1.851  -0.480  0.00  0.00    +0.002 A 
ATOM     14  C   UNL     1       0.373   3.233  -0.542  0.00  0.00    +0.025 A 
ATOM     15  C   UNL     1      -0.860   3.866  -0.534  0.00  0.00    +0.049 A 
ATOM     16  N   UNL     1      -0.966   5.250  -0.656  0.00  0.00    -0.331 N 
ATOM     17  H   UNL     1      -3.779   3.686   0.575  0.00  0.00    +0.152 HD
ATOM     18  H   UNL     1      -0.589   5.886   0.158  0.00  0.00    +0.147 HD
ENDROOT
BRANCH   1  22
ATOM     19  C   UNL     1       0.563   4.489  -5.279  0.00  0.00    +0.121 A 
ATOM     20  C   UNL     1      -0.092   3.579  -4.461  0.00  0.00    +0.046 A 
ATOM     21  C   UNL     1      -0.778   4.023  -3.347  0.00  0.00    +0.009 A 
ATOM     22  C   UNL     1      -0.812   5.372  -3.046  0.00  0.00    -0.023 A 
ATOM     23  C   UNL     1      -0.165   6.281  -3.863  0.00  0.00    +0.009 A 
ATOM     24  C   UNL     1       0.527   5.842  -4.975  0.00  0.00    +0.046 A 
BRANCH  19  25
ATOM     25  O   UNL     1       1.238   4.055  -6.375  0.00  0.00    -0.489 OA
BRANCH  25  27
ATOM     26  C   UNL     1       0.124   2.154  -7.367  0.00  0.00    +0.051 C 
ATOM     27  C   UNL     1       1.331   2.642  -6.563  0.00  0.00    +0.167 C 
ATOM     28  C   UNL     1       2.618   2.311  -7.322  0.00  0.00    +0.051 C 
ENDBRANCH  25  27
ENDBRANCH  19  25
ENDBRANCH   1  22
BRANCH   5  29
ATOM     29  C   UNL     1      -7.303   5.455  -2.407  0.00  0.00    -0.043 A 
ATOM     30  C   UNL     1      -7.652   4.550  -3.393  0.00  0.00    +0.006 A 
ATOM     31  C   UNL     1      -8.983   4.327  -3.688  0.00  0.00    +0.023 A 
ATOM     32  C   UNL     1      -9.971   5.022  -3.002  0.00  0.00    +0.029 A 
ATOM     33  C   UNL     1      -9.616   5.935  -2.017  0.00  0.00    +0.023 A 
ATOM     34  C   UNL     1      -8.284   6.149  -1.723  0.00  0.00    +0.006 A 
BRANCH  32  35
ATOM     35  N   UNL     1     -11.317   4.804  -3.302  0.00  0.00    -0.336 N 
ATOM     36  C   UNL     1     -12.352   5.620  -2.663  0.00  0.00    +0.129 C 
ATOM     37  C   UNL     1     -11.695   3.757  -4.256  0.00  0.00    +0.129 C 
ENDBRANCH  32  35
ENDBRANCH   5  29
TORSDOF 5
