REMARK  Name = ZINC15274881
REMARK  6 active torsions:
REMARK  status: ('A' for Active; 'I' for Inactive)
REMARK    1  A    between atoms: C_1  and  C_2
REMARK    2  A    between atoms: C_2  and  C_4
REMARK    3  A    between atoms: C_2  and  S_16
REMARK    4  A    between atoms: N_6  and  C_7
REMARK    5  A    between atoms: S_16  and  C_17
REMARK    6  A    between atoms: N_27  and  C_28
REMARK                            x       y       z     vdW  Elec       q    Type
REMARK                         _______ _______ _______ _____ _____    ______ ____
ROOT
ATOM      1  C   UNL     1       2.957   4.195   1.182  0.00  0.00    +0.177 A 
ATOM      2  N   UNL     1       4.083   4.862   1.246  0.00  0.00    -0.223 NA
ATOM      3  C   UNL     1       4.737   5.252   0.134  0.00  0.00    +0.079 A 
ATOM      4  C   UNL     1       5.936   5.968   0.202  0.00  0.00    +0.028 A 
ATOM      5  C   UNL     1       6.566   6.346  -0.950  0.00  0.00    +0.002 A 
ATOM      6  C   UNL     1       6.032   6.029  -2.193  0.00  0.00    +0.001 A 
ATOM      7  C   UNL     1       4.860   5.330  -2.293  0.00  0.00    +0.015 A 
ATOM      8  C   UNL     1       4.197   4.932  -1.133  0.00  0.00    +0.065 A 
ATOM      9  C   UNL     1       2.936   4.180  -1.179  0.00  0.00    +0.267 A 
ATOM     10  O   UNL     1       2.422   3.875  -2.240  0.00  0.00    -0.267 OA
ATOM     11  N   UNL     1       2.368   3.840   0.001  0.00  0.00    -0.254 N 
ENDROOT
BRANCH  11  12
ATOM     12  C   UNL     1       1.164   3.122   0.012  0.00  0.00    +0.070 A 
ATOM     13  C   UNL     1       1.181   1.734   0.015  0.00  0.00    +0.028 A 
ATOM     14  C   UNL     1      -0.007   1.030   0.027  0.00  0.00    +0.002 A 
ATOM     15  C   UNL     1      -1.214   1.705   0.029  0.00  0.00    +0.002 A 
ATOM     16  C   UNL     1      -1.235   3.088   0.031  0.00  0.00    +0.022 A 
ATOM     17  C   UNL     1      -0.050   3.799   0.020  0.00  0.00    +0.065 A 
ATOM     18 CL   UNL     1      -0.077   5.535   0.015  0.00  0.00    -0.081 Cl
ENDBRANCH  11  12
BRANCH   1  19
ATOM     19  S   UNL     1       2.169   3.731   2.688  0.00  0.00    -0.075 S 
BRANCH  19  21
ATOM     20  C   UNL     1       3.341   5.956   3.756  0.00  0.00    +0.029 C 
ATOM     21  C   UNL     1       3.335   4.431   3.882  0.00  0.00    +0.137 C 
BRANCH  21  22
ATOM     22  C   UNL     1       2.919   4.044   5.278  0.00  0.00    +0.230 C 
ATOM     23  O   UNL     1       1.779   3.691   5.494  0.00  0.00    -0.274 OA
ATOM     24  N   UNL     1       3.813   4.090   6.285  0.00  0.00    -0.282 N 
ATOM     25  H   UNL     1       4.739   4.310   6.101  0.00  0.00    +0.155 HD
BRANCH  24  26
ATOM     26  C   UNL     1       3.403   3.820   7.598  0.00  0.00    +0.072 A 
ATOM     27  C   UNL     1       2.415   2.876   7.838  0.00  0.00    +0.029 A 
ATOM     28  C   UNL     1       2.013   2.610   9.132  0.00  0.00    +0.043 A 
ATOM     29  C   UNL     1       2.593   3.284  10.193  0.00  0.00    +0.161 A 
ATOM     30  C   UNL     1       3.580   4.229   9.958  0.00  0.00    +0.195 A 
ATOM     31  C   UNL     1       3.990   4.495   8.662  0.00  0.00    +0.182 A 
ATOM     32  F   UNL     1       4.956   5.411   8.432  0.00  0.00    -0.200 F 
ATOM     33  F   UNL     1       4.145   4.888  10.994  0.00  0.00    -0.199 F 
ATOM     34  F   UNL     1       2.198   3.022  11.457  0.00  0.00    -0.202 F 
ENDBRANCH  24  26
ENDBRANCH  21  22
ENDBRANCH  19  21
ENDBRANCH   1  19
TORSDOF 5
