REMARK  Name = ZINC09619302
REMARK  6 active torsions:
REMARK  status: ('A' for Active; 'I' for Inactive)
REMARK    1  A    between atoms: C_1  and  N_2
REMARK    2  A    between atoms: N_2  and  C_3
REMARK    3  A    between atoms: C_3  and  C_4
REMARK    4  A    between atoms: C_7  and  C_9
REMARK    5  A    between atoms: C_16  and  C_18
REMARK    6  A    between atoms: C_18  and  N_19
REMARK                            x       y       z     vdW  Elec       q    Type
REMARK                         _______ _______ _______ _____ _____    ______ ____
ROOT
ATOM      1  C   UNL     1       0.962   0.419   2.584  0.00  0.00    +0.132 C 
ATOM      2  N   UNL     1      -0.242   1.246   2.466  0.00  0.00    -0.296 N 
ATOM      3  C   UNL     1      -0.718   1.572   1.248  0.00  0.00    +0.234 C 
ATOM      4  O   UNL     1      -1.714   2.256   1.150  0.00  0.00    -0.274 OA
ENDROOT
BRANCH   2   5
ATOM      5  C   UNL     1      -0.927   1.718   3.671  0.00  0.00    +0.181 C 
BRANCH   5   6
ATOM      6  C   UNL     1      -1.967   0.709   4.086  0.00  0.00    +0.123 A 
ATOM      7  C   UNL     1      -1.766  -0.326   4.924  0.00  0.00    +0.047 A 
ATOM      8  C   UNL     1      -2.993  -1.011   5.036  0.00  0.00    +0.050 A 
ATOM      9  C   UNL     1      -3.884  -0.348   4.251  0.00  0.00    +0.135 A 
ATOM     10  O   UNL     1      -3.249   0.696   3.686  0.00  0.00    -0.458 OA
BRANCH   9  11
ATOM     11  C   UNL     1      -5.304  -0.709   4.057  0.00  0.00    +0.017 A 
ATOM     12  C   UNL     1      -5.840  -1.822   4.706  0.00  0.00    +0.013 A 
ATOM     13  C   UNL     1      -7.167  -2.150   4.526  0.00  0.00    +0.021 A 
ATOM     14  C   UNL     1      -7.965  -1.383   3.693  0.00  0.00    +0.041 A 
ATOM     15  C   UNL     1      -7.439  -0.281   3.042  0.00  0.00    +0.021 A 
ATOM     16  C   UNL     1      -6.114   0.060   3.219  0.00  0.00    +0.013 A 
ATOM     17 CL   UNL     1      -9.633  -1.807   3.465  0.00  0.00    -0.084 Cl
ENDBRANCH   9  11
ENDBRANCH   5   6
ENDBRANCH   2   5
BRANCH   3  18
ATOM     18  C   UNL     1      -0.013   1.086   0.008  0.00  0.00    +0.213 C 
BRANCH  18  19
ATOM     19  N   UNL     1      -0.721   1.571  -1.179  0.00  0.00    -0.215 N 
ATOM     20  C   UNL     1      -0.456   2.742  -1.794  0.00  0.00    +0.247 C 
ATOM     21  O   UNL     1       0.381   3.562  -1.483  0.00  0.00    -0.273 OA
ATOM     22  C   UNL     1      -1.423   2.817  -2.954  0.00  0.00    +0.113 C 
ATOM     23  C   UNL     1      -0.665   2.874  -4.275  0.00  0.00    +0.035 C 
ATOM     24  C   UNL     1      -1.660   2.921  -5.437  0.00  0.00    +0.003 C 
ATOM     25  C   UNL     1      -2.556   4.152  -5.290  0.00  0.00    +0.000 C 
ATOM     26  C   UNL     1      -3.328   4.068  -3.972  0.00  0.00    +0.003 C 
ATOM     27  C   UNL     1      -2.339   4.026  -2.804  0.00  0.00    +0.035 C 
ATOM     28  N   UNL     1      -2.194   1.571  -2.856  0.00  0.00    -0.285 N 
ATOM     29  C   UNL     1      -1.708   0.905  -1.791  0.00  0.00    +0.310 C 
ATOM     30  O   UNL     1      -2.122  -0.178  -1.424  0.00  0.00    -0.252 OA
ATOM     31  H   UNL     1      -2.909   1.283  -3.444  0.00  0.00    +0.151 HD
ENDBRANCH  18  19
ENDBRANCH   3  18
TORSDOF 5
