REMARK  Name = ZINC20467382
REMARK  12 active torsions:
REMARK  status: ('A' for Active; 'I' for Inactive)
REMARK    1  A    between atoms: C_1  and  C_2
REMARK    2  A    between atoms: C_4  and  N_28
REMARK    3  A    between atoms: C_8  and  C_27
REMARK    4  A    between atoms: C_11  and  O_26
REMARK    5  A    between atoms: C_13  and  C_17
REMARK    6  A    between atoms: C_17  and  C_19
REMARK    7  A    between atoms: C_17  and  C_20
REMARK    8  A    between atoms: N_22  and  C_23
REMARK    9  A    between atoms: C_23  and  C_24
REMARK   10  A    between atoms: C_23  and  C_25
REMARK   11  A    between atoms: N_28  and  S_29
REMARK   12  A    between atoms: S_29  and  C_32
REMARK                            x       y       z     vdW  Elec       q    Type
REMARK                         _______ _______ _______ _____ _____    ______ ____
ROOT
ATOM      1  C   UNL     1      -4.100  -0.309   1.602  0.00  0.00    +0.009 C 
ATOM      2  C   UNL     1      -4.234   1.214   1.542  0.00  0.00    +0.011 C 
ATOM      3  C   UNL     1      -5.479   1.585   0.733  0.00  0.00    +0.079 C 
ATOM      4  C   UNL     1      -5.613   3.108   0.674  0.00  0.00    +0.021 C 
ATOM      5  C   UNL     1      -4.373   3.703   0.004  0.00  0.00    +0.008 C 
ATOM      6  C   UNL     1      -3.129   3.332   0.812  0.00  0.00    -0.027 C 
ATOM      7  C   UNL     1      -2.994   1.810   0.872  0.00  0.00    +0.028 C 
ATOM      8  C   UNL     1      -1.750   1.438   1.681  0.00  0.00    +0.122 C 
ATOM      9  C   UNL     1      -0.510   2.034   1.011  0.00  0.00    +0.029 C 
ATOM     10  C   UNL     1      -0.644   3.557   0.951  0.00  0.00    +0.007 C 
ATOM     11  C   UNL     1      -1.889   3.928   0.143  0.00  0.00    +0.007 C 
ATOM     12  C   UNL     1      -3.258   3.889   2.232  0.00  0.00    +0.011 C 
ENDROOT
BRANCH   9  13
ATOM     13  C   UNL     1      -0.380   1.478  -0.408  0.00  0.00    +0.077 C 
ATOM     14  C   UNL     1      -0.335  -0.051  -0.355  0.00  0.00    +0.017 C 
BRANCH  13  15
ATOM     15  C   UNL     1       0.887   1.996  -1.037  0.00  0.00    +0.216 C 
ATOM     16  O   UNL     1       1.615   2.737  -0.412  0.00  0.00    -0.276 OA
ATOM     17  N   UNL     1       1.212   1.635  -2.295  0.00  0.00    -0.313 N 
ATOM     18  H   UNL     1       0.552   0.963  -2.862  0.00  0.00    +0.149 HD
BRANCH  17  19
ATOM     19  C   UNL     1       2.444   2.139  -2.906  0.00  0.00    +0.067 C 
ATOM     20  C   UNL     1       3.617   1.243  -2.503  0.00  0.00    +0.027 C 
ATOM     21  C   UNL     1       2.298   2.133  -4.429  0.00  0.00    +0.027 C 
ENDBRANCH  17  19
ENDBRANCH  13  15
ENDBRANCH   9  13
BRANCH   8  22
ATOM     22  O   UNL     1      -1.624   0.016   1.737  0.00  0.00    -0.391 OA
ATOM     23  H   UNL     1      -0.784  -0.441   2.279  0.00  0.00    +0.210 HD
ENDBRANCH   8  22
BRANCH   3  24
ATOM     24  N   UNL     1      -6.666   1.015   1.375  0.00  0.00    -0.191 NA
ATOM     25  H   UNL     1      -6.657   0.795   2.453  0.00  0.00    +0.148 HD
BRANCH  24  26
ATOM     26  S   UNL     1      -7.927   0.472   0.449  0.00  0.00    +0.027 S 
ATOM     27  O   UNL     1      -8.895   0.018   1.385  0.00  0.00    -0.158 OA
ATOM     28  O   UNL     1      -8.220   1.548  -0.432  0.00  0.00    -0.158 OA
ATOM     29  C   UNL     1      -7.252  -0.931  -0.482  0.00  0.00    +0.214 C 
ENDBRANCH  24  26
ENDBRANCH   3  24
TORSDOF 6
