REMARK  Name = ZINC39769389
REMARK  12 active torsions:
REMARK  status: ('A' for Active; 'I' for Inactive)
REMARK    1  A    between atoms: C_1  and  C_2
REMARK    2  A    between atoms: C_2  and  N_3
REMARK    3  A    between atoms: C_4  and  N_27
REMARK    4  A    between atoms: C_5  and  C_13
REMARK    5  A    between atoms: C_6  and  C_12
REMARK    6  A    between atoms: C_7  and  C_10
REMARK    7  A    between atoms: N_17  and  C_21
REMARK    8  A    between atoms: C_21  and  C_22
REMARK    9  A    between atoms: C_22  and  C_23
REMARK   10  A    between atoms: C_23  and  C_24
REMARK   11  A    between atoms: C_29  and  C_36
REMARK   12  A    between atoms: C_32  and  C_35
REMARK                            x       y       z     vdW  Elec       q    Type
REMARK                         _______ _______ _______ _____ _____    ______ ____
ROOT
ATOM      1  N   UNL     1      -2.525   0.018  -0.559  0.00  0.00    -0.295 N 
ATOM      2  C   UNL     1      -2.532  -0.387   0.737  0.00  0.00    +0.112 A 
ATOM      3  C   UNL     1      -3.429  -1.378   1.170  0.00  0.00    +0.019 A 
ATOM      4  C   UNL     1      -4.324  -1.949   0.250  0.00  0.00    -0.017 A 
ATOM      5  C   UNL     1      -4.298  -1.516  -1.072  0.00  0.00    +0.120 A 
ATOM      6  C   UNL     1      -3.376  -0.509  -1.457  0.00  0.00    +0.270 A 
ATOM      7  O   UNL     1      -3.351  -0.122  -2.612  0.00  0.00    -0.266 OA
ATOM      8  C   UNL     1      -5.296  -3.014   0.688  0.00  0.00    +0.046 C 
ENDROOT
BRANCH   3   9
ATOM      9  C   UNL     1      -3.431  -1.812   2.568  0.00  0.00    +0.032 C 
ATOM     10  C   UNL     1      -4.526  -1.597   3.346  0.00  0.00    +0.077 C 
ATOM     11  C   UNL     1      -5.721  -0.871   3.052  0.00  0.00    +0.258 C 
ATOM     12  O   UNL     1      -5.876  -0.330   1.973  0.00  0.00    -0.269 OA
ATOM     13  N   UNL     1      -6.653  -0.806   3.987  0.00  0.00    -0.255 N 
ATOM     14  C   UNL     1      -6.481  -1.407   5.185  0.00  0.00    +0.121 C 
ATOM     15  S   UNL     1      -7.543  -1.451   6.526  0.00  0.00    -0.027 S 
ATOM     16  S   UNL     1      -4.865  -2.151   5.011  0.00  0.00    -0.061 S 
BRANCH  13  17
ATOM     17  C   UNL     1      -7.892  -0.071   3.720  0.00  0.00    +0.115 C 
BRANCH  17  18
ATOM     18  C   UNL     1      -8.927  -1.019   3.110  0.00  0.00    +0.031 C 
BRANCH  18  19
ATOM     19  C   UNL     1     -10.220  -0.251   2.832  0.00  0.00    +0.126 C 
BRANCH  19  20
ATOM     20  C   UNL     1     -11.239  -1.184   2.230  0.00  0.00    +0.356 C 
ATOM     21  O   UNL     1     -10.957  -2.355   2.042  0.00  0.00    -0.246 OA
ATOM     22  O   UNL     1     -12.346  -0.768   1.932  0.00  0.00    -0.246 OA
ENDBRANCH  19  20
ENDBRANCH  18  19
ENDBRANCH  17  18
ENDBRANCH  13  17
ENDBRANCH   3   9
BRANCH   2  23
ATOM     23  N   UNL     1      -1.660   0.171   1.626  0.00  0.00    -0.315 N 
ATOM     24  C   UNL     1      -1.851   1.550   2.096  0.00  0.00    +0.109 C 
ATOM     25  C   UNL     1      -1.862   1.552   3.628  0.00  0.00    +0.004 C 
ATOM     26  C   UNL     1      -0.585   0.883   4.143  0.00  0.00    +0.009 C 
ATOM     27  C   UNL     1      -0.538  -0.569   3.662  0.00  0.00    +0.004 C 
ATOM     28  C   UNL     1      -0.516  -0.597   2.135  0.00  0.00    +0.109 C 
ATOM     29  C   UNL     1       0.722  -1.246   4.206  0.00  0.00    +0.009 C 
ATOM     30  C   UNL     1      -3.083   0.779   4.131  0.00  0.00    +0.009 C 
ENDBRANCH   2  23
BRANCH   1  32
ATOM     31  C   UNL     1      -2.280   2.413  -0.992  0.00  0.00    +0.027 C 
ATOM     32  C   UNL     1      -1.579   1.053  -0.984  0.00  0.00    +0.123 C 
ENDBRANCH   1  32
BRANCH   5  33
ATOM     33  C   UNL     1      -5.196  -2.078  -2.035  0.00  0.00    +0.105 C 
ATOM     34  N   UNL     1      -5.910  -2.524  -2.798  0.00  0.00    -0.191 NA
ENDBRANCH   5  33
TORSDOF 8
