REMARK  Name = ZINC21249863
REMARK  5 active torsions:
REMARK  status: ('A' for Active; 'I' for Inactive)
REMARK    1  A    between atoms: C_1  and  O_2
REMARK    2  A    between atoms: O_2  and  C_3
REMARK    3  A    between atoms: C_5  and  C_10
REMARK    4  A    between atoms: C_8  and  O_9
REMARK    5  A    between atoms: C_21  and  C_24
REMARK                            x       y       z     vdW  Elec       q    Type
REMARK                         _______ _______ _______ _____ _____    ______ ____
ROOT
ATOM      1  C   UNL     1       5.106   3.326  -0.034  0.00  0.00    +0.063 C 
ATOM      2  C   UNL     1       6.084   2.410  -0.772  0.00  0.00    +0.109 C 
ATOM      3  C   UNL     1       5.771   2.441  -2.246  0.00  0.00    +0.218 C 
ATOM      4  O   UNL     1       5.934   1.446  -2.920  0.00  0.00    -0.275 OA
ATOM      5  N   UNL     1       5.311   3.568  -2.816  0.00  0.00    -0.289 N 
ATOM      6  C   UNL     1       5.140   4.716  -2.083  0.00  0.00    +0.018 C 
ATOM      7  C   UNL     1       5.038   4.660  -0.739  0.00  0.00    +0.020 C 
ATOM      8  C   UNL     1       4.869   5.823   0.031  0.00  0.00    +0.162 C 
ATOM      9  O   UNL     1       4.768   5.731   1.238  0.00  0.00    -0.292 OA
ATOM     10  C   UNL     1       4.811   7.180  -0.617  0.00  0.00    +0.088 C 
ATOM     11  C   UNL     1       5.624   7.146  -1.916  0.00  0.00    +0.032 C 
ATOM     12  C   UNL     1       5.068   6.035  -2.810  0.00  0.00    +0.059 C 
ATOM     13  H   UNL     1       5.064   3.582  -3.888  0.00  0.00    +0.155 HD
ENDROOT
BRANCH   1  16
ATOM     14  C   UNL     1       1.866   1.824   1.198  0.00  0.00    +0.162 A 
ATOM     15  C   UNL     1       3.126   2.399   1.184  0.00  0.00    +0.053 A 
ATOM     16  C   UNL     1       3.738   2.693  -0.020  0.00  0.00    -0.036 A 
ATOM     17  C   UNL     1       3.098   2.410  -1.212  0.00  0.00    +0.008 A 
ATOM     18  C   UNL     1       1.843   1.830  -1.205  0.00  0.00    +0.049 A 
ATOM     19  C   UNL     1       1.224   1.533  -0.001  0.00  0.00    +0.158 A 
BRANCH  14  21
ATOM     20  C   UNL     1       1.978   1.865   3.574  0.00  0.00    +0.277 C 
ATOM     21  O   UNL     1       1.260   1.539   2.382  0.00  0.00    -0.491 OA
ENDBRANCH  14  21
BRANCH  19  22
ATOM     22  O   UNL     1      -0.011   0.963   0.007  0.00  0.00    -0.503 OA
ATOM     23  H   UNL     1      -0.517   0.733  -0.942  0.00  0.00    +0.292 HD
ENDBRANCH  19  22
ENDBRANCH   1  16
BRANCH  11  24
ATOM     24  C   UNL     1       5.504   8.472  -2.622  0.00  0.00    -0.044 A 
ATOM     25  C   UNL     1       4.264   8.931  -3.024  0.00  0.00    +0.004 A 
ATOM     26  C   UNL     1       4.154  10.150  -3.668  0.00  0.00    +0.000 A 
ATOM     27  C   UNL     1       5.285  10.904  -3.919  0.00  0.00    +0.000 A 
ATOM     28  C   UNL     1       6.526  10.442  -3.521  0.00  0.00    +0.000 A 
ATOM     29  C   UNL     1       6.635   9.226  -2.873  0.00  0.00    +0.004 A 
ENDBRANCH  11  24
TORSDOF 4
