REMARK  Name = ZINC64062029
REMARK  6 active torsions:
REMARK  status: ('A' for Active; 'I' for Inactive)
REMARK    1  A    between atoms: C_1  and  C_2
REMARK    2  A    between atoms: C_2  and  C_3
REMARK    3  A    between atoms: C_3  and  C_4
REMARK    4  A    between atoms: C_4  and  N_5
REMARK    5  A    between atoms: C_8  and  C_14
REMARK    6  A    between atoms: C_21  and  C_26
REMARK                            x       y       z     vdW  Elec       q    Type
REMARK                         _______ _______ _______ _____ _____    ______ ____
ROOT
ATOM      1  C   UNL     1       0.615  -3.428  -6.024  0.00  0.00    -0.003 C 
ATOM      2  C   UNL     1      -0.374  -4.576  -5.808  0.00  0.00    +0.097 C 
ATOM      3  C   UNL     1      -1.206  -4.665  -7.083  0.00  0.00    -0.041 C 
ATOM      4  C   UNL     1      -1.122  -5.920  -7.499  0.00  0.00    -0.001 A 
ATOM      5  C   UNL     1      -1.772  -6.632  -8.611  0.00  0.00    +0.013 A 
ATOM      6  C   UNL     1      -1.439  -7.941  -8.761  0.00  0.00    -0.050 A 
ATOM      7  C   UNL     1      -0.535  -8.606  -7.927  0.00  0.00    +0.005 A 
ATOM      8  C   UNL     1       0.104  -8.031  -6.877  0.00  0.00    +0.026 A 
ATOM      9  C   UNL     1      -0.168  -6.657  -6.614  0.00  0.00    +0.043 A 
ATOM     10  N   UNL     1       0.285  -5.871  -5.658  0.00  0.00    -0.379 N 
ATOM     11  C   UNL     1      -2.077  -8.717  -9.885  0.00  0.00    +0.044 C 
ATOM     12  C   UNL     1      -1.853  -3.442  -7.688  0.00  0.00    +0.014 C 
ATOM     13  C   UNL     1      -0.766  -2.352  -7.714  0.00  0.00    -0.077 C 
ATOM     14  N   UNL     1      -0.144  -2.224  -6.394  0.00  0.00    +0.386 N 
ATOM     15  H   UNL     1      -0.866  -2.066  -5.706  0.00  0.00    -0.085 HD
ATOM     16  H   UNL     1       0.940  -6.100  -4.979  0.00  0.00    +0.160 HD
ATOM     17  H   UNL     1       0.480  -1.431  -6.400  0.00  0.00    -0.085 HD
ENDROOT
BRANCH   1  21
ATOM     18  N   UNL     1       1.425  -2.500  -2.470  0.00  0.00    -0.261 N 
ATOM     19  C   UNL     1       0.720  -2.721  -3.598  0.00  0.00    +0.262 A 
ATOM     20  O   UNL     1      -0.484  -2.529  -3.617  0.00  0.00    -0.267 OA
ATOM     21  C   UNL     1       1.383  -3.174  -4.752  0.00  0.00    +0.070 A 
ATOM     22  C   UNL     1       2.729  -3.380  -4.705  0.00  0.00    +0.259 A 
ATOM     23  N   UNL     1       3.408  -3.143  -3.537  0.00  0.00    -0.275 N 
ATOM     24  C   UNL     1       2.754  -2.704  -2.446  0.00  0.00    +0.332 A 
ATOM     25  O   UNL     1       3.373  -2.495  -1.420  0.00  0.00    -0.246 OA
ATOM     26  O   UNL     1       3.390  -3.815  -5.799  0.00  0.00    -0.267 OA
ATOM     27  H   UNL     1       4.367  -3.288  -3.498  0.00  0.00    +0.173 HD
BRANCH  18  28
ATOM     28  C   UNL     1       0.739  -2.027  -1.265  0.00  0.00    +0.130 C 
BRANCH  28  29
ATOM     29  C   UNL     1       0.718  -0.497  -1.257  0.00  0.00    +0.022 C 
BRANCH  29  31
ATOM     30  C   UNL     1      -0.019   1.526   0.010  0.00  0.00    +0.004 C 
ATOM     31  C   UNL     1       0.002  -0.004   0.002  0.00  0.00    -0.002 C 
ENDBRANCH  29  31
ENDBRANCH  28  29
ENDBRANCH  18  28
ENDBRANCH   1  21
TORSDOF 4
