REMARK  Name = ZINC03905108
REMARK  9 active torsions:
REMARK  status: ('A' for Active; 'I' for Inactive)
REMARK    1  A    between atoms: C_1  and  C_2
REMARK    2  A    between atoms: C_2  and  C_3
REMARK    3  A    between atoms: C_2  and  C_4
REMARK    4  A    between atoms: C_4  and  C_5
REMARK    5  A    between atoms: C_5  and  C_6
REMARK    6  A    between atoms: C_9  and  C_11
REMARK    7  A    between atoms: C_9  and  O_15
REMARK    8  A    between atoms: C_16  and  C_18
REMARK    9  A    between atoms: C_23  and  O_24
REMARK                            x       y       z     vdW  Elec       q    Type
REMARK                         _______ _______ _______ _____ _____    ______ ____
ROOT
ATOM      1  C   UNL     1      -0.698   1.599   1.251  0.00  0.00    +0.042 C 
ATOM      2  N   UNL     1      -1.749   2.311   1.260  0.00  0.00    -0.183 NA
ATOM      3  N   UNL     1      -2.223   2.625   2.533  0.00  0.00    -0.148 N 
ATOM      4  C   UNL     1      -1.324   2.025   3.532  0.00  0.00    +0.257 C 
ATOM      5  C   UNL     1      -0.263   1.311   2.670  0.00  0.00    +0.118 C 
ATOM      6  C   UNL     1      -3.319   3.360   2.803  0.00  0.00    +0.272 C 
ATOM      7  O   UNL     1      -3.695   3.492   3.953  0.00  0.00    -0.268 OA
ENDROOT
BRANCH   6   8
ATOM      8  C   UNL     1      -4.064   4.006   1.706  0.00  0.00    +0.080 A 
ATOM      9  C   UNL     1      -3.709   3.761   0.377  0.00  0.00    +0.017 A 
ATOM     10  C   UNL     1      -4.412   4.362  -0.644  0.00  0.00    +0.001 A 
ATOM     11  C   UNL     1      -5.464   5.218  -0.359  0.00  0.00    +0.004 A 
ATOM     12  C   UNL     1      -5.821   5.473   0.950  0.00  0.00    +0.046 A 
ATOM     13  C   UNL     1      -5.128   4.872   1.990  0.00  0.00    +0.129 A 
BRANCH  13  14
ATOM     14  O   UNL     1      -5.479   5.122   3.277  0.00  0.00    -0.506 OA
ATOM     15  H   UNL     1      -5.019   5.876   3.670  0.00  0.00    +0.292 HD
ENDBRANCH  13  14
ENDBRANCH   6   8
BRANCH   4  16
ATOM     16  C   UNL     1      -0.677   3.109   4.397  0.00  0.00    +0.438 C 
ATOM     17  F   UNL     1      -0.054   4.053   3.573  0.00  0.00    -0.166 F 
ATOM     18  F   UNL     1      -1.660   3.739   5.167  0.00  0.00    -0.166 F 
ATOM     19  F   UNL     1       0.275   2.526   5.241  0.00  0.00    -0.166 F 
ENDBRANCH   4  16
BRANCH   4  20
ATOM     20  O   UNL     1      -2.029   1.084   4.345  0.00  0.00    -0.363 OA
ATOM     21  H   UNL     1      -2.708   1.481   4.907  0.00  0.00    +0.212 HD
ENDBRANCH   4  20
BRANCH   1  22
ATOM     22  C   UNL     1       0.014   1.120   0.012  0.00  0.00    +0.053 C 
BRANCH  22  23
ATOM     23  C   UNL     1      -0.732   1.616  -1.228  0.00  0.00    +0.009 C 
BRANCH  23  25
ATOM     24  C   UNL     1      -0.821   1.519  -3.723  0.00  0.00    +0.007 C 
ATOM     25  C   UNL     1      -0.010   1.129  -2.486  0.00  0.00    -0.017 C 
ATOM     26  C   UNL     1       1.375   1.774  -2.561  0.00  0.00    +0.007 C 
ENDBRANCH  23  25
ENDBRANCH  22  23
ENDBRANCH   1  22
TORSDOF 7
