REMARK  Name = ZINC63763678
REMARK  4 active torsions:
REMARK  status: ('A' for Active; 'I' for Inactive)
REMARK    1  A    between atoms: C_1  and  C_2
REMARK    2  A    between atoms: C_2  and  C_3
REMARK    3  A    between atoms: C_2  and  C_4
REMARK    4  A    between atoms: C_7  and  N_10
REMARK                            x       y       z     vdW  Elec       q    Type
REMARK                         _______ _______ _______ _____ _____    ______ ____
ROOT
ATOM      1  N   UNL     1      -5.318  -1.967   0.043  0.00  0.00    -0.262 N 
ATOM      2  C   UNL     1      -5.920  -2.833  -0.995  0.00  0.00    +0.158 C 
ATOM      3  C   UNL     1      -7.331  -3.071  -0.536  0.00  0.00    -0.004 C 
ATOM      4  C   UNL     1      -8.329  -3.929  -0.650  0.00  0.00    +0.135 C 
ATOM      5  N   UNL     1      -9.408  -3.842   0.141  0.00  0.00    -0.165 NA
ATOM      6  N   UNL     1      -9.557  -3.022   1.113  0.00  0.00    -0.079 NA
ATOM      7  C   UNL     1      -8.669  -2.031   1.380  0.00  0.00    +0.276 C 
ATOM      8  O   UNL     1      -8.756  -1.335   2.370  0.00  0.00    -0.270 OA
ATOM      9  C   UNL     1      -7.567  -1.849   0.365  0.00  0.00    +0.191 C 
ATOM     10  N   UNL     1      -6.256  -1.718   1.025  0.00  0.00    -0.224 NA
ATOM     11  H   UNL     1      -6.164  -2.373   1.787  0.00  0.00    +0.146 HD
ENDROOT
BRANCH   1  15
ATOM     12  C   UNL     1      -1.412  -0.526   0.013  0.00  0.00    -0.045 A 
ATOM     13  C   UNL     1      -2.258  -0.203   1.058  0.00  0.00    +0.006 A 
ATOM     14  C   UNL     1      -3.554  -0.679   1.071  0.00  0.00    +0.025 A 
ATOM     15  C   UNL     1      -4.008  -1.483   0.032  0.00  0.00    +0.045 A 
ATOM     16  C   UNL     1      -3.155  -1.805  -1.016  0.00  0.00    +0.025 A 
ATOM     17  C   UNL     1      -1.861  -1.321  -1.025  0.00  0.00    +0.006 A 
BRANCH  12  19
ATOM     18  C   UNL     1      -0.019   1.526   0.010  0.00  0.00    +0.012 C 
ATOM     19  C   UNL     1       0.002  -0.004   0.002  0.00  0.00    +0.013 C 
ATOM     20  C   UNL     1       0.742  -0.511   1.242  0.00  0.00    +0.012 C 
ENDBRANCH  12  19
ENDBRANCH   1  15
TORSDOF 2
