REMARK  Name = ZINC02247783
REMARK  5 active torsions:
REMARK  status: ('A' for Active; 'I' for Inactive)
REMARK    1  A    between atoms: C_1  and  C_2
REMARK    2  A    between atoms: C_5  and  C_8
REMARK    3  A    between atoms: C_19  and  C_21
REMARK    4  A    between atoms: C_32  and  S_34
REMARK    5  A    between atoms: S_34  and  C_35
REMARK                            x       y       z     vdW  Elec       q    Type
REMARK                         _______ _______ _______ _____ _____    ______ ____
ROOT
ATOM      1  C   UNL     1      -0.021  -4.158  -0.253  0.00  0.00    +0.159 C 
ATOM      2  C   UNL     1       1.397  -4.649  -0.061  0.00  0.00    +0.025 C 
ATOM      3  C   UNL     1       1.666  -5.404   1.023  0.00  0.00    +0.058 C 
ATOM      4  C   UNL     1       3.060  -5.888   1.192  0.00  0.00    +0.040 A 
ATOM      5  C   UNL     1       3.512  -6.387   2.406  0.00  0.00    +0.013 A 
ATOM      6  C   UNL     1       4.818  -6.824   2.519  0.00  0.00    +0.001 A 
ATOM      7  C   UNL     1       5.670  -6.764   1.431  0.00  0.00    +0.004 A 
ATOM      8  C   UNL     1       5.227  -6.269   0.218  0.00  0.00    +0.046 A 
ATOM      9  C   UNL     1       3.921  -5.829   0.089  0.00  0.00    +0.131 A 
ATOM     10  O   UNL     1       3.458  -5.344  -1.091  0.00  0.00    -0.479 OA
ATOM     11  C   UNL     1       2.480  -4.303  -1.040  0.00  0.00    +0.237 C 
ATOM     12  N   UNL     1       0.705  -5.715   1.927  0.00  0.00    -0.326 N 
ATOM     13  C   UNL     1      -0.550  -5.330   1.838  0.00  0.00    +0.216 C 
ATOM     14  N   UNL     1      -0.982  -4.554   0.784  0.00  0.00    -0.209 N 
ATOM     15  N   UNL     1      -2.345  -4.323   0.986  0.00  0.00    -0.239 N 
ATOM     16  C   UNL     1      -2.676  -4.962   2.152  0.00  0.00    +0.174 C 
ATOM     17  N   UNL     1      -1.611  -5.549   2.636  0.00  0.00    -0.192 NA
ATOM     18  H   UNL     1       0.959  -6.258   2.690  0.00  0.00    +0.169 HD
ATOM     19  H   UNL     1      -2.938  -3.811   0.414  0.00  0.00    +0.172 HD
ENDROOT
BRANCH   1  24
ATOM     20  C   UNL     1       0.086   1.615  -0.493  0.00  0.00    +0.044 C 
ATOM     21  C   UNL     1       0.058   0.110  -0.430  0.00  0.00    -0.050 A 
ATOM     22  C   UNL     1      -0.195  -0.625  -1.573  0.00  0.00    +0.004 A 
ATOM     23  C   UNL     1      -0.221  -2.006  -1.516  0.00  0.00    +0.006 A 
ATOM     24  C   UNL     1       0.008  -2.652  -0.316  0.00  0.00    -0.021 A 
ATOM     25  C   UNL     1       0.262  -1.917   0.827  0.00  0.00    +0.006 A 
ATOM     26  C   UNL     1       0.292  -0.537   0.769  0.00  0.00    +0.004 A 
ENDBRANCH   1  24
BRANCH  11  27
ATOM     27  C   UNL     1       3.142  -3.017  -0.616  0.00  0.00    +0.032 A 
ATOM     28  C   UNL     1       3.956  -2.994   0.501  0.00  0.00    +0.010 A 
ATOM     29  C   UNL     1       4.564  -1.815   0.889  0.00  0.00    +0.001 A 
ATOM     30  C   UNL     1       4.358  -0.657   0.162  0.00  0.00    +0.003 A 
ATOM     31  C   UNL     1       3.545  -0.678  -0.955  0.00  0.00    +0.039 A 
ATOM     32  C   UNL     1       2.940  -1.860  -1.349  0.00  0.00    +0.130 A 
ATOM     33  F   UNL     1       2.149  -1.883  -2.444  0.00  0.00    -0.205 F 
ENDBRANCH  11  27
BRANCH  16  34
ATOM     34  S   UNL     1      -4.280  -4.994   2.881  0.00  0.00    -0.092 S 
ATOM     35  C   UNL     1      -4.060  -5.987   4.382  0.00  0.00    +0.093 C 
ENDBRANCH  16  34
TORSDOF 3
