REMARK  Name = ZINC37036720
REMARK  5 active torsions:
REMARK  status: ('A' for Active; 'I' for Inactive)
REMARK    1  A    between atoms: C_1  and  C_2
REMARK    2  A    between atoms: C_3  and  S_8
REMARK    3  A    between atoms: S_8  and  C_9
REMARK    4  A    between atoms: C_9  and  C_10
REMARK    5  A    between atoms: C_12  and  C_15
REMARK                            x       y       z     vdW  Elec       q    Type
REMARK                         _______ _______ _______ _____ _____    ______ ____
ROOT
ATOM      1  C   UNL     1      -0.010  -1.173  -5.311  0.00  0.00    +0.238 A 
ATOM      2  N   UNL     1       1.040  -0.966  -6.053  0.00  0.00    -0.191 NA
ATOM      3  C   UNL     1       0.665  -0.635  -7.301  0.00  0.00    +0.202 A 
ATOM      4  N   UNL     1      -0.644  -0.630  -7.357  0.00  0.00    -0.056 NA
ATOM      5  O   UNL     1      -1.103  -0.986  -6.061  0.00  0.00    -0.337 OA
ENDROOT
BRANCH   3   6
ATOM      6  C   UNL     1       1.580  -0.327  -8.428  0.00  0.00    +0.023 A 
ATOM      7  C   UNL     1       2.960  -0.373  -8.239  0.00  0.00    +0.014 A 
ATOM      8  C   UNL     1       3.807  -0.086  -9.290  0.00  0.00    +0.039 A 
ATOM      9  C   UNL     1       3.288   0.248 -10.530  0.00  0.00    +0.123 A 
ATOM     10  C   UNL     1       1.917   0.295 -10.722  0.00  0.00    +0.039 A 
ATOM     11  C   UNL     1       1.062   0.004  -9.678  0.00  0.00    +0.014 A 
ATOM     12  F   UNL     1       4.121   0.528 -11.556  0.00  0.00    -0.205 F 
ENDBRANCH   3   6
BRANCH   1  13
ATOM     13  C   UNL     1       0.003  -1.562  -3.855  0.00  0.00    +0.173 C 
BRANCH  13  14
ATOM     14  S   UNL     1      -0.012  -0.066  -2.829  0.00  0.00    -0.107 S 
BRANCH  14  17
ATOM     15  C   UNL     1      -0.018   1.503   0.010  0.00  0.00    +0.067 C 
ATOM     16  C   UNL     1       0.002  -0.004   0.002  0.00  0.00    +0.061 A 
ATOM     17  C   UNL     1       0.005  -0.682  -1.178  0.00  0.00    +0.070 A 
ATOM     18  S   UNL     1       0.031  -2.370  -0.589  0.00  0.00    -0.046 S 
ATOM     19  C   UNL     1       0.035  -1.995   1.158  0.00  0.00    +0.157 A 
ATOM     20  N   UNL     1       0.022  -0.675   1.141  0.00  0.00    -0.229 NA
ATOM     21  N   UNL     1       0.052  -2.861   2.245  0.00  0.00    -0.337 N 
ATOM     22  H   UNL     1       0.065  -3.820   2.100  0.00  0.00    +0.144 HD
ATOM     23  H   UNL     1       0.052  -2.507   3.148  0.00  0.00    +0.144 HD
ENDBRANCH  14  17
ENDBRANCH  13  14
ENDBRANCH   1  13
TORSDOF 4
