REMARK  Name = ZINC20292158
REMARK  7 active torsions:
REMARK  status: ('A' for Active; 'I' for Inactive)
REMARK    1  A    between atoms: C_3  and  C_8
REMARK    2  A    between atoms: N_9  and  N_10
REMARK    3  A    between atoms: C_14  and  S_17
REMARK    4  A    between atoms: N_15  and  N_16
REMARK    5  A    between atoms: S_17  and  C_18
REMARK    6  A    between atoms: C_18  and  C_19
REMARK    7  A    between atoms: C_19  and  C_21
REMARK                            x       y       z     vdW  Elec       q    Type
REMARK                         _______ _______ _______ _____ _____    ______ ____
ROOT
ATOM      1  N   UNL     1       6.038   2.276  -0.815  0.00  0.00    -0.204 N 
ATOM      2  C   UNL     1       7.240   1.591  -0.723  0.00  0.00    +0.254 A 
ATOM      3  N   UNL     1       7.397   0.293  -0.822  0.00  0.00    -0.109 NA
ATOM      4  N   UNL     1       8.761   0.009  -0.673  0.00  0.00    -0.119 NA
ATOM      5  C   UNL     1       9.393   1.144  -0.487  0.00  0.00    +0.210 A 
ATOM      6  N   UNL     1       8.471   2.151  -0.518  0.00  0.00    -0.211 N 
ATOM      7  H   UNL     1       6.023   3.243  -0.732  0.00  0.00    +0.177 HD
ENDROOT
BRANCH   6   8
ATOM      8  N   UNL     1       8.732   3.483  -0.367  0.00  0.00    -0.294 N 
ATOM      9  H   UNL     1       8.683   3.753   0.604  0.00  0.00    +0.163 HD
ATOM     10  H   UNL     1       9.627   3.724  -0.765  0.00  0.00    +0.163 HD
ENDBRANCH   6   8
BRANCH   1  12
ATOM     11  C   UNL     1       3.719   2.215  -1.114  0.00  0.00    +0.138 C 
ATOM     12  N   UNL     1       4.845   1.573  -1.028  0.00  0.00    -0.188 NA
BRANCH  11  15
ATOM     13  C   UNL     1       0.081   1.463  -1.642  0.00  0.00    +0.002 A 
ATOM     14  C   UNL     1       1.251   2.161  -1.432  0.00  0.00    +0.009 A 
ATOM     15  C   UNL     1       2.464   1.474  -1.338  0.00  0.00    -0.004 A 
ATOM     16  C   UNL     1       2.482   0.082  -1.459  0.00  0.00    +0.024 A 
ATOM     17  C   UNL     1       1.303  -0.604  -1.669  0.00  0.00    +0.018 A 
ATOM     18  C   UNL     1       0.105   0.085  -1.760  0.00  0.00    +0.015 A 
ATOM     19 BR   UNL     1       1.325  -2.487  -1.832  0.00  0.00    -0.050 Br
ENDBRANCH  11  15
ENDBRANCH   1  12
BRANCH   5  20
ATOM     20  S   UNL     1      11.128   1.335  -0.245  0.00  0.00    -0.077 S 
BRANCH  20  21
ATOM     21  C   UNL     1      11.771  -0.359  -0.320  0.00  0.00    +0.152 C 
BRANCH  21  22
ATOM     22  C   UNL     1      13.265  -0.339  -0.126  0.00  0.00    +0.147 C 
ATOM     23  O   UNL     1      13.837   0.711   0.046  0.00  0.00    -0.296 OA
BRANCH  22  24
ATOM     24  C   UNL     1      14.046  -1.628  -0.145  0.00  0.00    +0.062 C 
ATOM     25  C   UNL     1      13.798  -2.393   1.157  0.00  0.00    +0.000 C 
ATOM     26  C   UNL     1      14.591  -3.702   1.138  0.00  0.00    +0.007 C 
ATOM     27  C   UNL     1      16.083  -3.393   1.003  0.00  0.00    -0.010 C 
ATOM     28  C   UNL     1      16.536  -2.540   2.190  0.00  0.00    +0.007 C 
ATOM     29  C   UNL     1      15.744  -1.231   2.210  0.00  0.00    -0.010 C 
ATOM     30  C   UNL     1      14.251  -1.540   2.344  0.00  0.00    +0.007 C 
ATOM     31  C   UNL     1      15.991  -0.466   0.908  0.00  0.00    +0.007 C 
ATOM     32  C   UNL     1      15.538  -1.319  -0.279  0.00  0.00    +0.000 C 
ATOM     33  C   UNL     1      16.330  -2.627  -0.298  0.00  0.00    +0.007 C 
ENDBRANCH  22  24
ENDBRANCH  21  22
ENDBRANCH  20  21
ENDBRANCH   5  20
TORSDOF 7
