REMARK  Name = ZINC59644673
REMARK  7 active torsions:
REMARK  status: ('A' for Active; 'I' for Inactive)
REMARK    1  A    between atoms: C_6  and  C_7
REMARK    2  A    between atoms: C_7  and  O_8
REMARK    3  A    between atoms: O_8  and  C_9
REMARK    4  A    between atoms: C_12  and  C_16
REMARK    5  A    between atoms: N_17  and  N_18
REMARK    6  A    between atoms: C_19  and  C_21
REMARK    7  A    between atoms: C_21  and  C_22
REMARK                            x       y       z     vdW  Elec       q    Type
REMARK                         _______ _______ _______ _____ _____    ______ ____
ROOT
ATOM      1  C   UNL     1      -2.875  -1.699  -1.504  0.00  0.00    +0.135 A 
ATOM      2  C   UNL     1      -3.592  -2.132  -0.396  0.00  0.00    +0.047 A 
ATOM      3  C   UNL     1      -4.768  -2.830  -0.564  0.00  0.00    +0.013 A 
ATOM      4  C   UNL     1      -5.239  -3.103  -1.851  0.00  0.00    -0.004 A 
ATOM      5  C   UNL     1      -4.515  -2.666  -2.963  0.00  0.00    +0.028 A 
ATOM      6  C   UNL     1      -3.342  -1.963  -2.786  0.00  0.00    +0.060 A 
ATOM      7 BR   UNL     1      -2.364  -1.363  -4.289  0.00  0.00    -0.046 Br
ENDROOT
BRANCH   4   8
ATOM      8  C   UNL     1      -6.497  -3.849  -2.035  0.00  0.00    +0.138 C 
ATOM      9  N   UNL     1      -6.933  -4.102  -3.231  0.00  0.00    -0.188 NA
BRANCH   9  10
ATOM     10  N   UNL     1      -8.128  -4.811  -3.406  0.00  0.00    -0.207 N 
ATOM     11  C   UNL     1      -8.581  -5.073  -4.648  0.00  0.00    +0.238 C 
ATOM     12  O   UNL     1      -7.953  -4.694  -5.615  0.00  0.00    -0.274 OA
ATOM     13  H   UNL     1      -8.630  -5.114  -2.633  0.00  0.00    +0.177 HD
BRANCH  11  14
ATOM     14  C   UNL     1      -9.866  -5.837  -4.837  0.00  0.00    +0.153 C 
BRANCH  14  15
ATOM     15  C   UNL     1     -10.146  -5.995  -6.309  0.00  0.00    +0.059 A 
ATOM     16  C   UNL     1     -10.355  -7.213  -6.863  0.00  0.00    +0.072 A 
ATOM     17  S   UNL     1     -10.623  -6.762  -8.569  0.00  0.00    -0.061 S 
ATOM     18  C   UNL     1     -10.444  -5.097  -8.401  0.00  0.00    +0.156 A 
ATOM     19  N   UNL     1     -10.204  -4.950  -7.116  0.00  0.00    -0.230 NA
ATOM     20  N   UNL     1     -10.534  -4.119  -9.379  0.00  0.00    -0.338 N 
ATOM     21  H   UNL     1     -10.723  -4.366 -10.297  0.00  0.00    +0.144 HD
ATOM     22  H   UNL     1     -10.408  -3.186  -9.144  0.00  0.00    +0.144 HD
ENDBRANCH  14  15
ENDBRANCH  11  14
ENDBRANCH   9  10
ENDBRANCH   4   8
BRANCH   1  23
ATOM     23  O   UNL     1      -1.716  -1.011  -1.334  0.00  0.00    -0.486 OA
BRANCH  23  24
ATOM     24  C   UNL     1      -1.293  -0.775   0.011  0.00  0.00    +0.264 C 
BRANCH  24  30
ATOM     25  C   UNL     1      -0.017   1.378   0.010  0.00  0.00    +0.008 A 
ATOM     26  C   UNL     1       1.171   2.086   0.002  0.00  0.00    +0.022 A 
ATOM     27  C   UNL     1       2.378   1.412  -0.013  0.00  0.00    +0.059 A 
ATOM     28  C   UNL     1       2.397   0.027  -0.021  0.00  0.00    +0.060 A 
ATOM     29  C   UNL     1       1.208  -0.680  -0.013  0.00  0.00    +0.028 A 
ATOM     30  C   UNL     1       0.002  -0.004   0.002  0.00  0.00    -0.009 A 
ATOM     31 CL   UNL     1       3.912  -0.821  -0.040  0.00  0.00    -0.082 Cl
ATOM     32 CL   UNL     1       3.869   2.301  -0.023  0.00  0.00    -0.082 Cl
ENDBRANCH  24  30
ENDBRANCH  23  24
ENDBRANCH   1  23
TORSDOF 7
