REMARK  Name = ZINC60210863
REMARK  12 active torsions:
REMARK  status: ('A' for Active; 'I' for Inactive)
REMARK    1  A    between atoms: C_1  and  C_2
REMARK    2  A    between atoms: C_2  and  C_3
REMARK    3  A    between atoms: C_2  and  C_4
REMARK    4  A    between atoms: C_4  and  C_5
REMARK    5  A    between atoms: C_5  and  C_7
REMARK    6  A    between atoms: C_5  and  N_21
REMARK    7  A    between atoms: N_9  and  C_10
REMARK    8  A    between atoms: C_10  and  C_11
REMARK    9  A    between atoms: N_16  and  C_18
REMARK   10  A    between atoms: C_18  and  C_19
REMARK   11  A    between atoms: C_18  and  C_20
REMARK   12  A    between atoms: C_22  and  C_24
REMARK                            x       y       z     vdW  Elec       q    Type
REMARK                         _______ _______ _______ _____ _____    ______ ____
ROOT
ATOM      1  C   UNL     1      -1.835  -1.367  -0.910  0.00  0.00    +0.159 C 
ENDROOT
BRANCH   1   2
ATOM      2  C   UNL     1      -3.290  -1.555  -1.258  0.00  0.00    +0.233 C 
ATOM      3  O   UNL     1      -3.859  -2.580  -0.948  0.00  0.00    -0.274 OA
ATOM      4  N   UNL     1      -3.957  -0.585  -1.913  0.00  0.00    -0.314 N 
ATOM      5  H   UNL     1      -3.502   0.235  -2.160  0.00  0.00    +0.149 HD
BRANCH   4   6
ATOM      6  C   UNL     1      -5.371  -0.768  -2.251  0.00  0.00    +0.106 C 
BRANCH   6   7
ATOM      7  C   UNL     1      -5.884   0.472  -2.986  0.00  0.00    -0.011 C 
ATOM      8  C   UNL     1      -5.163   0.605  -4.330  0.00  0.00    +0.001 C 
ATOM      9  C   UNL     1      -5.739   1.802  -5.091  0.00  0.00    -0.018 C 
ATOM     10  C   UNL     1      -7.248   1.615  -5.259  0.00  0.00    -0.078 C 
ATOM     11  N   UNL     1      -7.883   1.521  -3.939  0.00  0.00    +0.381 N 
ATOM     12  C   UNL     1      -7.388   0.334  -3.231  0.00  0.00    -0.074 C 
ATOM     13  H   UNL     1      -7.664   2.347  -3.402  0.00  0.00    -0.081 HD
BRANCH  11  14
ATOM     14  C   UNL     1      -9.339   1.419  -4.104  0.00  0.00    -0.075 C 
ATOM     15  C   UNL     1     -10.003   1.321  -2.729  0.00  0.00    -0.014 C 
ATOM     16  C   UNL     1      -9.858   2.661  -4.833  0.00  0.00    -0.014 C 
ENDBRANCH  11  14
ENDBRANCH   6   7
ENDBRANCH   4   6
ENDBRANCH   1   2
BRANCH   1  17
ATOM     17  N   UNL     1      -1.339  -2.562  -0.224  0.00  0.00    -0.300 N 
ATOM     18  C   UNL     1      -0.021  -2.848  -0.237  0.00  0.00    +0.246 C 
ATOM     19  O   UNL     1       0.765  -2.065  -0.733  0.00  0.00    -0.270 OA
ATOM     20  H   UNL     1      -1.957  -3.148   0.239  0.00  0.00    +0.150 HD
BRANCH  18  21
ATOM     21  C   UNL     1       0.466  -4.111   0.352  0.00  0.00    +0.055 A 
ATOM     22  C   UNL     1      -0.436  -5.015   0.918  0.00  0.00    +0.016 A 
ATOM     23  C   UNL     1       0.025  -6.193   1.466  0.00  0.00    +0.021 A 
ATOM     24  C   UNL     1       1.380  -6.482   1.458  0.00  0.00    +0.042 A 
ATOM     25  C   UNL     1       2.281  -5.590   0.899  0.00  0.00    +0.040 A 
ATOM     26  C   UNL     1       1.831  -4.410   0.341  0.00  0.00    +0.054 A 
ATOM     27 CL   UNL     1       2.960  -3.297  -0.366  0.00  0.00    -0.083 Cl
ATOM     28 CL   UNL     1       1.952  -7.967   2.151  0.00  0.00    -0.083 Cl
ENDBRANCH  18  21
ENDBRANCH   1  17
BRANCH   1  29
ATOM     29  C   UNL     1      -1.684  -0.152   0.008  0.00  0.00    +0.034 C 
BRANCH  29  31
ATOM     30  C   UNL     1      -2.048   0.684   2.334  0.00  0.00    +0.007 C 
ATOM     31  C   UNL     1      -2.386  -0.428   1.339  0.00  0.00    -0.015 C 
ATOM     32  C   UNL     1      -3.899  -0.472   1.118  0.00  0.00    +0.007 C 
ENDBRANCH  29  31
ENDBRANCH   1  29
TORSDOF 8
