REMARK  Name = ZINC03663693
REMARK  9 active torsions:
REMARK  status: ('A' for Active; 'I' for Inactive)
REMARK    1  A    between atoms: C_1  and  C_2
REMARK    2  A    between atoms: C_2  and  N_46
REMARK    3  A    between atoms: C_3  and  C_4
REMARK    4  A    between atoms: C_3  and  N_46
REMARK    5  A    between atoms: C_5  and  C_6
REMARK    6  A    between atoms: C_5  and  N_46
REMARK    7  A    between atoms: C_7  and  C_17
REMARK    8  A    between atoms: N_19  and  N_20
REMARK    9  A    between atoms: C_21  and  C_22
REMARK                            x       y       z     vdW  Elec       q    Type
REMARK                         _______ _______ _______ _____ _____    ______ ____
ROOT
ATOM      1  C   UNL     1       1.036   2.175   0.055  0.00  0.00    +0.063 A 
ATOM      2  C   UNL     1      -0.009   1.295   0.030  0.00  0.00    +0.170 A 
ATOM      3  N   UNL     1      -1.156   1.994   0.075  0.00  0.00    -0.124 NA
ATOM      4  N   UNL     1      -0.893   3.253   0.135  0.00  0.00    -0.058 NA
ATOM      5  N   UNL     1       0.500   3.415   0.121  0.00  0.00    -0.194 N 
ATOM      6  C   UNL     1       1.200   4.625   0.167  0.00  0.00    +0.240 A 
ATOM      7  C   UNL     1       0.601   5.961   0.238  0.00  0.00    +0.206 A 
ATOM      8  N   UNL     1       1.563   6.842   0.264  0.00  0.00    -0.032 NA
ATOM      9  O   UNL     1       2.794   6.141   0.213  0.00  0.00    -0.239 OA
ATOM     10  N   UNL     1       2.497   4.757   0.159  0.00  0.00    -0.027 NA
ATOM     11  N   UNL     1      -0.760   6.242   0.271  0.00  0.00    -0.337 N 
ATOM     12  H   UNL     1      -1.405   5.518   0.247  0.00  0.00    +0.144 HD
ATOM     13  H   UNL     1      -1.065   7.161   0.318  0.00  0.00    +0.144 HD
ENDROOT
BRANCH   2  14
ATOM     14  C   UNL     1       0.103  -0.174  -0.039  0.00  0.00    +0.285 C 
ATOM     15  O   UNL     1       1.200  -0.699  -0.081  0.00  0.00    -0.267 OA
ATOM     16  N   UNL     1      -1.009  -0.934  -0.057  0.00  0.00    -0.202 N 
ATOM     17  H   UNL     1      -1.883  -0.516  -0.024  0.00  0.00    +0.178 HD
BRANCH  16  18
ATOM     18  N   UNL     1      -0.902  -2.330  -0.124  0.00  0.00    -0.187 NA
ATOM     19  C   UNL     1      -1.976  -3.064  -0.141  0.00  0.00    +0.145 C 
BRANCH  19  20
ATOM     20  C   UNL     1      -1.865  -4.524  -0.210  0.00  0.00    +0.033 A 
ATOM     21  C   UNL     1      -2.870  -5.476  -0.239  0.00  0.00    +0.018 A 
ATOM     22  C   UNL     1      -2.512  -6.802  -0.306  0.00  0.00    +0.023 A 
ATOM     23  C   UNL     1      -1.194  -7.135  -0.342  0.00  0.00    +0.055 A 
ATOM     24  S   UNL     1      -0.398  -5.539  -0.288  0.00  0.00    -0.080 S 
ATOM     25 BR   UNL     1      -0.406  -8.852  -0.434  0.00  0.00    -0.043 Br
ENDBRANCH  19  20
ENDBRANCH  16  18
ENDBRANCH   2  14
BRANCH   1  26
ATOM     26  C   UNL     1       2.502   1.831   0.016  0.00  0.00    -0.020 C 
BRANCH  26  27
ATOM     27  N   UNL     1       3.030   1.842   1.397  0.00  0.00    +0.383 N 
ATOM     28  H   UNL     1       2.707   2.694   1.870  0.00  0.00    -0.081 HD
BRANCH  27  30
ATOM     29  C   UNL     1       2.906   0.815   3.613  0.00  0.00    -0.017 C 
ATOM     30  C   UNL     1       2.534   0.663   2.137  0.00  0.00    -0.082 C 
ENDBRANCH  27  30
BRANCH  27  31
ATOM     31  C   UNL     1       4.508   1.838   1.373  0.00  0.00    -0.082 C 
ATOM     32  C   UNL     1       4.997   3.251   1.046  0.00  0.00    -0.017 C 
ENDBRANCH  27  31
ENDBRANCH  26  27
ENDBRANCH   1  26
TORSDOF 7
