REMARK  Name = ZINC21595459
REMARK  8 active torsions:
REMARK  status: ('A' for Active; 'I' for Inactive)
REMARK    1  A    between atoms: C_1  and  C_2
REMARK    2  A    between atoms: C_2  and  C_3
REMARK    3  A    between atoms: C_11  and  N_15
REMARK    4  A    between atoms: N_15  and  C_16
REMARK    5  A    between atoms: C_16  and  N_18
REMARK    6  A    between atoms: C_19  and  C_21
REMARK    7  A    between atoms: C_23  and  N_33
REMARK    8  A    between atoms: C_26  and  N_27
REMARK                            x       y       z     vdW  Elec       q    Type
REMARK                         _______ _______ _______ _____ _____    ______ ____
ROOT
ATOM      1  C   UNL     1      -8.076  -3.325  -0.080  0.00  0.00    +0.141 C 
ATOM      2  S   UNL     1      -6.798  -4.464  -0.091  0.00  0.00    -0.018 S 
ENDROOT
BRANCH   1   3
ATOM      3  N   UNL     1      -9.353  -3.744  -0.178  0.00  0.00    -0.264 N 
ATOM      4  C   UNL     1      -9.624  -5.060  -0.285  0.00  0.00    +0.251 C 
ATOM      5  O   UNL     1      -8.716  -5.869  -0.293  0.00  0.00    -0.270 OA
ATOM      6  H   UNL     1     -10.174  -3.012  -0.171  0.00  0.00    +0.157 HD
BRANCH   4   7
ATOM      7  C   UNL     1     -11.020  -5.518  -0.393  0.00  0.00    +0.060 A 
ATOM      8  C   UNL     1     -12.067  -4.592  -0.384  0.00  0.00    +0.047 A 
ATOM      9  C   UNL     1     -13.370  -5.027  -0.485  0.00  0.00    +0.127 A 
ATOM     10  C   UNL     1     -13.650  -6.380  -0.597  0.00  0.00    +0.034 A 
ATOM     11  C   UNL     1     -12.628  -7.307  -0.607  0.00  0.00    +0.026 A 
ATOM     12  C   UNL     1     -11.307  -6.887  -0.510  0.00  0.00    +0.042 A 
BRANCH  12  13
ATOM     13  N   UNL     1     -10.276  -7.818  -0.526  0.00  0.00    -0.325 N 
ATOM     14  C   UNL     1     -10.228  -8.529  -1.812  0.00  0.00    +0.133 C 
ATOM     15  C   UNL     1      -9.044  -9.500  -1.808  0.00  0.00    +0.178 C 
ATOM     16  O   UNL     1      -9.171 -10.394  -0.699  0.00  0.00    -0.377 OA
ATOM     17  C   UNL     1      -9.220  -9.735   0.569  0.00  0.00    +0.178 C 
ATOM     18  C   UNL     1     -10.406  -8.766   0.590  0.00  0.00    +0.133 C 
ENDBRANCH  12  13
BRANCH   9  19
ATOM     19  N   UNL     1     -14.477  -4.044  -0.476  0.00  0.00    +0.056 N 
ATOM     20  O   UNL     1     -14.234  -2.855  -0.379  0.00  0.00    -0.126 OA
ATOM     21  O   UNL     1     -15.630  -4.425  -0.565  0.00  0.00    -0.126 OA
ENDBRANCH   9  19
ENDBRANCH   4   7
ENDBRANCH   1   3
BRANCH   1  22
ATOM     22  N   UNL     1      -7.805  -2.009   0.028  0.00  0.00    -0.297 N 
ATOM     23  H   UNL     1      -8.627  -1.284   0.127  0.00  0.00    +0.154 HD
BRANCH  22  32
ATOM     24  C   UNL     1       0.290   0.283  -0.484  0.00  0.00    +0.218 C 
ATOM     25  O   UNL     1      -0.301   0.914   0.367  0.00  0.00    -0.275 OA
ATOM     26  N   UNL     1      -0.362  -0.650  -1.205  0.00  0.00    -0.265 N 
ATOM     27  C   UNL     1      -1.707  -0.888  -0.975  0.00  0.00    +0.165 A 
ATOM     28  N   UNL     1      -2.509  -0.314  -0.110  0.00  0.00    -0.225 NA
ATOM     29  C   UNL     1      -3.813  -0.650   0.007  0.00  0.00    +0.080 A 
ATOM     30  C   UNL     1      -4.776  -0.112   0.892  0.00  0.00    +0.031 A 
ATOM     31  C   UNL     1      -6.059  -0.562   0.886  0.00  0.00    +0.025 A 
ATOM     32  C   UNL     1      -6.477  -1.564   0.013  0.00  0.00    +0.034 A 
ATOM     33  C   UNL     1      -5.560  -2.117  -0.872  0.00  0.00    +0.040 A 
ATOM     34  C   UNL     1      -4.264  -1.665  -0.867  0.00  0.00    +0.043 A 
ATOM     35  S   UNL     1      -2.794  -2.051  -1.788  0.00  0.00    -0.052 S 
ATOM     36  H   UNL     1       0.174  -1.222  -1.977  0.00  0.00    +0.157 HD
BRANCH  24  38
ATOM     37  C   UNL     1       2.248   1.633   0.220  0.00  0.00    +0.013 C 
ATOM     38  C   UNL     1       1.755   0.539  -0.730  0.00  0.00    +0.093 C 
ENDBRANCH  24  38
ENDBRANCH  22  32
ENDBRANCH   1  22
TORSDOF 7
