REMARK  Name = ZINC12325475
REMARK  6 active torsions:
REMARK  status: ('A' for Active; 'I' for Inactive)
REMARK    1  A    between atoms: C_1  and  C_2
REMARK    2  A    between atoms: C_11  and  C_12
REMARK    3  A    between atoms: C_18  and  C_20
REMARK    4  A    between atoms: C_18  and  O_28
REMARK    5  A    between atoms: C_25  and  O_26
REMARK    6  A    between atoms: O_26  and  C_27
REMARK                            x       y       z     vdW  Elec       q    Type
REMARK                         _______ _______ _______ _____ _____    ______ ____
ROOT
ATOM      1  C   UNL     1       0.331  -1.356   2.016  0.00  0.00    +0.263 C 
ATOM      2  O   UNL     1      -0.455  -2.084   1.441  0.00  0.00    -0.268 OA
ATOM      3  N   UNL     1       0.406  -0.051   1.687  0.00  0.00    -0.293 N 
ATOM      4  C   UNL     1       1.260   0.867   2.454  0.00  0.00    +0.108 C 
ATOM      5  C   UNL     1       0.413   2.057   2.916  0.00  0.00    +0.022 C 
ATOM      6  C   UNL     1      -0.267   2.696   1.703  0.00  0.00    +0.043 C 
ATOM      7  C   UNL     1      -1.192   1.674   1.038  0.00  0.00    +0.110 C 
ATOM      8  C   UNL     1      -0.363   0.480   0.554  0.00  0.00    +0.147 C 
ENDROOT
BRANCH   1  19
ATOM      9  C   UNL     1      -0.491  -3.546   4.050  0.00  0.00    +0.047 C 
ATOM     10  C   UNL     1       0.847  -2.858   3.966  0.00  0.00    -0.013 A 
ATOM     11  C   UNL     1       1.963  -3.099   4.803  0.00  0.00    +0.003 A 
ATOM     12  C   UNL     1       2.188  -3.964   5.882  0.00  0.00    +0.010 A 
ATOM     13  C   UNL     1       3.399  -3.964   6.511  0.00  0.00    +0.001 A 
ATOM     14  C   UNL     1       4.414  -3.114   6.091  0.00  0.00    +0.002 A 
ATOM     15  C   UNL     1       4.218  -2.255   5.033  0.00  0.00    +0.026 A 
ATOM     16  C   UNL     1       2.991  -2.236   4.376  0.00  0.00    +0.047 A 
ATOM     17  N   UNL     1       2.503  -1.510   3.315  0.00  0.00    -0.350 N 
ATOM     18  H   UNL     1       2.993  -0.836   2.819  0.00  0.00    +0.166 HD
ATOM     19  C   UNL     1       1.200  -1.899   3.071  0.00  0.00    +0.106 A 
ENDBRANCH   1  19
BRANCH   7  20
ATOM     20  C   UNL     1      -1.886   2.314  -0.137  0.00  0.00    +0.027 A 
ATOM     21  C   UNL     1      -3.265   2.384  -0.172  0.00  0.00    +0.010 A 
ATOM     22  C   UNL     1      -3.902   2.975  -1.247  0.00  0.00    +0.001 A 
ATOM     23  C   UNL     1      -3.161   3.489  -2.295  0.00  0.00    +0.004 A 
ATOM     24  C   UNL     1      -1.782   3.417  -2.268  0.00  0.00    +0.046 A 
ATOM     25  C   UNL     1      -1.140   2.829  -1.188  0.00  0.00    +0.126 A 
BRANCH  25  26
ATOM     26  O   UNL     1       0.217   2.757  -1.158  0.00  0.00    -0.495 OA
ATOM     27  C   UNL     1       0.920   3.307  -2.274  0.00  0.00    +0.277 C 
ENDBRANCH  25  26
ENDBRANCH   7  20
BRANCH   7  28
ATOM     28  O   UNL     1      -2.167   1.227   1.982  0.00  0.00    -0.382 OA
ATOM     29  H   UNL     1      -2.787   0.574   1.628  0.00  0.00    +0.211 HD
ENDBRANCH   7  28
TORSDOF 4
