REMARK  Name = ZINC12130903
REMARK  9 active torsions:
REMARK  status: ('A' for Active; 'I' for Inactive)
REMARK    1  A    between atoms: C_1  and  N_67
REMARK    2  A    between atoms: C_2  and  N_67
REMARK    3  A    between atoms: C_3  and  C_4
REMARK    4  A    between atoms: C_3  and  N_67
REMARK    5  A    between atoms: C_4  and  N_5
REMARK    6  A    between atoms: C_16  and  N_69
REMARK    7  A    between atoms: C_20  and  C_21
REMARK    8  A    between atoms: C_20  and  N_69
REMARK    9  A    between atoms: C_21  and  C_27
REMARK                            x       y       z     vdW  Elec       q    Type
REMARK                         _______ _______ _______ _____ _____    ______ ____
ROOT
ATOM      1  N   UNL     1       5.225   3.469   1.915  0.00  0.00    -0.301 N 
ATOM      2  C   UNL     1       5.723   2.715   2.925  0.00  0.00    +0.203 A 
ATOM      3  N   UNL     1       5.140   1.618   3.355  0.00  0.00    -0.230 NA
ATOM      4  C   UNL     1       4.011   1.250   2.756  0.00  0.00    +0.116 A 
ATOM      5  C   UNL     1       3.414   1.968   1.696  0.00  0.00    +0.076 A 
ATOM      6  C   UNL     1       4.082   3.160   1.257  0.00  0.00    +0.262 A 
ATOM      7  O   UNL     1       3.649   3.849   0.350  0.00  0.00    -0.267 OA
ATOM      8  C   UNL     1       2.181   1.415   1.164  0.00  0.00    -0.023 A 
ATOM      9  C   UNL     1       1.731   0.273   1.735  0.00  0.00    -0.006 A 
ATOM     10  S   UNL     1       2.919  -0.114   2.997  0.00  0.00    -0.073 S 
ATOM     11  C   UNL     1       0.497  -0.495   1.377  0.00  0.00    +0.027 C 
ATOM     12  C   UNL     1      -0.003  -0.002   0.011  0.00  0.00    -0.067 C 
ATOM     13  C   UNL     1      -0.023   1.529   0.020  0.00  0.00    -0.011 C 
ATOM     14  C   UNL     1       1.409   2.066   0.020  0.00  0.00    +0.035 C 
ENDROOT
BRANCH  12  15
ATOM     15  N   UNL     1      -1.369  -0.505  -0.227  0.00  0.00    +0.382 N 
ATOM     16  H   UNL     1      -1.857   0.130  -0.869  0.00  0.00    -0.085 HD
ATOM     17  H   UNL     1      -1.876  -0.546   0.665  0.00  0.00    -0.085 HD
BRANCH  15  18
ATOM     18  C   UNL     1      -1.321  -1.855  -0.821  0.00  0.00    -0.071 C 
BRANCH  18  19
ATOM     19  C   UNL     1      -2.745  -2.405  -0.930  0.00  0.00    -0.019 C 
ATOM     20  C   UNL     1      -2.696  -3.851  -1.428  0.00  0.00    +0.010 C 
ATOM     21  C   UNL     1      -2.025  -3.894  -2.803  0.00  0.00    +0.001 C 
ATOM     22  C   UNL     1      -2.828  -3.042  -3.789  0.00  0.00    +0.000 C 
ATOM     23  C   UNL     1      -2.877  -1.597  -3.291  0.00  0.00    +0.001 C 
ATOM     24  C   UNL     1      -3.547  -1.553  -1.916  0.00  0.00    +0.010 C 
BRANCH  19  25
ATOM     25  C   UNL     1      -3.405  -2.362   0.424  0.00  0.00    -0.043 A 
ATOM     26  C   UNL     1      -4.609  -1.703   0.585  0.00  0.00    +0.004 A 
ATOM     27  C   UNL     1      -5.217  -1.667   1.826  0.00  0.00    +0.000 A 
ATOM     28  C   UNL     1      -4.616  -2.284   2.908  0.00  0.00    +0.000 A 
ATOM     29  C   UNL     1      -3.409  -2.939   2.748  0.00  0.00    +0.000 A 
ATOM     30  C   UNL     1      -2.804  -2.978   1.505  0.00  0.00    +0.004 A 
ENDBRANCH  19  25
ENDBRANCH  18  19
ENDBRANCH  15  18
ENDBRANCH  12  15
BRANCH   1  31
ATOM     31  C   UNL     1       5.957   4.673   1.516  0.00  0.00    +0.108 C 
BRANCH  31  32
ATOM     32  C   UNL     1       5.454   5.868   2.329  0.00  0.00    -0.058 C 
BRANCH  32  35
ATOM     33  C   UNL     1       5.879   7.444   0.540  0.00  0.00    -0.097 C 
ATOM     34  C   UNL     1       5.905   8.191   2.844  0.00  0.00    -0.097 C 
ATOM     35  N   UNL     1       6.215   7.071   1.931  0.00  0.00    +0.377 N 
ATOM     36  H   UNL     1       7.219   6.863   1.987  0.00  0.00    -0.083 HD
ENDBRANCH  32  35
ENDBRANCH  31  32
ENDBRANCH   1  31
TORSDOF 7
