REMARK  Name = ZINC01327671
REMARK  5 active torsions:
REMARK  status: ('A' for Active; 'I' for Inactive)
REMARK    1  A    between atoms: C_8  and  C_10
REMARK    2  A    between atoms: N_13  and  S_16
REMARK    3  A    between atoms: S_16  and  C_19
REMARK    4  A    between atoms: C_22  and  S_25
REMARK    5  A    between atoms: S_25  and  N_28
REMARK                            x       y       z     vdW  Elec       q    Type
REMARK                         _______ _______ _______ _____ _____    ______ ____
ROOT
ATOM      1  S   UNL     1      -0.315   3.997   2.435  0.00  0.00    +0.061 S 
ATOM      2  O   UNL     1       0.679   3.247   3.121  0.00  0.00    -0.153 OA
ATOM      3  O   UNL     1      -0.053   5.278   1.877  0.00  0.00    -0.153 OA
ENDROOT
BRANCH   1   7
ATOM      4  C   UNL     1      -0.754   1.593  -1.231  0.00  0.00    +0.047 C 
ATOM      5  C   UNL     1      -0.013   1.086   0.008  0.00  0.00    +0.027 C 
ATOM      6  C   UNL     1      -0.731   1.581   1.267  0.00  0.00    +0.110 C 
ATOM      7  N   UNL     1      -0.858   3.043   1.196  0.00  0.00    -0.177 NA
ATOM      8  C   UNL     1      -1.474   3.642   0.004  0.00  0.00    +0.110 C 
ATOM      9  C   UNL     1      -0.747   3.124  -1.240  0.00  0.00    +0.027 C 
BRANCH   4  17
ATOM     10  C   UNL     1       0.658  -1.164  -6.569  0.00  0.00    +0.002 A 
ATOM     11  C   UNL     1       1.960  -0.684  -6.553  0.00  0.00    +0.001 A 
ATOM     12  C   UNL     1       2.378   0.110  -5.501  0.00  0.00    +0.017 A 
ATOM     13  C   UNL     1       1.496   0.409  -4.491  0.00  0.00    +0.039 A 
ATOM     14  C   UNL     1       0.165  -0.065  -4.482  0.00  0.00    +0.078 A 
ATOM     15  C   UNL     1      -0.223  -0.873  -5.574  0.00  0.00    +0.029 A 
ATOM     16  N   UNL     1      -0.561   0.327  -3.414  0.00  0.00    -0.244 NA
ATOM     17  C   UNL     1      -0.069   1.081  -2.471  0.00  0.00    +0.083 A 
ATOM     18  S   UNL     1       1.564   1.358  -2.993  0.00  0.00    -0.072 S 
ENDBRANCH   4  17
ENDBRANCH   1   7
BRANCH   1  19
ATOM     19  C   UNL     1      -1.655   4.203   3.560  0.00  0.00    +0.106 A 
ATOM     20  C   UNL     1      -2.529   5.263   3.407  0.00  0.00    +0.030 A 
ATOM     21  C   UNL     1      -3.584   5.422   4.287  0.00  0.00    +0.030 A 
ATOM     22  C   UNL     1      -3.759   4.527   5.325  0.00  0.00    +0.106 A 
ATOM     23  C   UNL     1      -2.881   3.470   5.481  0.00  0.00    +0.030 A 
ATOM     24  C   UNL     1      -1.829   3.308   4.599  0.00  0.00    +0.030 A 
BRANCH  22  25
ATOM     25  S   UNL     1      -5.100   4.732   6.449  0.00  0.00    +0.061 S 
ATOM     26  O   UNL     1      -6.093   5.483   5.764  0.00  0.00    -0.153 OA
ATOM     27  O   UNL     1      -5.362   3.451   7.006  0.00  0.00    -0.153 OA
BRANCH  25  28
ATOM     28  N   UNL     1      -4.558   5.686   7.690  0.00  0.00    -0.177 NA
ATOM     29  C   UNL     1      -3.964   5.050   8.844  0.00  0.00    +0.109 C 
ATOM     30  C   UNL     1      -5.056   4.723   9.884  0.00  0.00    +0.017 C 
ATOM     31  C   UNL     1      -5.548   5.958  10.513  0.00  0.00    +0.001 C 
ATOM     32  C   UNL     1      -6.221   6.930   9.548  0.00  0.00    +0.001 C 
ATOM     33  C   UNL     1      -5.171   7.792   8.893  0.00  0.00    +0.017 C 
ATOM     34  C   UNL     1      -4.706   7.150   7.573  0.00  0.00    +0.109 C 
ENDBRANCH  25  28
ENDBRANCH  22  25
ENDBRANCH   1  19
TORSDOF 5
