REMARK  Name = ZINC66660135
REMARK  5 active torsions:
REMARK  status: ('A' for Active; 'I' for Inactive)
REMARK    1  A    between atoms: C_6  and  C_7
REMARK    2  A    between atoms: C_7  and  N_8
REMARK    3  A    between atoms: N_11  and  C_12
REMARK    4  A    between atoms: C_12  and  C_13
REMARK    5  A    between atoms: C_18  and  N_21
REMARK                            x       y       z     vdW  Elec       q    Type
REMARK                         _______ _______ _______ _____ _____    ______ ____
ROOT
ATOM      1  N   UNL     1      -1.726  -1.017  -1.368  0.00  0.00    -0.295 N 
ATOM      2  C   UNL     1      -2.867  -1.694  -1.606  0.00  0.00    +0.300 C 
ATOM      3  O   UNL     1      -3.537  -2.103  -0.678  0.00  0.00    -0.253 OA
ATOM      4  N   UNL     1      -3.266  -1.917  -2.874  0.00  0.00    -0.291 N 
ATOM      5  H   UNL     1      -1.192  -0.691  -2.108  0.00  0.00    +0.151 HD
ATOM      6  H   UNL     1      -2.731  -1.590  -3.615  0.00  0.00    +0.151 HD
ENDROOT
BRANCH   1   7
ATOM      7  C   UNL     1      -1.293  -0.775   0.011  0.00  0.00    +0.141 C 
BRANCH   7  13
ATOM      8  C   UNL     1      -0.017   1.378   0.010  0.00  0.00    +0.006 A 
ATOM      9  C   UNL     1       1.171   2.086   0.002  0.00  0.00    +0.020 A 
ATOM     10  C   UNL     1       2.378   1.410  -0.013  0.00  0.00    +0.041 A 
ATOM     11  C   UNL     1       2.396   0.027  -0.021  0.00  0.00    +0.020 A 
ATOM     12  C   UNL     1       1.208  -0.679  -0.013  0.00  0.00    +0.006 A 
ATOM     13  C   UNL     1       0.002  -0.004   0.002  0.00  0.00    -0.030 A 
ATOM     14 CL   UNL     1       3.870   2.298  -0.023  0.00  0.00    -0.084 Cl
ENDBRANCH   7  13
ENDBRANCH   1   7
BRANCH   4  15
ATOM     15  C   UNL     1      -4.506  -2.652  -3.134  0.00  0.00    +0.201 C 
BRANCH  15  16
ATOM     16  C   UNL     1      -4.722  -2.764  -4.621  0.00  0.00    +0.233 C 
ATOM     17  O   UNL     1      -3.919  -2.277  -5.389  0.00  0.00    -0.274 OA
ATOM     18  N   UNL     1      -5.807  -3.405  -5.098  0.00  0.00    -0.302 N 
ATOM     19  C   UNL     1      -6.859  -4.032  -4.284  0.00  0.00    +0.106 C 
ATOM     20  C   UNL     1      -7.905  -4.615  -5.257  0.00  0.00    +0.005 C 
ATOM     21  C   UNL     1      -7.674  -3.790  -6.551  0.00  0.00    -0.049 C 
ATOM     22  C   UNL     1      -6.141  -3.587  -6.522  0.00  0.00    +0.092 C 
BRANCH  21  23
ATOM     23  N   UNL     1      -8.086  -4.548  -7.739  0.00  0.00    +0.383 N 
ATOM     24  C   UNL     1      -9.553  -4.784  -7.714  0.00  0.00    -0.078 C 
ATOM     25  C   UNL     1      -9.895  -5.051  -9.201  0.00  0.00    -0.020 C 
ATOM     26  C   UNL     1      -8.965  -4.070  -9.951  0.00  0.00    -0.020 C 
ATOM     27  C   UNL     1      -7.825  -3.760  -8.963  0.00  0.00    -0.078 C 
ATOM     28  H   UNL     1      -7.593  -5.428  -7.780  0.00  0.00    -0.081 HD
ENDBRANCH  21  23
ENDBRANCH  15  16
ENDBRANCH   4  15
TORSDOF 5
