REMARK  Name = ZINC09009726
REMARK  5 active torsions:
REMARK  status: ('A' for Active; 'I' for Inactive)
REMARK    1  A    between atoms: C_4  and  C_7
REMARK    2  A    between atoms: C_8  and  C_25
REMARK    3  A    between atoms: C_8  and  C_29
REMARK    4  A    between atoms: N_14  and  C_17
REMARK    5  A    between atoms: C_17  and  C_18
REMARK                            x       y       z     vdW  Elec       q    Type
REMARK                         _______ _______ _______ _____ _____    ______ ____
ROOT
ATOM      1  C   UNL     1      -2.172  -1.145   4.250  0.00  0.00    +0.106 C 
ATOM      2  C   UNL     1      -3.888   0.488   4.740  0.00  0.00    +0.264 C 
ATOM      3  C   UNL     1      -3.485   1.133   3.445  0.00  0.00    +0.098 A 
ATOM      4  C   UNL     1      -4.007   2.390   3.079  0.00  0.00    +0.262 A 
ATOM      5  O   UNL     1      -4.786   2.973   3.819  0.00  0.00    -0.267 OA
ATOM      6  N   UNL     1      -3.641   2.943   1.910  0.00  0.00    -0.275 N 
ATOM      7  C   UNL     1      -2.804   2.332   1.104  0.00  0.00    +0.331 A 
ATOM      8  N   UNL     1      -2.275   1.120   1.422  0.00  0.00    -0.275 N 
ATOM      9  C   UNL     1      -2.618   0.512   2.598  0.00  0.00    +0.120 A 
ATOM     10  N   UNL     1      -2.091  -0.714   2.941  0.00  0.00    -0.286 N 
ATOM     11  O   UNL     1      -2.462   2.917  -0.062  0.00  0.00    -0.246 OA
ATOM     12  H   UNL     1      -1.666  -1.270   2.268  0.00  0.00    +0.155 HD
ATOM     13  H   UNL     1      -4.013   3.834   1.650  0.00  0.00    +0.173 HD
ATOM     14  N   UNL     1      -2.993  -0.638   5.176  0.00  0.00    -0.348 N 
ATOM     15  H   UNL     1      -3.012  -1.000   6.137  0.00  0.00    +0.162 HD
ENDROOT
BRANCH   1  19
ATOM     16  C   UNL     1       0.334  -4.321   5.549  0.00  0.00    +0.000 A 
ATOM     17  C   UNL     1      -0.549  -3.733   6.437  0.00  0.00    +0.001 A 
ATOM     18  C   UNL     1      -1.365  -2.701   6.021  0.00  0.00    +0.011 A 
ATOM     19  C   UNL     1      -1.299  -2.251   4.703  0.00  0.00    +0.013 A 
ATOM     20  C   UNL     1      -0.410  -2.852   3.811  0.00  0.00    +0.011 A 
ATOM     21  C   UNL     1       0.404  -3.879   4.240  0.00  0.00    +0.001 A 
ENDBRANCH   1  19
BRANCH   2  22
ATOM     22  C   UNL     1      -3.872   1.541   5.850  0.00  0.00    +0.426 C 
ATOM     23  F   UNL     1      -4.993   2.368   5.724  0.00  0.00    -0.167 F 
ATOM     24  F   UNL     1      -3.899   0.905   7.096  0.00  0.00    -0.167 F 
ATOM     25  F   UNL     1      -2.709   2.312   5.745  0.00  0.00    -0.167 F 
ENDBRANCH   2  22
BRANCH   2  26
ATOM     26  C   UNL     1      -5.305  -0.070   4.602  0.00  0.00    +0.426 C 
ATOM     27  F   UNL     1      -5.334  -1.020   3.574  0.00  0.00    -0.167 F 
ATOM     28  F   UNL     1      -5.688  -0.674   5.804  0.00  0.00    -0.167 F 
ATOM     29  F   UNL     1      -6.189   0.971   4.300  0.00  0.00    -0.167 F 
ENDBRANCH   2  26
BRANCH   8  30
ATOM     30  C   UNL     1      -1.343   0.463   0.502  0.00  0.00    +0.183 C 
BRANCH  30  31
ATOM     31  C   UNL     1       0.066   0.882   0.831  0.00  0.00    +0.061 A 
ATOM     32  C   UNL     1       1.023  -0.081   1.091  0.00  0.00    +0.025 A 
ATOM     33  C   UNL     1       2.318   0.315   1.387  0.00  0.00    +0.003 A 
ATOM     34  C   UNL     1       2.603   1.672   1.416  0.00  0.00    +0.020 A 
ATOM     35  C   UNL     1       1.593   2.577   1.151  0.00  0.00    +0.111 A 
ATOM     36  N   UNL     1       0.372   2.164   0.873  0.00  0.00    -0.258 NA
ENDBRANCH  30  31
ENDBRANCH   8  30
TORSDOF 5
