REMARK  Name = ZINC06134595
REMARK  16 active torsions:
REMARK  status: ('A' for Active; 'I' for Inactive)
REMARK    1  A    between atoms: C_1  and  C_2
REMARK    2  A    between atoms: C_2  and  C_3
REMARK    3  A    between atoms: C_2  and  C_4
REMARK    4  A    between atoms: C_4  and  C_5
REMARK    5  A    between atoms: C_5  and  N_6
REMARK    6  A    between atoms: C_7  and  C_9
REMARK    7  A    between atoms: C_9  and  C_11
REMARK    8  A    between atoms: C_9  and  N_16
REMARK    9  A    between atoms: N_16  and  C_17
REMARK   10  A    between atoms: C_20  and  O_25
REMARK   11  A    between atoms: C_21  and  O_23
REMARK   12  A    between atoms: O_23  and  C_24
REMARK   13  A    between atoms: O_25  and  C_26
REMARK   14  A    between atoms: C_27  and  C_29
REMARK   15  A    between atoms: C_30  and  N_37
REMARK   16  A    between atoms: C_31  and  C_34
REMARK                            x       y       z     vdW  Elec       q    Type
REMARK                         _______ _______ _______ _____ _____    ______ ____
ROOT
ATOM      1  N   UNL     1       2.083   3.965   0.672  0.00  0.00    -0.248 N 
ATOM      2  C   UNL     1       2.368   5.081  -0.028  0.00  0.00    +0.262 C 
ATOM      3  O   UNL     1       1.511   5.602  -0.718  0.00  0.00    -0.269 OA
ENDROOT
BRANCH   1   4
ATOM      4  C   UNL     1       0.822   3.367   0.554  0.00  0.00    +0.042 A 
ATOM      5  C   UNL     1       0.577   2.139   1.154  0.00  0.00    +0.027 A 
ATOM      6  C   UNL     1      -0.667   1.548   1.039  0.00  0.00    +0.051 A 
ATOM      7  C   UNL     1      -1.671   2.178   0.320  0.00  0.00    +0.162 A 
ATOM      8  C   UNL     1      -1.430   3.411  -0.278  0.00  0.00    +0.163 A 
ATOM      9  C   UNL     1      -0.183   4.003  -0.163  0.00  0.00    +0.073 A 
BRANCH   8  10
ATOM     10  O   UNL     1      -2.416   4.031  -0.980  0.00  0.00    -0.491 OA
ATOM     11  C   UNL     1      -2.096   5.292  -1.571  0.00  0.00    +0.277 C 
ENDBRANCH   8  10
BRANCH   7  12
ATOM     12  O   UNL     1      -2.893   1.592   0.203  0.00  0.00    -0.491 OA
ATOM     13  C   UNL     1      -3.072   0.329   0.847  0.00  0.00    +0.277 C 
ENDBRANCH   7  12
ENDBRANCH   1   4
BRANCH   2  14
ATOM     14  C   UNL     1       3.708   5.667   0.042  0.00  0.00    +0.116 A 
ATOM     15  C   UNL     1       4.084   7.010   0.110  0.00  0.00    +0.076 A 
ATOM     16  C   UNL     1       5.468   7.174   0.164  0.00  0.00    +0.155 A 
ATOM     17  N   UNL     1       6.243   6.112   0.148  0.00  0.00    -0.203 NA
ATOM     18  S   UNL     1       5.293   4.857   0.070  0.00  0.00    +0.019 S 
BRANCH  16  19
ATOM     19  C   UNL     1       6.056   8.524   0.239  0.00  0.00    +0.262 C 
ATOM     20  O   UNL     1       5.333   9.502   0.254  0.00  0.00    -0.269 OA
ATOM     21  N   UNL     1       7.394   8.675   0.292  0.00  0.00    -0.324 N 
ATOM     22  H   UNL     1       7.971   7.895   0.280  0.00  0.00    +0.145 HD
ATOM     23  H   UNL     1       7.780   9.563   0.341  0.00  0.00    +0.145 HD
ENDBRANCH  16  19
BRANCH  15  24
ATOM     24  N   UNL     1       3.181   8.064   0.121  0.00  0.00    -0.355 N 
ATOM     25  H   UNL     1       2.228   7.887   0.081  0.00  0.00    +0.142 HD
ATOM     26  H   UNL     1       3.503   8.978   0.170  0.00  0.00    +0.142 HD
ENDBRANCH  15  24
ENDBRANCH   2  14
BRANCH   1  27
ATOM     27  C   UNL     1       3.093   3.377   1.555  0.00  0.00    +0.233 C 
BRANCH  27  28
ATOM     28  C   UNL     1       2.538   3.271   2.952  0.00  0.00    +0.135 A 
ATOM     29  C   UNL     1       3.241   3.408   4.091  0.00  0.00    +0.047 A 
ATOM     30  C   UNL     1       2.330   3.237   5.158  0.00  0.00    +0.041 A 
ATOM     31  C   UNL     1       1.126   2.997   4.608  0.00  0.00    +0.195 A 
ATOM     32  O   UNL     1       1.258   3.019   3.272  0.00  0.00    -0.465 OA
ENDBRANCH  27  28
BRANCH  27  34
ATOM     33  N   UNL     1       4.375   1.268   1.715  0.00  0.00    -0.313 N 
ATOM     34  C   UNL     1       3.459   2.003   1.055  0.00  0.00    +0.242 C 
ATOM     35  O   UNL     1       2.928   1.559   0.059  0.00  0.00    -0.273 OA
ATOM     36  H   UNL     1       4.799   1.623   2.512  0.00  0.00    +0.149 HD
BRANCH  33  37
ATOM     37  C   UNL     1       4.731  -0.068   1.229  0.00  0.00    +0.104 C 
BRANCH  37  38
ATOM     38  C   UNL     1       5.785  -0.682   2.152  0.00  0.00    +0.022 C 
BRANCH  38  40
ATOM     39  C   UNL     1       6.835  -1.959   0.278  0.00  0.00    +0.007 C 
ATOM     40  C   UNL     1       6.157  -2.077   1.645  0.00  0.00    -0.016 C 
ATOM     41  C   UNL     1       7.117  -2.741   2.634  0.00  0.00    +0.007 C 
ENDBRANCH  38  40
ENDBRANCH  37  38
ENDBRANCH  33  37
ENDBRANCH  27  34
ENDBRANCH   1  27
TORSDOF 12
