REMARK  Name = ZINC12864789
REMARK  9 active torsions:
REMARK  status: ('A' for Active; 'I' for Inactive)
REMARK    1  A    between atoms: C_1  and  C_2
REMARK    2  A    between atoms: C_2  and  C_3
REMARK    3  A    between atoms: C_3  and  C_4
REMARK    4  A    between atoms: C_4  and  C_5
REMARK    5  A    between atoms: C_8  and  N_11
REMARK    6  A    between atoms: C_12  and  C_14
REMARK    7  A    between atoms: C_14  and  C_16
REMARK    8  A    between atoms: C_14  and  N_17
REMARK    9  A    between atoms: C_20  and  C_36
REMARK                            x       y       z     vdW  Elec       q    Type
REMARK                         _______ _______ _______ _____ _____    ______ ____
ROOT
ATOM      1  N   UNL     1       7.180   0.265  -0.378  0.00  0.00    -0.212 N 
ATOM      2  C   UNL     1       8.022   0.349  -1.432  0.00  0.00    +0.253 C 
ATOM      3  O   UNL     1       8.053  -0.373  -2.405  0.00  0.00    -0.272 OA
ATOM      4  C   UNL     1       8.915   1.532  -1.142  0.00  0.00    +0.153 C 
ATOM      5  C   UNL     1      10.373   1.140  -1.143  0.00  0.00    +0.053 A 
ATOM      6  C   UNL     1      11.185   1.365  -0.072  0.00  0.00    -0.015 A 
ATOM      7  C   UNL     1      12.498   0.868  -0.447  0.00  0.00    +0.003 A 
ATOM      8  C   UNL     1      13.723   0.840   0.226  0.00  0.00    +0.010 A 
ATOM      9  C   UNL     1      14.784   0.281  -0.442  0.00  0.00    +0.001 A 
ATOM     10  C   UNL     1      14.659  -0.236  -1.721  0.00  0.00    +0.002 A 
ATOM     11  C   UNL     1      13.459  -0.221  -2.410  0.00  0.00    +0.026 A 
ATOM     12  C   UNL     1      12.364   0.343  -1.757  0.00  0.00    +0.047 A 
ATOM     13  N   UNL     1      11.065   0.520  -2.135  0.00  0.00    -0.356 N 
ATOM     14  H   UNL     1      10.689   0.249  -2.987  0.00  0.00    +0.166 HD
ATOM     15  C   UNL     1      10.796   2.006   1.235  0.00  0.00    +0.056 C 
ATOM     16  C   UNL     1       9.433   2.703   1.102  0.00  0.00    +0.115 C 
ATOM     17  N   UNL     1       8.581   1.857   0.265  0.00  0.00    -0.266 N 
ATOM     18  C   UNL     1       7.471   1.179   0.561  0.00  0.00    +0.313 C 
ATOM     19  O   UNL     1       6.805   1.365   1.561  0.00  0.00    -0.252 OA
ATOM     20  C   UNL     1       8.637   2.703  -2.087  0.00  0.00    +0.048 C 
ENDROOT
BRANCH   1  21
ATOM     21  C   UNL     1       6.083  -0.701  -0.276  0.00  0.00    +0.168 C 
ATOM     22  C   UNL     1       6.295  -1.585   0.955  0.00  0.00    +0.038 C 
BRANCH  21  24
ATOM     23  N   UNL     1       3.622  -0.651  -0.036  0.00  0.00    -0.284 N 
ATOM     24  C   UNL     1       4.776   0.037  -0.145  0.00  0.00    +0.238 C 
ATOM     25  O   UNL     1       4.761   1.250  -0.139  0.00  0.00    -0.273 OA
ATOM     26  H   UNL     1       3.638  -1.618   0.035  0.00  0.00    +0.155 HD
BRANCH  23  30
ATOM     27  C   UNL     1      -0.017   1.378  -0.006  0.00  0.00    -0.047 A 
ATOM     28  C   UNL     1       0.133   0.219   0.734  0.00  0.00    +0.005 A 
ATOM     29  C   UNL     1       1.338  -0.456   0.726  0.00  0.00    +0.023 A 
ATOM     30  C   UNL     1       2.399   0.030  -0.026  0.00  0.00    +0.033 A 
ATOM     31  C   UNL     1       2.245   1.194  -0.768  0.00  0.00    +0.023 A 
ATOM     32  C   UNL     1       1.038   1.865  -0.755  0.00  0.00    +0.005 A 
BRANCH  27  33
ATOM     33  C   UNL     1      -1.331   2.115   0.011  0.00  0.00    +0.035 C 
BRANCH  33  34
ATOM     34  C   UNL     1      -2.224   1.591  -1.116  0.00  0.00    +0.004 C 
BRANCH  34  36
ATOM     35  C   UNL     1      -4.451   1.816  -2.227  0.00  0.00    +0.004 C 
ATOM     36  C   UNL     1      -3.558   2.340  -1.100  0.00  0.00    -0.003 C 
ENDBRANCH  34  36
ENDBRANCH  33  34
ENDBRANCH  27  33
ENDBRANCH  23  30
ENDBRANCH  21  24
ENDBRANCH   1  21
TORSDOF 6
