REMARK  Name = ZINC19873933
REMARK  4 active torsions:
REMARK  status: ('A' for Active; 'I' for Inactive)
REMARK    1  A    between atoms: C_1  and  O_2
REMARK    2  A    between atoms: O_2  and  C_3
REMARK    3  A    between atoms: C_13  and  C_18
REMARK    4  A    between atoms: C_22  and  N_24
REMARK                            x       y       z     vdW  Elec       q    Type
REMARK                         _______ _______ _______ _____ _____    ______ ____
ROOT
ATOM      1  C   UNL     1       2.938   3.870  -0.007  0.00  0.00    +0.121 A 
ATOM      2  C   UNL     1       3.377   2.549  -0.017  0.00  0.00    +0.047 A 
ATOM      3  C   UNL     1       2.474   1.510  -0.012  0.00  0.00    +0.030 A 
ATOM      4  C   UNL     1       1.108   1.774   0.001  0.00  0.00    +0.047 A 
ATOM      5  C   UNL     1       0.660   3.109   0.012  0.00  0.00    +0.007 A 
ATOM      6  C   UNL     1       1.587   4.154   0.007  0.00  0.00    +0.056 A 
ATOM      7  C   UNL     1      -0.796   3.038   0.026  0.00  0.00    -0.016 A 
ATOM      8  C   UNL     1      -1.138   1.734   0.016  0.00  0.00    +0.042 A 
ATOM      9  N   UNL     1      -0.011   0.966   0.007  0.00  0.00    -0.356 N 
ATOM     10  H   UNL     1       0.101  -0.129   0.005  0.00  0.00    +0.166 HD
ATOM     11  C   UNL     1      -2.574   1.261   0.030  0.00  0.00    +0.131 C 
ATOM     12  N   UNL     1      -3.436   2.389  -0.358  0.00  0.00    -0.304 NA
ATOM     13  C   UNL     1      -3.156   3.584   0.450  0.00  0.00    +0.086 C 
ATOM     14  C   UNL     1      -1.795   4.167   0.045  0.00  0.00    +0.052 C 
ATOM     15  H   UNL     1      -3.264   2.636  -1.416  0.00  0.00    +0.123 HD
ENDROOT
BRANCH  11  16
ATOM     16  C   UNL     1      -2.742   0.132  -0.953  0.00  0.00    -0.022 A 
ATOM     17  C   UNL     1      -2.863   0.403  -2.304  0.00  0.00    +0.007 A 
ATOM     18  C   UNL     1      -3.013  -0.633  -3.206  0.00  0.00    +0.022 A 
ATOM     19  C   UNL     1      -3.053  -1.941  -2.757  0.00  0.00    +0.071 A 
ATOM     20  C   UNL     1      -2.937  -2.212  -1.405  0.00  0.00    +0.145 A 
ATOM     21  C   UNL     1      -2.782  -1.175  -0.504  0.00  0.00    +0.039 A 
ATOM     22 CL   UNL     1      -3.247  -3.242  -3.889  0.00  0.00    -0.081 Cl
BRANCH  20  23
ATOM     23  N   UNL     1      -2.980  -3.611  -0.924  0.00  0.00    +0.058 N 
ATOM     24  O   UNL     1      -2.879  -3.849   0.266  0.00  0.00    -0.126 OA
ATOM     25  O   UNL     1      -3.117  -4.524  -1.718  0.00  0.00    -0.126 OA
ENDBRANCH  20  23
ENDBRANCH  11  16
BRANCH   1  27
ATOM     26  C   UNL     1       5.225   4.521  -0.025  0.00  0.00    +0.277 C 
ATOM     27  O   UNL     1       3.843   4.885  -0.011  0.00  0.00    -0.495 OA
ENDBRANCH   1  27
TORSDOF 3
