REMARK  Name = ZINC39690606
REMARK  7 active torsions:
REMARK  status: ('A' for Active; 'I' for Inactive)
REMARK    1  A    between atoms: C_1  and  C_2
REMARK    2  A    between atoms: C_2  and  O_3
REMARK    3  A    between atoms: O_3  and  C_4
REMARK    4  A    between atoms: C_9  and  C_10
REMARK    5  A    between atoms: C_14  and  C_23
REMARK    6  A    between atoms: N_25  and  C_26
REMARK    7  A    between atoms: C_26  and  C_27
REMARK                            x       y       z     vdW  Elec       q    Type
REMARK                         _______ _______ _______ _____ _____    ______ ____
ROOT
ATOM      1  C   UNL     1      -4.120  -1.281   0.138  0.00  0.00    +0.250 C 
ATOM      2  O   UNL     1      -3.091  -1.919   0.035  0.00  0.00    -0.270 OA
ATOM      3  N   UNL     1      -5.305  -1.919   0.212  0.00  0.00    -0.296 N 
ATOM      4  C   UNL     1      -5.547  -3.379   0.285  0.00  0.00    +0.121 C 
ATOM      5  C   UNL     1      -6.714  -3.531   1.286  0.00  0.00    +0.100 C 
ATOM      6  C   UNL     1      -7.442  -2.177   1.249  0.00  0.00    -0.004 C 
ATOM      7  C   UNL     1      -6.660  -1.318   0.244  0.00  0.00    +0.115 C 
ATOM      8  C   UNL     1      -8.881  -2.363   0.779  0.00  0.00    -0.010 C 
ATOM      9  C   UNL     1      -9.601  -1.012   0.806  0.00  0.00    -0.082 C 
ATOM     10  N   UNL     1      -9.577  -0.470   2.170  0.00  0.00    +0.379 N 
ATOM     11  C   UNL     1      -8.192  -0.207   2.580  0.00  0.00    -0.082 C 
ATOM     12  C   UNL     1      -7.413  -1.524   2.628  0.00  0.00    -0.010 C 
ATOM     13  H   UNL     1     -10.104   0.390   2.198  0.00  0.00    -0.086 HD
ATOM     14  H   UNL     1      -9.993  -1.137   2.803  0.00  0.00    -0.086 HD
ENDROOT
BRANCH   1  20
ATOM     15  C   UNL     1      -3.060   0.844   0.900  0.00  0.00    +0.133 A 
ATOM     16  C   UNL     1      -3.021   2.231   0.929  0.00  0.00    +0.046 A 
ATOM     17  C   UNL     1      -3.980   2.964   0.260  0.00  0.00    +0.004 A 
ATOM     18  C   UNL     1      -4.986   2.324  -0.446  0.00  0.00    +0.001 A 
ATOM     19  C   UNL     1      -5.039   0.948  -0.486  0.00  0.00    +0.017 A 
ATOM     20  C   UNL     1      -4.072   0.193   0.182  0.00  0.00    +0.078 A 
BRANCH  15  21
ATOM     21  O   UNL     1      -2.118   0.122   1.557  0.00  0.00    -0.491 OA
BRANCH  21  23
ATOM     22  C   UNL     1      -0.152  -0.123   2.941  0.00  0.00    +0.048 C 
ATOM     23  C   UNL     1      -1.118   0.855   2.267  0.00  0.00    +0.226 C 
ENDBRANCH  21  23
ENDBRANCH  15  21
ENDBRANCH   1  20
BRANCH   5  24
ATOM     24  C   UNL     1      -6.186  -3.808   2.670  0.00  0.00    +0.218 C 
ATOM     25  O   UNL     1      -5.106  -3.369   3.006  0.00  0.00    -0.275 OA
ATOM     26  N   UNL     1      -6.912  -4.545   3.534  0.00  0.00    -0.311 N 
ATOM     27  H   UNL     1      -7.776  -4.896   3.265  0.00  0.00    +0.149 HD
BRANCH  26  28
ATOM     28  C   UNL     1      -6.399  -4.814   4.879  0.00  0.00    +0.140 C 
BRANCH  28  29
ATOM     29  C   UNL     1      -7.395  -5.651   5.639  0.00  0.00    -0.016 A 
ATOM     30  C   UNL     1      -8.253  -5.054   6.544  0.00  0.00    +0.006 A 
ATOM     31  C   UNL     1      -9.167  -5.822   7.241  0.00  0.00    +0.000 A 
ATOM     32  C   UNL     1      -9.224  -7.188   7.032  0.00  0.00    +0.001 A 
ATOM     33  C   UNL     1      -8.367  -7.786   6.127  0.00  0.00    +0.015 A 
ATOM     34  C   UNL     1      -7.456  -7.016   5.426  0.00  0.00    +0.023 A 
ATOM     35 BR   UNL     1      -6.288  -7.833   4.183  0.00  0.00    -0.050 Br
ENDBRANCH  28  29
ENDBRANCH  26  28
ENDBRANCH   5  24
TORSDOF 6
