REMARK  Name = ZINC36207160
REMARK  17 active torsions:
REMARK  status: ('A' for Active; 'I' for Inactive)
REMARK    1  A    between atoms: C_1  and  C_2
REMARK    2  A    between atoms: C_2  and  C_3
REMARK    3  A    between atoms: C_2  and  C_4
REMARK    4  A    between atoms: C_4  and  C_5
REMARK    5  A    between atoms: C_5  and  N_6
REMARK    6  A    between atoms: N_6  and  C_7
REMARK    7  A    between atoms: N_6  and  C_27
REMARK    8  A    between atoms: C_7  and  C_8
REMARK    9  A    between atoms: C_14  and  C_19
REMARK   10  A    between atoms: C_24  and  O_25
REMARK   11  A    between atoms: O_25  and  C_26
REMARK   12  A    between atoms: C_27  and  C_28
REMARK   13  A    between atoms: C_28  and  C_30
REMARK   14  A    between atoms: C_28  and  O_35
REMARK   15  A    between atoms: C_30  and  O_31
REMARK   16  A    between atoms: O_31  and  C_32
REMARK   17  A    between atoms: C_32  and  C_33
REMARK                            x       y       z     vdW  Elec       q    Type
REMARK                         _______ _______ _______ _____ _____    ______ ____
ROOT
ATOM      1  C   UNL     1       2.944  -0.607   2.669  0.00  0.00    +0.094 A 
ATOM      2  N   UNL     1       4.234  -0.182   2.663  0.00  0.00    -0.312 N 
ATOM      3  H   UNL     1       4.561   0.353   3.403  0.00  0.00    +0.170 HD
ATOM      4  C   UNL     1       5.066  -0.488   1.651  0.00  0.00    +0.260 A 
ATOM      5  O   UNL     1       6.221  -0.100   1.660  0.00  0.00    -0.267 OA
ATOM      6  C   UNL     1       4.574  -1.278   0.563  0.00  0.00    +0.080 A 
ATOM      7  C   UNL     1       5.271  -1.736  -0.633  0.00  0.00    +0.007 A 
ATOM      8  C   UNL     1       4.591  -2.483  -1.537  0.00  0.00    +0.056 A 
ATOM      9  S   UNL     1       2.963  -2.612  -0.824  0.00  0.00    -0.076 S 
ATOM     10  C   UNL     1       3.229  -1.671   0.656  0.00  0.00    +0.116 A 
ATOM     11  N   UNL     1       2.468  -1.333   1.693  0.00  0.00    -0.229 NA
ENDROOT
BRANCH   7  12
ATOM     12  C   UNL     1       6.695  -1.391  -0.857  0.00  0.00    +0.025 A 
ATOM     13  C   UNL     1       7.057  -0.571  -1.923  0.00  0.00    +0.012 A 
ATOM     14  C   UNL     1       8.385  -0.253  -2.127  0.00  0.00    +0.001 A 
ATOM     15  C   UNL     1       9.358  -0.746  -1.275  0.00  0.00    +0.004 A 
ATOM     16  C   UNL     1       9.009  -1.560  -0.214  0.00  0.00    +0.046 A 
ATOM     17  C   UNL     1       7.680  -1.883   0.005  0.00  0.00    +0.128 A 
BRANCH  17  18
ATOM     18  O   UNL     1       7.336  -2.680   1.051  0.00  0.00    -0.495 OA
ATOM     19  C   UNL     1       8.396  -3.145   1.889  0.00  0.00    +0.277 C 
ENDBRANCH  17  18
ENDBRANCH   7  12
BRANCH   1  20
ATOM     20  C   UNL     1       2.049  -0.239   3.824  0.00  0.00    -0.003 C 
BRANCH  20  21
ATOM     21  N   UNL     1       0.677  -0.684   3.541  0.00  0.00    +0.386 N 
ATOM     22  H   UNL     1       0.683  -1.666   3.312  0.00  0.00    -0.081 HD
BRANCH  21  23
ATOM     23  C   UNL     1       0.139   0.080   2.407  0.00  0.00    -0.078 C 
BRANCH  23  24
ATOM     24  C   UNL     1       0.002   1.552   2.802  0.00  0.00    -0.016 C 
BRANCH  24  26
ATOM     25  C   UNL     1      -1.830   1.935   1.147  0.00  0.00    +0.007 C 
ATOM     26  C   UNL     1      -0.429   2.369   1.583  0.00  0.00    -0.019 C 
ATOM     27  C   UNL     1      -0.445   3.856   1.945  0.00  0.00    +0.007 C 
ENDBRANCH  24  26
ENDBRANCH  23  24
ENDBRANCH  21  23
BRANCH  21  28
ATOM     28  C   UNL     1      -0.164  -0.461   4.725  0.00  0.00    -0.044 C 
BRANCH  28  29
ATOM     29  C   UNL     1      -1.542  -1.084   4.496  0.00  0.00    +0.124 C 
BRANCH  29  30
ATOM     30  O   UNL     1      -2.219  -0.376   3.456  0.00  0.00    -0.391 OA
ATOM     31  H   UNL     1      -2.357   0.562   3.645  0.00  0.00    +0.210 HD
ENDBRANCH  29  30
BRANCH  29  32
ATOM     32  C   UNL     1      -2.360  -1.000   5.786  0.00  0.00    +0.190 C 
BRANCH  32  33
ATOM     33  O   UNL     1      -3.602  -1.685   5.608  0.00  0.00    -0.365 OA
BRANCH  33  34
ATOM     34  C   UNL     1      -4.446  -1.666   6.761  0.00  0.00    +0.248 C 
BRANCH  34  35
ATOM     35  C   UNL     1      -5.691  -2.396   6.469  0.00  0.00    -0.077 C 
ATOM     36  C   UNL     1      -6.684  -2.977   6.236  0.00  0.00    +0.006 C 
ENDBRANCH  34  35
ENDBRANCH  33  34
ENDBRANCH  32  33
ENDBRANCH  29  32
ENDBRANCH  28  29
ENDBRANCH  21  28
ENDBRANCH  20  21
ENDBRANCH   1  20
TORSDOF 14
