REMARK  Name = ZINC14072041
REMARK  10 active torsions:
REMARK  status: ('A' for Active; 'I' for Inactive)
REMARK    1  A    between atoms: C_1  and  C_2
REMARK    2  A    between atoms: C_3  and  C_33
REMARK    3  A    between atoms: C_4  and  C_32
REMARK    4  A    between atoms: C_5  and  S_10
REMARK    5  A    between atoms: C_6  and  C_9
REMARK    6  A    between atoms: C_7  and  C_8
REMARK    7  A    between atoms: S_10  and  N_13
REMARK    8  A    between atoms: C_19  and  C_21
REMARK    9  A    between atoms: C_24  and  N_26
REMARK   10  A    between atoms: C_27  and  C_29
REMARK                            x       y       z     vdW  Elec       q    Type
REMARK                         _______ _______ _______ _____ _____    ______ ____
ROOT
ATOM      1  N   UNL     1       4.946  -4.134   0.556  0.00  0.00    -0.174 NA
ATOM      2  C   UNL     1       4.481  -5.528   0.582  0.00  0.00    +0.128 C 
ATOM      3  C   UNL     1       3.592  -5.771  -0.644  0.00  0.00    +0.125 C 
ATOM      4  N   UNL     1       2.596  -4.693  -0.722  0.00  0.00    -0.295 N 
ATOM      5  C   UNL     1       3.061  -3.299  -0.754  0.00  0.00    +0.125 C 
ATOM      6  C   UNL     1       3.950  -3.056   0.478  0.00  0.00    +0.128 C 
ATOM      7  C   UNL     1       1.279  -4.977  -0.770  0.00  0.00    +0.253 C 
ATOM      8  O   UNL     1       0.898  -6.123  -0.613  0.00  0.00    -0.269 OA
ENDROOT
BRANCH   7   9
ATOM      9  C   UNL     1       0.309  -3.911  -1.011  0.00  0.00    +0.076 A 
ATOM     10  C   UNL     1      -1.072  -3.945  -0.888  0.00  0.00    +0.022 A 
ATOM     11  C   UNL     1      -1.757  -2.795  -1.178  0.00  0.00    +0.032 A 
ATOM     12  C   UNL     1      -1.046  -1.681  -1.571  0.00  0.00    +0.072 A 
ATOM     13  S   UNL     1       0.597  -2.232  -1.540  0.00  0.00    -0.069 S 
BRANCH  12  14
ATOM     14  N   UNL     1      -1.529  -0.423  -1.911  0.00  0.00    -0.280 N 
ATOM     15  C   UNL     1      -0.673   0.552  -2.275  0.00  0.00    +0.221 C 
ATOM     16  O   UNL     1       0.519   0.332  -2.306  0.00  0.00    -0.275 OA
ATOM     17  H   UNL     1      -2.483  -0.247  -1.886  0.00  0.00    +0.155 HD
BRANCH  15  18
ATOM     18  C   UNL     1      -1.197   1.916  -2.643  0.00  0.00    +0.075 C 
ATOM     19  C   UNL     1      -1.080   2.347  -4.106  0.00  0.00    +0.013 C 
ATOM     20  C   UNL     1      -0.175   2.980  -3.047  0.00  0.00    +0.013 C 
ENDBRANCH  15  18
ENDBRANCH  12  14
ENDBRANCH   7   9
BRANCH   1  21
ATOM     21  S   UNL     1       6.564  -3.784   0.614  0.00  0.00    +0.061 S 
ATOM     22  O   UNL     1       6.677  -2.478   1.162  0.00  0.00    -0.153 OA
ATOM     23  O   UNL     1       7.202  -4.912   1.196  0.00  0.00    -0.153 OA
BRANCH  21  28
ATOM     24  C   UNL     1       8.519  -3.443  -5.084  0.00  0.00    +0.044 C 
ATOM     25  C   UNL     1       8.031  -3.528  -3.661  0.00  0.00    -0.044 A 
ATOM     26  C   UNL     1       7.854  -4.762  -3.063  0.00  0.00    -0.043 A 
ATOM     27  C   UNL     1       7.405  -4.840  -1.758  0.00  0.00    -0.021 A 
ATOM     28  C   UNL     1       7.135  -3.685  -1.050  0.00  0.00    +0.112 A 
ATOM     29  C   UNL     1       7.308  -2.451  -1.648  0.00  0.00    -0.021 A 
ATOM     30  C   UNL     1       7.760  -2.372  -2.952  0.00  0.00    -0.043 A 
ATOM     31  C   UNL     1       7.954  -1.027  -3.603  0.00  0.00    +0.044 C 
ATOM     32  C   UNL     1       7.007  -1.191  -0.878  0.00  0.00    +0.046 C 
ATOM     33  C   UNL     1       7.212  -6.186  -1.107  0.00  0.00    +0.046 C 
ATOM     34  C   UNL     1       8.149  -6.022  -3.836  0.00  0.00    +0.044 C 
ENDBRANCH  21  28
ENDBRANCH   1  21
TORSDOF 5
