REMARK  Name = ZINC20089927
REMARK  5 active torsions:
REMARK  status: ('A' for Active; 'I' for Inactive)
REMARK    1  A    between atoms: C_3  and  C_8
REMARK    2  A    between atoms: C_8  and  S_9
REMARK    3  A    between atoms: S_9  and  C_10
REMARK    4  A    between atoms: C_15  and  C_25
REMARK    5  A    between atoms: C_29  and  N_31
REMARK                            x       y       z     vdW  Elec       q    Type
REMARK                         _______ _______ _______ _____ _____    ______ ____
ROOT
ATOM      1  C   UNL     1      -6.293   2.233   2.904  0.00  0.00    +0.211 A 
ATOM      2  N   UNL     1      -6.124   2.033   1.589  0.00  0.00    -0.187 NA
ATOM      3  C   UNL     1      -4.850   2.049   1.306  0.00  0.00    +0.219 A 
ATOM      4  N   UNL     1      -4.165   2.268   2.455  0.00  0.00    -0.220 N 
ATOM      5  N   UNL     1      -5.114   2.380   3.470  0.00  0.00    -0.141 NA
ATOM      6  C   UNL     1      -2.712   2.357   2.518  0.00  0.00    +0.176 C 
ATOM      7  C   UNL     1      -2.105   1.837   1.234  0.00  0.00    +0.041 C 
ATOM      8  C   UNL     1      -2.844   1.634   0.122  0.00  0.00    +0.020 C 
ATOM      9  N   UNL     1      -4.196   1.879   0.097  0.00  0.00    -0.287 N 
ATOM     10  C   UNL     1      -2.210   1.118  -1.148  0.00  0.00    +0.052 C 
ATOM     11  C   UNL     1      -0.758   1.596  -1.230  0.00  0.00    +0.014 C 
ATOM     12  C   UNL     1      -0.013   1.086   0.008  0.00  0.00    +0.080 C 
ATOM     13  C   UNL     1      -0.721   1.573   1.241  0.00  0.00    +0.163 C 
ATOM     14  O   UNL     1      -0.086   1.742   2.264  0.00  0.00    -0.292 OA
ATOM     15  H   UNL     1      -4.759   1.941  -0.847  0.00  0.00    +0.155 HD
ENDROOT
BRANCH   6  16
ATOM     16  C   UNL     1      -2.308   3.796   2.715  0.00  0.00    -0.016 A 
ATOM     17  C   UNL     1      -2.650   4.745   1.769  0.00  0.00    +0.006 A 
ATOM     18  C   UNL     1      -2.283   6.065   1.952  0.00  0.00    +0.003 A 
ATOM     19  C   UNL     1      -1.568   6.435   3.075  0.00  0.00    +0.033 A 
ATOM     20  C   UNL     1      -1.223   5.486   4.018  0.00  0.00    +0.127 A 
ATOM     21  C   UNL     1      -1.593   4.166   3.838  0.00  0.00    +0.038 A 
BRANCH  20  22
ATOM     22  N   UNL     1      -0.457   5.882   5.221  0.00  0.00    +0.056 N 
ATOM     23  O   UNL     1      -0.152   5.045   6.052  0.00  0.00    -0.126 OA
ATOM     24  O   UNL     1      -0.131   7.045   5.380  0.00  0.00    -0.126 OA
ENDBRANCH  20  22
ENDBRANCH   6  16
BRANCH   1  25
ATOM     25  S   UNL     1      -7.843   2.288   3.740  0.00  0.00    -0.080 S 
BRANCH  25  26
ATOM     26  C   UNL     1      -9.061   2.020   2.422  0.00  0.00    +0.112 C 
BRANCH  26  29
ATOM     27  C   UNL     1     -12.301   0.895   4.002  0.00  0.00    +0.002 A 
ATOM     28  C   UNL     1     -11.029   0.873   3.459  0.00  0.00    +0.004 A 
ATOM     29  C   UNL     1     -10.449   2.044   3.009  0.00  0.00    -0.036 A 
ATOM     30  C   UNL     1     -11.144   3.236   3.092  0.00  0.00    +0.024 A 
ATOM     31  C   UNL     1     -12.418   3.258   3.630  0.00  0.00    +0.041 A 
ATOM     32  C   UNL     1     -12.996   2.086   4.085  0.00  0.00    +0.020 A 
ATOM     33 CL   UNL     1     -13.291   4.755   3.733  0.00  0.00    -0.084 Cl
ENDBRANCH  26  29
ENDBRANCH  25  26
ENDBRANCH   1  25
TORSDOF 5
