REMARK  Name = ZINC20533252
REMARK  7 active torsions:
REMARK  status: ('A' for Active; 'I' for Inactive)
REMARK    1  A    between atoms: C_1  and  O_2
REMARK    2  A    between atoms: O_2  and  C_3
REMARK    3  A    between atoms: C_8  and  O_9
REMARK    4  A    between atoms: O_9  and  C_10
REMARK    5  A    between atoms: C_11  and  C_16
REMARK    6  A    between atoms: N_20  and  C_23
REMARK    7  A    between atoms: C_27  and  C_29
REMARK                            x       y       z     vdW  Elec       q    Type
REMARK                         _______ _______ _______ _____ _____    ______ ____
ROOT
ATOM      1  C   UNL     1      -4.224  -4.058   0.900  0.00  0.00    +0.072 A 
ATOM      2  C   UNL     1      -4.979  -5.107   0.465  0.00  0.00    +0.260 A 
ATOM      3  N   UNL     1      -5.553  -5.951   1.382  0.00  0.00    -0.274 N 
ATOM      4  C   UNL     1      -5.375  -5.749   2.700  0.00  0.00    +0.337 A 
ATOM      5  N   UNL     1      -4.634  -4.720   3.149  0.00  0.00    -0.229 N 
ATOM      6  C   UNL     1      -4.047  -3.870   2.282  0.00  0.00    +0.267 A 
ATOM      7  O   UNL     1      -3.372  -2.943   2.694  0.00  0.00    -0.267 OA
ATOM      8  O   UNL     1      -5.892  -6.508   3.498  0.00  0.00    -0.246 OA
ATOM      9  O   UNL     1      -5.160  -5.312  -0.856  0.00  0.00    -0.267 OA
ATOM     10  H   UNL     1      -6.091  -6.699   1.077  0.00  0.00    +0.173 HD
ENDROOT
BRANCH   1  17
ATOM     11  C   UNL     1       0.668  -3.554   0.178  0.00  0.00    +0.162 A 
ATOM     12  C   UNL     1       0.115  -2.293   0.041  0.00  0.00    +0.053 A 
ATOM     13  C   UNL     1      -1.260  -2.137  -0.043  0.00  0.00    -0.044 A 
ATOM     14  C   UNL     1      -2.084  -3.242   0.009  0.00  0.00    -0.050 A 
ATOM     15  C   UNL     1      -1.534  -4.508   0.149  0.00  0.00    +0.052 A 
ATOM     16  C   UNL     1      -0.162  -4.670   0.228  0.00  0.00    +0.162 A 
ATOM     17  C   UNL     1      -3.582  -3.117  -0.087  0.00  0.00    +0.001 C 
ATOM     18  N   UNL     1      -4.006  -1.746   0.209  0.00  0.00    +0.387 N 
ATOM     19  C   UNL     1      -3.271  -0.819  -0.665  0.00  0.00    -0.077 C 
ATOM     20  C   UNL     1      -1.820  -0.745  -0.188  0.00  0.00    +0.016 C 
ATOM     21  H   UNL     1      -4.997  -1.655   0.041  0.00  0.00    -0.085 HD
ATOM     22  H   UNL     1      -3.805  -1.531   1.174  0.00  0.00    -0.085 HD
BRANCH  11  24
ATOM     23  C   UNL     1       2.806  -2.513   0.201  0.00  0.00    +0.277 C 
ATOM     24  O   UNL     1       2.018  -3.703   0.259  0.00  0.00    -0.491 OA
ENDBRANCH  11  24
BRANCH  16  25
ATOM     25  O   UNL     1       0.372  -5.913   0.359  0.00  0.00    -0.491 OA
ATOM     26  C   UNL     1      -0.542  -7.011   0.403  0.00  0.00    +0.277 C 
ENDBRANCH  16  25
ENDBRANCH   1  17
BRANCH   5  27
ATOM     27  C   UNL     1      -4.466  -4.533   4.528  0.00  0.00    +0.055 A 
ATOM     28  C   UNL     1      -5.363  -3.745   5.237  0.00  0.00    +0.026 A 
ATOM     29  C   UNL     1      -5.195  -3.562   6.596  0.00  0.00    +0.003 A 
ATOM     30  C   UNL     1      -4.135  -4.163   7.250  0.00  0.00    +0.012 A 
ATOM     31  C   UNL     1      -3.240  -4.948   6.546  0.00  0.00    +0.057 A 
ATOM     32  C   UNL     1      -3.406  -5.139   5.188  0.00  0.00    +0.038 A 
BRANCH  31  33
ATOM     33  C   UNL     1      -2.085  -5.600   7.262  0.00  0.00    +0.417 C 
ATOM     34  F   UNL     1      -2.131  -5.267   8.620  0.00  0.00    -0.166 F 
ATOM     35  F   UNL     1      -2.172  -6.989   7.119  0.00  0.00    -0.166 F 
ATOM     36  F   UNL     1      -0.880  -5.149   6.712  0.00  0.00    -0.166 F 
ENDBRANCH  31  33
ENDBRANCH   5  27
TORSDOF 5
