REMARK  Name = ZINC20644856
REMARK  13 active torsions:
REMARK  status: ('A' for Active; 'I' for Inactive)
REMARK    1  A    between atoms: C_1  and  C_2
REMARK    2  A    between atoms: C_2  and  C_3
REMARK    3  A    between atoms: C_3  and  C_5
REMARK    4  A    between atoms: C_3  and  S_15
REMARK    5  A    between atoms: N_7  and  C_8
REMARK    6  A    between atoms: C_8  and  C_9
REMARK    7  A    between atoms: S_15  and  C_16
REMARK    8  A    between atoms: C_20  and  C_34
REMARK    9  A    between atoms: C_21  and  C_23
REMARK   10  A    between atoms: N_25  and  C_26
REMARK   11  A    between atoms: C_29  and  C_33
REMARK   12  A    between atoms: C_31  and  C_32
REMARK   13  A    between atoms: N_37  and  N_38
REMARK                            x       y       z     vdW  Elec       q    Type
REMARK                         _______ _______ _______ _____ _____    ______ ____
ROOT
ATOM      1  C   UNL     1      -0.644   2.969  -0.523  0.00  0.00    +0.190 A 
ATOM      2  N   UNL     1      -1.459   3.531  -1.393  0.00  0.00    -0.215 NA
ATOM      3  C   UNL     1      -2.252   2.808  -2.166  0.00  0.00    +0.117 A 
ATOM      4  C   UNL     1      -2.273   1.393  -2.103  0.00  0.00    +0.077 A 
ATOM      5  C   UNL     1      -3.160   0.760  -2.977  0.00  0.00    -0.017 A 
ATOM      6  C   UNL     1      -3.935   1.506  -3.817  0.00  0.00    +0.080 A 
ATOM      7  S   UNL     1      -3.453   3.178  -3.420  0.00  0.00    -0.064 S 
ATOM      8  C   UNL     1      -3.261  -0.743  -2.992  0.00  0.00    +0.046 C 
ATOM      9  C   UNL     1      -1.344   0.793  -1.121  0.00  0.00    +0.280 A 
ATOM     10  O   UNL     1      -1.275  -0.415  -0.986  0.00  0.00    -0.265 OA
ATOM     11  N   UNL     1      -0.579   1.615  -0.376  0.00  0.00    -0.209 N 
ENDROOT
BRANCH   6  12
ATOM     12  C   UNL     1      -4.919   1.047  -4.800  0.00  0.00    +0.255 C 
ATOM     13  O   UNL     1      -5.127  -0.144  -4.943  0.00  0.00    -0.269 OA
ATOM     14  N   UNL     1      -5.594   1.944  -5.546  0.00  0.00    -0.281 N 
ATOM     15  H   UNL     1      -5.353   3.014  -5.470  0.00  0.00    +0.155 HD
BRANCH  14  16
ATOM     16  C   UNL     1      -6.600   1.513  -6.416  0.00  0.00    +0.037 A 
ATOM     17  C   UNL     1      -6.542   0.240  -6.971  0.00  0.00    +0.024 A 
ATOM     18  C   UNL     1      -7.537  -0.182  -7.830  0.00  0.00    +0.005 A 
ATOM     19  C   UNL     1      -8.591   0.660  -8.138  0.00  0.00    -0.050 A 
ATOM     20  C   UNL     1      -8.651   1.927  -7.588  0.00  0.00    +0.008 A 
ATOM     21  C   UNL     1      -7.661   2.354  -6.724  0.00  0.00    -0.029 A 
ATOM     22  C   UNL     1      -7.731   3.732  -6.119  0.00  0.00    +0.045 C 
ATOM     23  C   UNL     1      -9.675   0.195  -9.075  0.00  0.00    +0.044 C 
ENDBRANCH  14  16
ENDBRANCH   6  12
BRANCH  11  24
ATOM     24  N   UNL     1       0.282   1.082   0.540  0.00  0.00    -0.293 N 
ATOM     25  H   UNL     1       0.343  -0.009   0.668  0.00  0.00    +0.163 HD
ATOM     26  H   UNL     1       0.914   1.743   1.151  0.00  0.00    +0.163 HD
ENDBRANCH  11  24
BRANCH   1  27
ATOM     27  S   UNL     1       0.386   3.993   0.474  0.00  0.00    -0.073 S 
BRANCH  27  28
ATOM     28  C   UNL     1       0.001   5.613  -0.235  0.00  0.00    +0.140 C 
BRANCH  28  29
ATOM     29  C   UNL     1       0.512   5.676  -1.651  0.00  0.00    +0.226 C 
ATOM     30  O   UNL     1       1.373   4.905  -2.020  0.00  0.00    -0.275 OA
ATOM     31  N   UNL     1       0.012   6.588  -2.508  0.00  0.00    -0.312 N 
ATOM     32  H   UNL     1      -0.769   7.287  -2.174  0.00  0.00    +0.149 HD
BRANCH  31  33
ATOM     33  C   UNL     1       0.509   6.649  -3.885  0.00  0.00    +0.135 C 
BRANCH  33  34
ATOM     34  C   UNL     1      -0.218   7.763  -4.640  0.00  0.00    +0.135 C 
ATOM     35  C   UNL     1       0.199   7.765  -6.128  0.00  0.00    +0.035 C 
ATOM     36  C   UNL     1       0.252   9.264  -6.501  0.00  0.00    +0.031 C 
ATOM     37  C   UNL     1      -0.139   9.990  -5.195  0.00  0.00    +0.160 C 
ATOM     38  O   UNL     1       0.187   9.057  -4.142  0.00  0.00    -0.375 OA
ENDBRANCH  33  34
ENDBRANCH  31  33
ENDBRANCH  28  29
BRANCH  28  40
ATOM     39  C   UNL     1       0.063   6.724   2.002  0.00  0.00    +0.005 C 
ATOM     40  C   UNL     1       0.672   6.707   0.599  0.00  0.00    +0.020 C 
ENDBRANCH  28  40
ENDBRANCH  27  28
ENDBRANCH   1  27
TORSDOF 9
