REMARK  Name = ZINC46568353
REMARK  9 active torsions:
REMARK  status: ('A' for Active; 'I' for Inactive)
REMARK    1  A    between atoms: C_1  and  C_2
REMARK    2  A    between atoms: C_2  and  C_3
REMARK    3  A    between atoms: C_3  and  C_29
REMARK    4  A    between atoms: N_6  and  N_10
REMARK    5  A    between atoms: C_11  and  C_13
REMARK    6  A    between atoms: C_13  and  N_14
REMARK    7  A    between atoms: N_14  and  C_15
REMARK    8  A    between atoms: C_15  and  C_17
REMARK    9  A    between atoms: C_15  and  C_24
REMARK                            x       y       z     vdW  Elec       q    Type
REMARK                         _______ _______ _______ _____ _____    ______ ____
ROOT
ATOM      1  C   UNL     1       3.862  -5.441  -2.349  0.00  0.00    +0.018 C 
ENDROOT
BRANCH   1   3
ATOM      2  N   UNL     1       2.729  -3.545  -1.236  0.00  0.00    -0.225 N 
ATOM      3  C   UNL     1       3.264  -4.058  -2.362  0.00  0.00    +0.213 C 
ATOM      4  O   UNL     1       3.263  -3.407  -3.385  0.00  0.00    -0.276 OA
ATOM      5  H   UNL     1       2.730  -4.066  -0.418  0.00  0.00    +0.173 HD
BRANCH   2   9
ATOM      6  C   UNL     1       0.718  -0.497  -1.257  0.00  0.00    +0.111 C 
ATOM      7  C   UNL     1       0.848  -2.008  -1.239  0.00  0.00    +0.263 C 
ATOM      8  O   UNL     1      -0.051  -2.820  -1.221  0.00  0.00    -0.271 OA
ATOM      9  N   UNL     1       2.172  -2.259  -1.248  0.00  0.00    -0.137 N 
ATOM     10  C   UNL     1       2.889  -1.130  -1.269  0.00  0.00    +0.326 C 
ATOM     11  O   UNL     1       4.104  -1.101  -1.280  0.00  0.00    -0.251 OA
ATOM     12  N   UNL     1       2.115  -0.030  -1.275  0.00  0.00    -0.284 N 
ATOM     13  C   UNL     1      -0.022  -0.032  -2.513  0.00  0.00    +0.041 C 
ATOM     14  H   UNL     1       2.418   0.892  -1.290  0.00  0.00    +0.151 HD
BRANCH   6  16
ATOM     15  C   UNL     1      -0.019   1.526   0.010  0.00  0.00    +0.006 C 
ATOM     16  C   UNL     1       0.002  -0.004   0.002  0.00  0.00    +0.032 C 
ENDBRANCH   6  16
ENDBRANCH   2   9
ENDBRANCH   1   3
BRANCH   1  17
ATOM     17  N   UNL     1       4.373  -5.766  -3.688  0.00  0.00    +0.392 N 
ATOM     18  H   UNL     1       3.616  -5.733  -4.354  0.00  0.00    -0.084 HD
ATOM     19  H   UNL     1       5.081  -5.095  -3.949  0.00  0.00    -0.084 HD
BRANCH  17  20
ATOM     20  C   UNL     1       4.957  -7.114  -3.675  0.00  0.00    -0.003 C 
BRANCH  20  21
ATOM     21  C   UNL     1       5.590  -7.399  -5.013  0.00  0.00    -0.056 A 
ATOM     22  C   UNL     1       4.967  -6.984  -6.175  0.00  0.00    +0.005 A 
ATOM     23  C   UNL     1       5.547  -7.245  -7.402  0.00  0.00    +0.038 A 
ATOM     24  C   UNL     1       6.753  -7.922  -7.467  0.00  0.00    +0.123 A 
ATOM     25  C   UNL     1       7.376  -8.337  -6.303  0.00  0.00    +0.038 A 
ATOM     26  C   UNL     1       6.797  -8.070  -5.077  0.00  0.00    +0.005 A 
ATOM     27  F   UNL     1       7.321  -8.178  -8.666  0.00  0.00    -0.205 F 
ENDBRANCH  20  21
BRANCH  20  28
ATOM     28  C   UNL     1       3.875  -8.127  -3.405  0.00  0.00    -0.020 A 
ATOM     29  C   UNL     1       3.919  -9.236  -2.627  0.00  0.00    +0.010 A 
ATOM     30  C   UNL     1       2.792 -10.029  -2.526  0.00  0.00    +0.008 A 
ATOM     31  C   UNL     1       1.675  -9.674  -3.207  0.00  0.00    +0.045 A 
ATOM     32  S   UNL     1       2.200  -8.175  -4.021  0.00  0.00    -0.103 S 
ENDBRANCH  20  28
ENDBRANCH  17  20
ENDBRANCH   1  17
TORSDOF 7
