REMARK  Name = ZINC33606860
REMARK  12 active torsions:
REMARK  status: ('A' for Active; 'I' for Inactive)
REMARK    1  A    between atoms: C_1  and  C_2
REMARK    2  A    between atoms: N_4  and  C_5
REMARK    3  A    between atoms: C_7  and  N_24
REMARK    4  A    between atoms: C_10  and  N_11
REMARK    5  A    between atoms: N_12  and  C_13
REMARK    6  A    between atoms: C_16  and  N_20
REMARK    7  A    between atoms: N_24  and  C_25
REMARK    8  A    between atoms: C_25  and  C_26
REMARK    9  A    between atoms: C_26  and  C_28
REMARK   10  A    between atoms: C_26  and  O_36
REMARK   11  A    between atoms: C_28  and  O_29
REMARK   12  A    between atoms: O_29  and  C_30
REMARK                            x       y       z     vdW  Elec       q    Type
REMARK                         _______ _______ _______ _____ _____    ______ ____
ROOT
ATOM      1  C   UNL     1      -2.360   1.112  -0.073  0.00  0.00    +0.063 A 
ATOM      2  C   UNL     1      -2.296  -0.272  -0.073  0.00  0.00    +0.050 A 
ATOM      3  C   UNL     1      -3.462  -1.021  -0.164  0.00  0.00    +0.048 A 
ATOM      4  C   UNL     1      -4.700  -0.387  -0.255  0.00  0.00    +0.064 A 
ATOM      5  C   UNL     1      -4.777   0.987  -0.255  0.00  0.00    +0.053 A 
ATOM      6  C   UNL     1      -3.608   1.753  -0.159  0.00  0.00    +0.109 A 
ATOM      7 CL   UNL     1      -6.151  -1.333  -0.368  0.00  0.00    -0.082 Cl
ENDROOT
BRANCH   1  11
ATOM      8  C   UNL     1       1.208   2.102   0.573  0.00  0.00    +0.109 C 
ATOM      9  C   UNL     1      -0.091   1.339   0.591  0.00  0.00    +0.214 C 
ATOM     10  O   UNL     1      -0.145   0.247   1.116  0.00  0.00    -0.276 OA
ATOM     11  N   UNL     1      -1.191   1.867   0.018  0.00  0.00    -0.284 N 
ATOM     12  H   UNL     1      -1.166   2.893  -0.378  0.00  0.00    +0.155 HD
ENDBRANCH   1  11
BRANCH   6  13
ATOM     13  N   UNL     1      -3.680   3.112  -0.154  0.00  0.00    -0.147 NA
ATOM     14  N   UNL     1      -4.827   3.698  -0.233  0.00  0.00    -0.148 NA
BRANCH  14  15
ATOM     15  C   UNL     1      -4.899   5.063  -0.227  0.00  0.00    +0.105 A 
ATOM     16  C   UNL     1      -3.734   5.828  -0.131  0.00  0.00    +0.033 A 
ATOM     17  C   UNL     1      -3.814   7.204  -0.130  0.00  0.00    +0.035 A 
ATOM     18  C   UNL     1      -5.046   7.830  -0.215  0.00  0.00    +0.128 A 
ATOM     19  C   UNL     1      -6.205   7.081  -0.306  0.00  0.00    +0.055 A 
ATOM     20  C   UNL     1      -6.141   5.701  -0.312  0.00  0.00    +0.070 A 
ATOM     21 CL   UNL     1      -7.596   4.762  -0.426  0.00  0.00    -0.081 Cl
BRANCH  18  22
ATOM     22  N   UNL     1      -5.123   9.308  -0.208  0.00  0.00    +0.056 N 
ATOM     23  O   UNL     1      -6.205   9.862  -0.282  0.00  0.00    -0.126 OA
ATOM     24  O   UNL     1      -4.104   9.971  -0.128  0.00  0.00    -0.126 OA
ENDBRANCH  18  22
ENDBRANCH  14  15
ENDBRANCH   6  13
BRANCH   3  25
ATOM     25  N   UNL     1      -3.393  -2.413  -0.165  0.00  0.00    -0.340 N 
ATOM     26  H   UNL     1      -4.315  -3.008  -0.237  0.00  0.00    +0.146 HD
BRANCH  25  27
ATOM     27  C   UNL     1      -2.094  -3.082  -0.069  0.00  0.00    +0.136 C 
BRANCH  27  28
ATOM     28  C   UNL     1      -2.299  -4.598  -0.091  0.00  0.00    +0.169 C 
BRANCH  28  29
ATOM     29  O   UNL     1      -3.116  -4.984   1.016  0.00  0.00    -0.387 OA
ATOM     30  H   UNL     1      -3.373  -6.043   1.167  0.00  0.00    +0.210 HD
ENDBRANCH  28  29
BRANCH  28  31
ATOM     31  C   UNL     1      -0.941  -5.298   0.009  0.00  0.00    +0.261 C 
BRANCH  31  32
ATOM     32  O   UNL     1      -1.121  -6.708  -0.128  0.00  0.00    -0.489 OA
BRANCH  32  33
ATOM     33  C   UNL     1      -0.006  -7.482  -0.063  0.00  0.00    +0.121 A 
ATOM     34  C   UNL     1       1.237  -6.895   0.124  0.00  0.00    +0.045 A 
ATOM     35  C   UNL     1       2.369  -7.684   0.197  0.00  0.00    +0.004 A 
ATOM     36  C   UNL     1       2.265  -9.057   0.071  0.00  0.00    +0.000 A 
ATOM     37  C   UNL     1       1.028  -9.644  -0.121  0.00  0.00    +0.004 A 
ATOM     38  C   UNL     1      -0.107  -8.860  -0.188  0.00  0.00    +0.045 A 
ENDBRANCH  32  33
ENDBRANCH  31  32
ENDBRANCH  28  31
ENDBRANCH  27  28
ENDBRANCH  25  27
ENDBRANCH   3  25
TORSDOF 11
