REMARK  Name = ZINC64044611
REMARK  1 active torsions:
REMARK  status: ('A' for Active; 'I' for Inactive)
REMARK    1  A    between atoms: C_8  and  C_13
REMARK                            x       y       z     vdW  Elec       q    Type
REMARK                         _______ _______ _______ _____ _____    ______ ____
ROOT
ATOM      1  C   UNL     1       1.024   1.810   0.073  0.00  0.00    +0.001 A 
ATOM      2  C   UNL     1       2.334   2.282   0.153  0.00  0.00    +0.002 A 
ATOM      3  C   UNL     1       3.412   1.455   0.173  0.00  0.00    +0.024 A 
ATOM      4  C   UNL     1       3.243   0.060   0.113  0.00  0.00    +0.040 A 
ATOM      5  N   UNL     1       4.307  -0.742   0.134  0.00  0.00    -0.284 N 
ATOM      6  C   UNL     1       4.219  -2.061   0.080  0.00  0.00    +0.228 C 
ATOM      7  O   UNL     1       5.227  -2.741   0.103  0.00  0.00    -0.274 OA
ATOM      8  C   UNL     1       2.861  -2.719  -0.010  0.00  0.00    +0.122 C 
ATOM      9  C   UNL     1       1.647  -1.811  -0.034  0.00  0.00    -0.001 C 
ATOM     10  C   UNL     1       1.869  -0.467   0.028  0.00  0.00    -0.007 A 
ATOM     11  C   UNL     1       0.754   0.480   0.010  0.00  0.00    +0.009 A 
ATOM     12  H   UNL     1       5.188  -0.340   0.191  0.00  0.00    +0.155 HD
ENDROOT
BRANCH   8  13
ATOM     13  C   UNL     1       2.835  -3.557  -1.262  0.00  0.00    +0.008 C 
ATOM     14  C   UNL     1       2.421  -4.843  -1.206  0.00  0.00    +0.098 C 
ATOM     15  C   UNL     1       1.765  -5.394  -0.001  0.00  0.00    +0.274 C 
ATOM     16  O   UNL     1       1.559  -4.623   1.087  0.00  0.00    -0.268 OA
ATOM     17  N   UNL     1       1.386  -6.656  -0.015  0.00  0.00    -0.154 NA
ATOM     18  C   UNL     1       1.575  -7.442  -1.074  0.00  0.00    +0.164 C 
ATOM     19  S   UNL     1       1.042  -9.066  -0.978  0.00  0.00    -0.016 S 
ATOM     20  N   UNL     1       2.159  -7.035  -2.210  0.00  0.00    -0.262 N 
ATOM     21  C   UNL     1       2.598  -5.766  -2.354  0.00  0.00    +0.254 C 
ATOM     22  O   UNL     1       3.123  -5.395  -3.386  0.00  0.00    -0.270 OA
ATOM     23  H   UNL     1       2.264  -7.662  -2.943  0.00  0.00    +0.157 HD
ENDBRANCH   8  13
TORSDOF 1
