REMARK  Name = ZINC14163587
REMARK  5 active torsions:
REMARK  status: ('A' for Active; 'I' for Inactive)
REMARK    1  A    between atoms: C_1  and  C_2
REMARK    2  A    between atoms: C_3  and  C_20
REMARK    3  A    between atoms: C_10  and  C_14
REMARK    4  A    between atoms: C_11  and  C_13
REMARK    5  A    between atoms: C_20  and  C_21
REMARK                            x       y       z     vdW  Elec       q    Type
REMARK                         _______ _______ _______ _____ _____    ______ ____
ROOT
ATOM      1  C   UNL     1       1.230   2.180  -2.466  0.00  0.00    +0.064 C 
ATOM      2  C   UNL     1       1.986   2.326  -1.171  0.00  0.00    +0.024 A 
ATOM      3  C   UNL     1       1.396   1.989  -0.001  0.00  0.00    +0.051 A 
ATOM      4  C   UNL     1       2.105   2.133   1.209  0.00  0.00    +0.279 A 
ATOM      5  O   UNL     1       1.577   1.836   2.266  0.00  0.00    -0.265 OA
ATOM      6  N   UNL     1       3.372   2.595   1.192  0.00  0.00    -0.179 N 
ATOM      7  C   UNL     1       3.957   2.932   0.008  0.00  0.00    +0.146 A 
ATOM      8  N   UNL     1       3.264   2.798  -1.176  0.00  0.00    -0.343 N 
ATOM      9  H   UNL     1       3.687   3.039  -2.015  0.00  0.00    +0.167 HD
ATOM     10  C   UNL     1       5.237   3.375   0.296  0.00  0.00    +0.047 A 
ATOM     11  C   UNL     1       5.403   3.294   1.691  0.00  0.00    +0.070 A 
ATOM     12  N   UNL     1       4.298   2.833   2.215  0.00  0.00    -0.166 NA
ATOM     13  C   UNL     1       6.646   3.675   2.453  0.00  0.00    +0.068 C 
ENDROOT
BRANCH  10  14
ATOM     14  C   UNL     1       6.246   3.846  -0.683  0.00  0.00    -0.013 A 
ATOM     15  C   UNL     1       6.773   2.963  -1.624  0.00  0.00    +0.009 A 
ATOM     16  C   UNL     1       7.709   3.408  -2.536  0.00  0.00    +0.001 A 
ATOM     17  C   UNL     1       8.131   4.725  -2.510  0.00  0.00    +0.000 A 
ATOM     18  C   UNL     1       7.615   5.604  -1.575  0.00  0.00    +0.001 A 
ATOM     19  C   UNL     1       6.676   5.172  -0.662  0.00  0.00    +0.009 A 
ENDBRANCH  10  14
BRANCH   3  20
ATOM     20  C   UNL     1      -0.018   1.468   0.010  0.00  0.00    +0.160 C 
BRANCH  20  21
ATOM     21  C   UNL     1       0.002  -0.004   0.002  0.00  0.00    +0.067 C 
ATOM     22  N   UNL     1       0.018  -1.140  -0.004  0.00  0.00    -0.196 NA
ENDBRANCH  20  21
ENDBRANCH   3  20
TORSDOF 3
