REMARK  Name = ZINC63503195
REMARK  9 active torsions:
REMARK  status: ('A' for Active; 'I' for Inactive)
REMARK    1  A    between atoms: C_1  and  C_2
REMARK    2  A    between atoms: C_5  and  N_8
REMARK    3  A    between atoms: C_9  and  C_11
REMARK    4  A    between atoms: C_11  and  C_13
REMARK    5  A    between atoms: C_11  and  N_23
REMARK    6  A    between atoms: C_13  and  C_14
REMARK    7  A    between atoms: C_24  and  C_26
REMARK    8  A    between atoms: C_26  and  C_27
REMARK    9  A    between atoms: C_26  and  C_33
REMARK                            x       y       z     vdW  Elec       q    Type
REMARK                         _______ _______ _______ _____ _____    ______ ____
ROOT
ATOM      1  C   UNL     1       1.679  -6.129   1.220  0.00  0.00    +0.163 C 
ENDROOT
BRANCH   1   3
ATOM      2  N   UNL     1       2.186  -3.908   0.258  0.00  0.00    -0.284 N 
ATOM      3  C   UNL     1       1.821  -4.633   1.333  0.00  0.00    +0.238 C 
ATOM      4  O   UNL     1       1.605  -4.082   2.392  0.00  0.00    -0.273 OA
ATOM      5  H   UNL     1       2.289  -4.338  -0.605  0.00  0.00    +0.155 HD
BRANCH   2  10
ATOM      6  C   UNL     1       3.126   1.663   0.780  0.00  0.00    +0.044 C 
ATOM      7  C   UNL     1       2.877   0.183   0.641  0.00  0.00    -0.050 A 
ATOM      8  C   UNL     1       3.047  -0.651   1.732  0.00  0.00    +0.005 A 
ATOM      9  C   UNL     1       2.819  -2.007   1.608  0.00  0.00    +0.023 A 
ATOM     10  C   UNL     1       2.418  -2.534   0.387  0.00  0.00    +0.033 A 
ATOM     11  C   UNL     1       2.247  -1.694  -0.706  0.00  0.00    +0.023 A 
ATOM     12  C   UNL     1       2.472  -0.338  -0.574  0.00  0.00    +0.005 A 
ENDBRANCH   2  10
ENDBRANCH   1   3
BRANCH   1  13
ATOM     13  N   UNL     1       1.276  -6.681   2.516  0.00  0.00    -0.303 N 
ATOM     14  C   UNL     1       1.562  -7.962   2.822  0.00  0.00    +0.225 C 
ATOM     15  O   UNL     1       2.154  -8.658   2.024  0.00  0.00    -0.275 OA
ATOM     16  H   UNL     1       0.802  -6.124   3.154  0.00  0.00    +0.149 HD
BRANCH  14  17
ATOM     17  C   UNL     1       1.146  -8.530   4.154  0.00  0.00    +0.135 C 
BRANCH  17  18
ATOM     18  C   UNL     1       1.583  -9.969   4.246  0.00  0.00    -0.031 A 
ATOM     19  C   UNL     1       0.664 -10.951   4.565  0.00  0.00    +0.005 A 
ATOM     20  C   UNL     1       1.064 -12.271   4.648  0.00  0.00    +0.000 A 
ATOM     21  C   UNL     1       2.383 -12.610   4.412  0.00  0.00    +0.000 A 
ATOM     22  C   UNL     1       3.302 -11.628   4.092  0.00  0.00    +0.000 A 
ATOM     23  C   UNL     1       2.901 -10.308   4.005  0.00  0.00    +0.005 A 
ENDBRANCH  17  18
BRANCH  17  24
ATOM     24  C   UNL     1       1.793  -7.738   5.261  0.00  0.00    -0.031 A 
ATOM     25  C   UNL     1       3.159  -7.526   5.253  0.00  0.00    +0.005 A 
ATOM     26  C   UNL     1       3.753  -6.800   6.268  0.00  0.00    +0.000 A 
ATOM     27  C   UNL     1       2.980  -6.284   7.292  0.00  0.00    +0.000 A 
ATOM     28  C   UNL     1       1.614  -6.495   7.300  0.00  0.00    +0.000 A 
ATOM     29  C   UNL     1       1.020  -7.218   6.282  0.00  0.00    +0.005 A 
ENDBRANCH  17  24
ENDBRANCH  14  17
ENDBRANCH   1  13
BRANCH   1  30
ATOM     30  C   UNL     1       0.618  -6.464   0.170  0.00  0.00    +0.065 C 
BRANCH  30  31
ATOM     31  C   UNL     1       0.564  -7.956  -0.031  0.00  0.00    -0.039 C 
ATOM     32  C   UNL     1      -0.280  -8.827   0.567  0.00  0.00    -0.001 A 
ATOM     33  C   UNL     1      -1.358  -8.653   1.548  0.00  0.00    +0.010 A 
ATOM     34  C   UNL     1      -2.043  -9.740   1.971  0.00  0.00    +0.001 A 
ATOM     35  C   UNL     1      -1.749 -11.026   1.497  0.00  0.00    +0.002 A 
ATOM     36  C   UNL     1      -0.774 -11.266   0.595  0.00  0.00    +0.026 A 
ATOM     37  C   UNL     1       0.009 -10.195   0.082  0.00  0.00    +0.043 A 
ATOM     38  N   UNL     1       0.994 -10.171  -0.783  0.00  0.00    -0.380 N 
ATOM     39  C   UNL     1       1.437  -8.782  -0.949  0.00  0.00    +0.144 C 
ATOM     40  H   UNL     1       1.365 -10.942  -1.240  0.00  0.00    +0.160 HD
ENDBRANCH  30  31
ENDBRANCH   1  30
TORSDOF 8
