REMARK  Name = ZINC09780971
REMARK  7 active torsions:
REMARK  status: ('A' for Active; 'I' for Inactive)
REMARK    1  A    between atoms: C_1  and  N_2
REMARK    2  A    between atoms: N_2  and  C_3
REMARK    3  A    between atoms: N_2  and  C_4
REMARK    4  A    between atoms: C_7  and  C_10
REMARK    5  A    between atoms: C_15  and  S_19
REMARK    6  A    between atoms: S_19  and  C_20
REMARK    7  A    between atoms: C_20  and  C_21
REMARK                            x       y       z     vdW  Elec       q    Type
REMARK                         _______ _______ _______ _____ _____    ______ ____
ROOT
ATOM      1  C   UNL     1      -0.006  -2.813  -4.924  0.00  0.00    +0.092 C 
ATOM      2  C   UNL     1       1.222  -2.445  -5.700  0.00  0.00    +0.071 A 
ATOM      3  C   UNL     1       1.150  -1.555  -6.764  0.00  0.00    +0.135 A 
ATOM      4  N   UNL     1       2.257  -1.246  -7.431  0.00  0.00    -0.206 NA
ATOM      5  C   UNL     1       3.420  -1.782  -7.089  0.00  0.00    +0.194 A 
ATOM      6  N   UNL     1       3.526  -2.635  -6.080  0.00  0.00    -0.183 NA
ATOM      7  C   UNL     1       2.458  -2.987  -5.370  0.00  0.00    +0.280 A 
ATOM      8  O   UNL     1       2.575  -3.859  -4.339  0.00  0.00    -0.265 OA
ATOM      9  N   UNL     1      -0.071  -1.006  -7.116  0.00  0.00    -0.302 N 
ATOM     10  C   UNL     1      -1.239  -1.596  -6.717  0.00  0.00    +0.017 C 
ATOM     11  C   UNL     1      -1.260  -2.467  -5.688  0.00  0.00    +0.024 C 
ATOM     12  C   UNL     1      -2.458  -3.087  -5.292  0.00  0.00    +0.162 C 
ATOM     13  C   UNL     1      -3.755  -2.811  -6.002  0.00  0.00    +0.080 C 
ATOM     14  C   UNL     1      -3.456  -2.433  -7.456  0.00  0.00    +0.014 C 
ATOM     15  C   UNL     1      -2.505  -1.240  -7.460  0.00  0.00    +0.051 C 
ATOM     16  O   UNL     1      -2.446  -3.863  -4.356  0.00  0.00    -0.292 OA
ATOM     17  H   UNL     1      -0.099  -0.197  -7.651  0.00  0.00    +0.153 HD
ENDROOT
BRANCH   1  21
ATOM     18  C   UNL     1       0.000  -0.696  -1.211  0.00  0.00    +0.029 A 
ATOM     19  C   UNL     1       0.013  -2.085  -1.221  0.00  0.00    +0.023 A 
ATOM     20  C   UNL     1       0.010  -2.766  -2.422  0.00  0.00    +0.006 A 
ATOM     21  C   UNL     1      -0.005  -2.066  -3.615  0.00  0.00    -0.035 A 
ATOM     22  C   UNL     1      -0.018  -0.684  -3.609  0.00  0.00    +0.006 A 
ATOM     23  C   UNL     1      -0.021   0.004  -2.411  0.00  0.00    +0.023 A 
BRANCH  18  25
ATOM     24  C   UNL     1      -0.018   1.461   0.010  0.00  0.00    +0.129 C 
ATOM     25  N   UNL     1       0.002  -0.004   0.002  0.00  0.00    -0.336 N 
ATOM     26  C   UNL     1       0.024  -0.743   1.267  0.00  0.00    +0.129 C 
ENDBRANCH  18  25
ENDBRANCH   1  21
BRANCH   5  27
ATOM     27  S   UNL     1       4.865  -1.348  -8.000  0.00  0.00    -0.081 S 
BRANCH  27  28
ATOM     28  C   UNL     1       6.189  -2.295  -7.199  0.00  0.00    +0.112 C 
BRANCH  28  29
ATOM     29  C   UNL     1       7.498  -2.011  -7.891  0.00  0.00    -0.037 A 
ATOM     30  C   UNL     1       7.897  -2.790  -8.961  0.00  0.00    +0.004 A 
ATOM     31  C   UNL     1       9.097  -2.530  -9.596  0.00  0.00    +0.000 A 
ATOM     32  C   UNL     1       9.899  -1.491  -9.160  0.00  0.00    +0.000 A 
ATOM     33  C   UNL     1       9.499  -0.713  -8.090  0.00  0.00    +0.000 A 
ATOM     34  C   UNL     1       8.297  -0.970  -7.458  0.00  0.00    +0.004 A 
ENDBRANCH  28  29
ENDBRANCH  27  28
ENDBRANCH   5  27
TORSDOF 5
