REMARK  Name = ZINC36016738
REMARK  12 active torsions:
REMARK  status: ('A' for Active; 'I' for Inactive)
REMARK    1  A    between atoms: C_1  and  C_2
REMARK    2  A    between atoms: C_2  and  C_3
REMARK    3  A    between atoms: N_8  and  C_13
REMARK    4  A    between atoms: C_10  and  C_12
REMARK    5  A    between atoms: C_13  and  C_14
REMARK    6  A    between atoms: C_15  and  C_32
REMARK    7  A    between atoms: C_16  and  C_24
REMARK    8  A    between atoms: N_21  and  C_22
REMARK    9  A    between atoms: C_22  and  C_23
REMARK   10  A    between atoms: C_32  and  O_34
REMARK   11  A    between atoms: O_34  and  C_35
REMARK   12  A    between atoms: C_35  and  C_36
REMARK                            x       y       z     vdW  Elec       q    Type
REMARK                         _______ _______ _______ _____ _____    ______ ____
ROOT
ATOM      1  C   UNL     1      -1.340  -6.901   1.630  0.00  0.00    +0.041 C 
ATOM      2  C   UNL     1      -0.372  -7.369   2.448  0.00  0.00    +0.080 C 
ATOM      3  C   UNL     1       0.526  -8.469   1.921  0.00  0.00    +0.145 C 
ATOM      4  N   UNL     1       0.268  -8.941   0.550  0.00  0.00    -0.288 N 
ATOM      5  C   UNL     1      -0.738  -8.374  -0.145  0.00  0.00    +0.307 C 
ATOM      6  O   UNL     1      -0.958  -8.757  -1.277  0.00  0.00    -0.252 OA
ATOM      7  N   UNL     1      -1.505  -7.407   0.373  0.00  0.00    -0.258 N 
ATOM      8  H   UNL     1       0.810  -9.643   0.157  0.00  0.00    +0.151 HD
ENDROOT
BRANCH   3   9
ATOM      9  C   UNL     1       1.949  -7.977   1.982  0.00  0.00    -0.004 A 
ATOM     10  C   UNL     1       2.504  -7.330   0.894  0.00  0.00    +0.008 A 
ATOM     11  C   UNL     1       3.809  -6.878   0.949  0.00  0.00    +0.020 A 
ATOM     12  C   UNL     1       4.561  -7.072   2.094  0.00  0.00    +0.042 A 
ATOM     13  C   UNL     1       4.006  -7.719   3.184  0.00  0.00    +0.040 A 
ATOM     14  C   UNL     1       2.698  -8.167   3.130  0.00  0.00    +0.048 A 
ATOM     15 CL   UNL     1       1.999  -8.973   4.499  0.00  0.00    -0.083 Cl
ATOM     16 CL   UNL     1       6.200  -6.505   2.163  0.00  0.00    -0.083 Cl
ENDBRANCH   3   9
BRANCH   7  17
ATOM     17  C   UNL     1      -2.579  -6.857  -0.458  0.00  0.00    +0.111 C 
ATOM     18  C   UNL     1      -2.042  -5.674  -1.267  0.00  0.00    +0.025 C 
ENDBRANCH   7  17
BRANCH   2  19
ATOM     19  C   UNL     1      -0.203  -6.849   3.753  0.00  0.00    +0.339 C 
ATOM     20  O   UNL     1       0.717  -6.088   3.990  0.00  0.00    -0.245 OA
BRANCH  19  21
ATOM     21  O   UNL     1      -1.062  -7.196   4.734  0.00  0.00    -0.462 OA
BRANCH  21  22
ATOM     22  C   UNL     1      -0.831  -6.633   6.027  0.00  0.00    +0.229 C 
ATOM     23  C   UNL     1      -1.897  -7.138   7.001  0.00  0.00    +0.048 C 
ENDBRANCH  21  22
ENDBRANCH  19  21
ENDBRANCH   2  19
BRANCH   1  24
ATOM     24  C   UNL     1      -2.255  -5.806   2.115  0.00  0.00    +0.136 C 
BRANCH  24  30
ATOM     25  C   UNL     1      -1.144  -0.598   1.075  0.00  0.00    +0.216 C 
ATOM     26  O   UNL     1      -2.041   0.218   1.077  0.00  0.00    -0.276 OA
ATOM     27  N   UNL     1      -1.416  -1.897   0.839  0.00  0.00    -0.296 N 
ATOM     28  C   UNL     1      -0.333  -2.885   0.721  0.00  0.00    +0.123 C 
ATOM     29  C   UNL     1      -0.642  -4.060   1.655  0.00  0.00    +0.104 C 
ATOM     30  N   UNL     1      -1.987  -4.574   1.362  0.00  0.00    -0.294 NA
ATOM     31  C   UNL     1      -3.015  -3.559   1.629  0.00  0.00    +0.107 C 
ATOM     32  C   UNL     1      -2.803  -2.365   0.700  0.00  0.00    +0.087 C 
ATOM     33  C   UNL     1      -3.766  -1.240   1.085  0.00  0.00    +0.029 C 
BRANCH  25  35
ATOM     34  C   UNL     1       0.306   1.351   1.570  0.00  0.00    +0.013 C 
ATOM     35  C   UNL     1       0.274  -0.160   1.335  0.00  0.00    +0.092 C 
ENDBRANCH  25  35
ENDBRANCH  24  30
ENDBRANCH   1  24
TORSDOF 8
