REMARK  Name = ZINC03542278
REMARK  9 active torsions:
REMARK  status: ('A' for Active; 'I' for Inactive)
REMARK    1  A    between atoms: C_1  and  C_2
REMARK    2  A    between atoms: C_5  and  C_8
REMARK    3  A    between atoms: C_11  and  S_14
REMARK    4  A    between atoms: N_12  and  N_13
REMARK    5  A    between atoms: S_14  and  C_15
REMARK    6  A    between atoms: C_15  and  C_16
REMARK    7  A    between atoms: N_18  and  N_19
REMARK    8  A    between atoms: C_20  and  C_22
REMARK    9  A    between atoms: C_25  and  N_28
REMARK                            x       y       z     vdW  Elec       q    Type
REMARK                         _______ _______ _______ _____ _____    ______ ____
ROOT
ATOM      1  C   UNL     1       3.315  -6.580  -0.705  0.00  0.00    +0.174 C 
ENDROOT
BRANCH   1   2
ATOM      2  C   UNL     1       3.130  -5.103  -0.939  0.00  0.00    +0.239 C 
ATOM      3  O   UNL     1       4.094  -4.368  -0.968  0.00  0.00    -0.273 OA
ATOM      4  N   UNL     1       1.892  -4.598  -1.114  0.00  0.00    -0.233 N 
ATOM      5  H   UNL     1       1.121  -5.186  -1.090  0.00  0.00    +0.173 HD
BRANCH   4   6
ATOM      6  N   UNL     1       1.720  -3.225  -1.331  0.00  0.00    -0.230 N 
ATOM      7  C   UNL     1       0.483  -2.720  -1.506  0.00  0.00    +0.260 C 
ATOM      8  O   UNL     1      -0.484  -3.457  -1.476  0.00  0.00    -0.269 OA
ATOM      9  H   UNL     1       2.491  -2.637  -1.355  0.00  0.00    +0.173 HD
BRANCH   7  10
ATOM     10  C   UNL     1       0.301  -1.271  -1.735  0.00  0.00    +0.038 A 
ATOM     11  C   UNL     1      -0.979  -0.745  -1.917  0.00  0.00    +0.015 A 
ATOM     12  C   UNL     1      -1.142   0.608  -2.129  0.00  0.00    +0.033 A 
ATOM     13  C   UNL     1      -0.039   1.444  -2.162  0.00  0.00    +0.126 A 
ATOM     14  C   UNL     1       1.232   0.929  -1.983  0.00  0.00    +0.033 A 
ATOM     15  C   UNL     1       1.409  -0.422  -1.769  0.00  0.00    +0.015 A 
BRANCH  13  16
ATOM     16  N   UNL     1      -0.221   2.895  -2.391  0.00  0.00    +0.056 N 
ATOM     17  O   UNL     1      -1.340   3.351  -2.549  0.00  0.00    -0.126 OA
ATOM     18  O   UNL     1       0.747   3.633  -2.421  0.00  0.00    -0.126 OA
ENDBRANCH  13  16
ENDBRANCH   7  10
ENDBRANCH   4   6
ENDBRANCH   1   2
BRANCH   1  19
ATOM     19  S   UNL     1       5.077  -6.943  -0.508  0.00  0.00    -0.075 S 
BRANCH  19  23
ATOM     20  C   UNL     1       5.527 -10.777   0.095  0.00  0.00    +0.182 A 
ATOM     21  N   UNL     1       4.226 -10.656  -0.029  0.00  0.00    -0.127 NA
ATOM     22  N   UNL     1       3.917  -9.425  -0.231  0.00  0.00    -0.121 NA
ATOM     23  C   UNL     1       5.004  -8.686  -0.257  0.00  0.00    +0.209 A 
ATOM     24  N   UNL     1       6.065  -9.519  -0.047  0.00  0.00    -0.224 N 
BRANCH  20  29
ATOM     25  C   UNL     1       8.431 -15.652   1.054  0.00  0.00    +0.044 C 
ATOM     26  C   UNL     1       7.670 -14.376   0.803  0.00  0.00    -0.050 A 
ATOM     27  C   UNL     1       8.280 -13.155   1.029  0.00  0.00    +0.004 A 
ATOM     28  C   UNL     1       7.590 -11.982   0.801  0.00  0.00    +0.012 A 
ATOM     29  C   UNL     1       6.273 -12.030   0.341  0.00  0.00    +0.021 A 
ATOM     30  C   UNL     1       5.661 -13.265   0.120  0.00  0.00    +0.012 A 
ATOM     31  C   UNL     1       6.365 -14.430   0.347  0.00  0.00    +0.004 A 
ENDBRANCH  20  29
BRANCH  24  32
ATOM     32  N   UNL     1       7.386  -9.176   0.009  0.00  0.00    -0.295 N 
ATOM     33  H   UNL     1       7.683  -9.036   0.963  0.00  0.00    +0.163 HD
ATOM     34  H   UNL     1       7.959  -9.867  -0.451  0.00  0.00    +0.163 HD
ENDBRANCH  24  32
ENDBRANCH  19  23
ENDBRANCH   1  19
TORSDOF 8
