REMARK  Name = ZINC32969131
REMARK  11 active torsions:
REMARK  status: ('A' for Active; 'I' for Inactive)
REMARK    1  A    between atoms: C_1  and  O_2
REMARK    2  A    between atoms: O_2  and  C_3
REMARK    3  A    between atoms: C_6  and  C_9
REMARK    4  A    between atoms: C_9  and  C_11
REMARK    5  A    between atoms: C_9  and  N_28
REMARK    6  A    between atoms: C_11  and  N_12
REMARK    7  A    between atoms: C_13  and  C_15
REMARK    8  A    between atoms: C_15  and  C_16
REMARK    9  A    between atoms: C_16  and  N_17
REMARK   10  A    between atoms: N_17  and  S_18
REMARK   11  A    between atoms: S_18  and  C_21
REMARK                            x       y       z     vdW  Elec       q    Type
REMARK                         _______ _______ _______ _____ _____    ______ ____
ROOT
ATOM      1  N   UNL     1      -3.077   5.173  -4.516  0.00  0.00    -0.317 N 
ATOM      2  C   UNL     1      -3.223   4.637  -3.288  0.00  0.00    +0.214 C 
ATOM      3  O   UNL     1      -3.489   5.349  -2.343  0.00  0.00    -0.276 OA
ATOM      4  H   UNL     1      -2.836   4.527  -5.373  0.00  0.00    +0.149 HD
ENDROOT
BRANCH   1   5
ATOM      5  C   UNL     1      -3.239   6.616  -4.709  0.00  0.00    +0.093 C 
BRANCH   5   6
ATOM      6  C   UNL     1      -3.022   6.961  -6.184  0.00  0.00    -0.020 C 
BRANCH   6   7
ATOM      7  N   UNL     1      -1.713   6.455  -6.618  0.00  0.00    +0.385 N 
ATOM      8  C   UNL     1      -0.627   7.089  -5.860  0.00  0.00    -0.078 C 
ATOM      9  C   UNL     1       0.706   6.436  -6.234  0.00  0.00    -0.019 C 
ATOM     10  C   UNL     1       0.945   6.599  -7.738  0.00  0.00    -0.004 C 
ATOM     11  C   UNL     1      -0.225   5.973  -8.503  0.00  0.00    -0.019 C 
ATOM     12  C   UNL     1      -1.531   6.640  -8.063  0.00  0.00    -0.078 C 
ATOM     13  H   UNL     1      -1.681   5.375  -6.411  0.00  0.00    -0.081 HD
ENDBRANCH   6   7
BRANCH   6  17
ATOM     14  C   UNL     1      -3.150  11.202  -6.689  0.00  0.00    +0.120 A 
ATOM     15  C   UNL     1      -3.920  10.382  -7.501  0.00  0.00    +0.046 A 
ATOM     16  C   UNL     1      -3.876   9.012  -7.336  0.00  0.00    +0.005 A 
ATOM     17  C   UNL     1      -3.067   8.457  -6.362  0.00  0.00    -0.059 A 
ATOM     18  C   UNL     1      -2.304   9.272  -5.547  0.00  0.00    +0.005 A 
ATOM     19  C   UNL     1      -2.339  10.643  -5.712  0.00  0.00    +0.046 A 
BRANCH  14  21
ATOM     20  C   UNL     1      -2.373  13.333  -5.977  0.00  0.00    +0.277 C 
ATOM     21  O   UNL     1      -3.192  12.551  -6.849  0.00  0.00    -0.495 OA
ENDBRANCH  14  21
ENDBRANCH   6  17
ENDBRANCH   5   6
ENDBRANCH   1   5
BRANCH   2  22
ATOM     22  C   UNL     1      -3.056   3.152  -3.090  0.00  0.00    +0.112 C 
BRANCH  22  23
ATOM     23  C   UNL     1      -3.273   2.808  -1.615  0.00  0.00    +0.115 C 
BRANCH  23  24
ATOM     24  N   UNL     1      -3.111   1.364  -1.421  0.00  0.00    -0.189 NA
ATOM     25  H   UNL     1      -3.279   0.675  -2.262  0.00  0.00    +0.148 HD
BRANCH  24  26
ATOM     26  S   UNL     1      -2.919   0.750   0.104  0.00  0.00    +0.058 S 
ATOM     27  O   UNL     1      -2.816  -0.661  -0.036  0.00  0.00    -0.153 OA
ATOM     28  O   UNL     1      -1.910   1.528   0.732  0.00  0.00    -0.153 OA
BRANCH  26  29
ATOM     29  C   UNL     1      -4.415   1.060   0.983  0.00  0.00    +0.105 A 
ATOM     30  C   UNL     1      -4.563   2.232   1.701  0.00  0.00    +0.029 A 
ATOM     31  C   UNL     1      -5.738   2.478   2.387  0.00  0.00    +0.017 A 
ATOM     32  C   UNL     1      -6.761   1.547   2.362  0.00  0.00    +0.018 A 
ATOM     33  C   UNL     1      -6.610   0.372   1.647  0.00  0.00    +0.017 A 
ATOM     34  C   UNL     1      -5.436   0.130   0.958  0.00  0.00    +0.029 A 
ATOM     35 BR   UNL     1      -8.366   1.880   3.305  0.00  0.00    -0.050 Br
ENDBRANCH  26  29
ENDBRANCH  24  26
ENDBRANCH  23  24
ENDBRANCH  22  23
ENDBRANCH   2  22
TORSDOF 10
