REMARK  Name = ZINC39662876
REMARK  7 active torsions:
REMARK  status: ('A' for Active; 'I' for Inactive)
REMARK    1  A    between atoms: C_1  and  C_2
REMARK    2  A    between atoms: C_4  and  C_8
REMARK    3  A    between atoms: N_6  and  C_7
REMARK    4  A    between atoms: C_12  and  C_21
REMARK    5  A    between atoms: N_23  and  C_24
REMARK    6  A    between atoms: C_24  and  C_25
REMARK    7  A    between atoms: C_28  and  C_31
REMARK                            x       y       z     vdW  Elec       q    Type
REMARK                         _______ _______ _______ _____ _____    ______ ____
ROOT
ATOM      1  C   UNL     1       0.078  -3.477  -1.512  0.00  0.00    +0.267 C 
ATOM      2  O   UNL     1       0.017  -3.446  -2.726  0.00  0.00    -0.268 OA
ATOM      3  N   UNL     1       0.063  -4.660  -0.866  0.00  0.00    -0.295 N 
ATOM      4  C   UNL     1       0.121  -4.898   0.595  0.00  0.00    +0.121 C 
ATOM      5  C   UNL     1      -0.860  -6.066   0.841  0.00  0.00    +0.100 C 
ATOM      6  C   UNL     1      -0.945  -6.797  -0.509  0.00  0.00    -0.004 C 
ATOM      7  C   UNL     1      -0.022  -6.017  -1.457  0.00  0.00    +0.115 C 
ATOM      8  C   UNL     1      -2.377  -6.771  -1.036  0.00  0.00    -0.010 C 
ATOM      9  C   UNL     1      -2.446  -7.553  -2.351  0.00  0.00    -0.082 C 
ATOM     10  N   UNL     1      -2.013  -8.937  -2.122  0.00  0.00    +0.379 N 
ATOM     11  C   UNL     1      -0.606  -8.959  -1.704  0.00  0.00    -0.082 C 
ATOM     12  C   UNL     1      -0.459  -8.236  -0.363  0.00  0.00    -0.010 C 
ATOM     13  H   UNL     1      -2.583  -9.351  -1.400  0.00  0.00    -0.086 HD
ATOM     14  H   UNL     1      -2.118  -9.466  -2.975  0.00  0.00    -0.086 HD
ENDROOT
BRANCH   1  18
ATOM     15  C   UNL     1       0.342   1.422  -0.241  0.00  0.00    +0.065 C 
ATOM     16  C   UNL     1       0.282  -0.084  -0.207  0.00  0.00    +0.037 A 
ATOM     17  C   UNL     1       0.195  -0.907  -1.278  0.00  0.00    +0.057 A 
ATOM     18  C   UNL     1       0.169  -2.218  -0.745  0.00  0.00    +0.147 A 
ATOM     19  N   UNL     1       0.240  -2.102   0.566  0.00  0.00    -0.167 NA
ATOM     20  N   UNL     1       0.311  -0.862   0.896  0.00  0.00    -0.271 N 
ATOM     21  C   UNL     1       0.408  -0.365   2.270  0.00  0.00    +0.172 C 
ENDBRANCH   1  18
BRANCH   5  22
ATOM     22  C   UNL     1      -0.325  -6.986   1.906  0.00  0.00    +0.218 C 
ATOM     23  O   UNL     1       0.873  -7.123   2.045  0.00  0.00    -0.275 OA
ATOM     24  N   UNL     1      -1.176  -7.659   2.706  0.00  0.00    -0.315 N 
ATOM     25  H   UNL     1      -2.134  -7.550   2.596  0.00  0.00    +0.149 HD
BRANCH  24  26
ATOM     26  C   UNL     1      -0.655  -8.554   3.742  0.00  0.00    +0.107 C 
BRANCH  26  27
ATOM     27  C   UNL     1      -1.823  -9.188   4.502  0.00  0.00    +0.006 C 
ATOM     28  C   UNL     1      -2.620 -10.086   3.555  0.00  0.00    +0.006 C 
ATOM     29  C   UNL     1      -3.787 -10.720   4.315  0.00  0.00    +0.015 C 
ATOM     30  C   UNL     1      -3.246 -11.556   5.476  0.00  0.00    +0.102 C 
ATOM     31  C   UNL     1      -2.448 -10.658   6.423  0.00  0.00    +0.015 C 
ATOM     32  C   UNL     1      -1.281 -10.024   5.663  0.00  0.00    +0.006 C 
BRANCH  30  33
ATOM     33  C   UNL     1      -4.395 -12.180   6.224  0.00  0.00    +0.359 C 
ATOM     34  O   UNL     1      -4.308 -13.327   6.630  0.00  0.00    -0.246 OA
ATOM     35  O   UNL     1      -5.413 -11.539   6.424  0.00  0.00    -0.246 OA
ENDBRANCH  30  33
ENDBRANCH  26  27
ENDBRANCH  24  26
ENDBRANCH   5  22
TORSDOF 5
