REMARK  Name = ZINC40916534
REMARK  7 active torsions:
REMARK  status: ('A' for Active; 'I' for Inactive)
REMARK    1  A    between atoms: C_1  and  C_2
REMARK    2  A    between atoms: C_3  and  C_28
REMARK    3  A    between atoms: C_4  and  C_12
REMARK    4  A    between atoms: C_17  and  O_18
REMARK    5  A    between atoms: O_18  and  C_19
REMARK    6  A    between atoms: C_19  and  C_20
REMARK    7  A    between atoms: C_28  and  C_30
REMARK                            x       y       z     vdW  Elec       q    Type
REMARK                         _______ _______ _______ _____ _____    ______ ____
ROOT
ATOM      1  C   UNL     1      -1.717  -2.648   1.362  0.00  0.00    +0.023 A 
ATOM      2  C   UNL     1      -0.975  -2.350   2.488  0.00  0.00    +0.009 A 
ATOM      3  C   UNL     1      -1.397  -2.784   3.731  0.00  0.00    +0.001 A 
ATOM      4  C   UNL     1      -2.563  -3.518   3.850  0.00  0.00    +0.004 A 
ATOM      5  C   UNL     1      -3.309  -3.818   2.727  0.00  0.00    +0.046 A 
ATOM      6  C   UNL     1      -2.890  -3.379   1.479  0.00  0.00    +0.127 A 
ENDROOT
BRANCH   1  10
ATOM      7  C   UNL     1      -0.018   1.503   0.010  0.00  0.00    +0.061 C 
ATOM      8  C   UNL     1       0.002  -0.004   0.002  0.00  0.00    +0.016 C 
ATOM      9  C   UNL     1      -1.169  -0.671   0.004  0.00  0.00    +0.040 C 
ATOM     10  C   UNL     1      -1.256  -2.175   0.008  0.00  0.00    +0.179 C 
ATOM     11  N   UNL     1       0.060  -2.738  -0.283  0.00  0.00    -0.221 N 
ATOM     12  C   UNL     1       1.205  -2.011  -0.281  0.00  0.00    +0.218 A 
ATOM     13  N   UNL     1       2.192  -2.814  -0.571  0.00  0.00    -0.201 NA
ATOM     14  C   UNL     1       1.721  -4.049  -0.768  0.00  0.00    +0.247 A 
ATOM     15  N   UNL     1       0.421  -4.045  -0.603  0.00  0.00    -0.156 NA
ATOM     16  N   UNL     1       1.210  -0.650  -0.013  0.00  0.00    -0.287 N 
ATOM     17  H   UNL     1       2.037  -0.174   0.160  0.00  0.00    +0.155 HD
BRANCH   9  18
ATOM     18  C   UNL     1      -2.361   0.068   0.003  0.00  0.00    +0.160 C 
ATOM     19  O   UNL     1      -2.322   1.283   0.001  0.00  0.00    -0.293 OA
ATOM     20  C   UNL     1      -3.689  -0.644   0.005  0.00  0.00    +0.091 C 
ENDBRANCH   9  18
ENDBRANCH   1  10
BRANCH   6  21
ATOM     21  O   UNL     1      -3.625  -3.668   0.373  0.00  0.00    -0.487 OA
BRANCH  21  22
ATOM     22  C   UNL     1      -4.822  -4.425   0.569  0.00  0.00    +0.266 C 
BRANCH  22  23
ATOM     23  C   UNL     1      -5.498  -4.647  -0.758  0.00  0.00    +0.008 A 
ATOM     24  C   UNL     1      -4.933  -4.144  -1.915  0.00  0.00    +0.010 A 
ATOM     25  C   UNL     1      -5.553  -4.348  -3.134  0.00  0.00    +0.020 A 
ATOM     26  C   UNL     1      -6.740  -5.055  -3.196  0.00  0.00    +0.042 A 
ATOM     27  C   UNL     1      -7.307  -5.559  -2.039  0.00  0.00    +0.040 A 
ATOM     28  C   UNL     1      -6.683  -5.359  -0.820  0.00  0.00    +0.049 A 
ATOM     29 CL   UNL     1      -7.390  -5.996   0.632  0.00  0.00    -0.083 Cl
ATOM     30 CL   UNL     1      -7.520  -5.310  -4.726  0.00  0.00    -0.083 Cl
ENDBRANCH  22  23
ENDBRANCH  21  22
ENDBRANCH   6  21
TORSDOF 5
