REMARK  Name = ZINC27573768
REMARK  6 active torsions:
REMARK  status: ('A' for Active; 'I' for Inactive)
REMARK    1  A    between atoms: C_1  and  C_2
REMARK    2  A    between atoms: N_5  and  C_8
REMARK    3  A    between atoms: C_8  and  C_10
REMARK    4  A    between atoms: C_8  and  C_24
REMARK    5  A    between atoms: C_10  and  N_11
REMARK    6  A    between atoms: C_12  and  C_14
REMARK                            x       y       z     vdW  Elec       q    Type
REMARK                         _______ _______ _______ _____ _____    ______ ____
ROOT
ATOM      1  C   UNL     1      -1.147   1.563  -3.415  0.00  0.00    +0.094 C 
ENDROOT
BRANCH   1   2
ATOM      2  N   UNL     1      -1.064   3.026  -3.428  0.00  0.00    -0.313 N 
ATOM      3  C   UNL     1      -1.788   3.734  -4.318  0.00  0.00    +0.244 C 
ATOM      4  O   UNL     1      -2.509   3.159  -5.109  0.00  0.00    -0.270 OA
ATOM      5  H   UNL     1      -0.411   3.546  -2.712  0.00  0.00    +0.149 HD
BRANCH   3   6
ATOM      6  C   UNL     1      -1.705   5.209  -4.330  0.00  0.00    +0.039 A 
ATOM      7  C   UNL     1      -0.876   5.869  -3.412  0.00  0.00    +0.015 A 
ATOM      8  C   UNL     1      -0.786   7.229  -3.416  0.00  0.00    +0.030 A 
ATOM      9  C   UNL     1      -1.528   7.976  -4.329  0.00  0.00    +0.086 A 
ATOM     10  C   UNL     1      -2.369   7.331  -5.255  0.00  0.00    +0.113 A 
ATOM     11  C   UNL     1      -2.452   5.935  -5.248  0.00  0.00    +0.044 A 
ATOM     12  N   UNL     1      -2.959   8.289  -6.008  0.00  0.00    -0.130 NA
ATOM     13  N   UNL     1      -2.563   9.454  -5.634  0.00  0.00    -0.067 NA
ATOM     14  N   UNL     1      -1.655   9.321  -4.573  0.00  0.00    -0.257 N 
ATOM     15  H   UNL     1      -1.088  10.045  -3.970  0.00  0.00    +0.191 HD
ENDBRANCH   3   6
ENDBRANCH   1   2
BRANCH   1  16
ATOM     16  C   UNL     1      -0.145   1.005  -2.402  0.00  0.00    -0.013 C 
BRANCH  16  21
ATOM     17  C   UNL     1      -1.217   2.525   3.002  0.00  0.00    +0.007 C 
ATOM     18  C   UNL     1      -1.013   1.708   1.725  0.00  0.00    -0.018 C 
ATOM     19  C   UNL     1      -2.006   2.172   0.656  0.00  0.00    -0.015 C 
ATOM     20  C   UNL     1      -1.756   1.394  -0.638  0.00  0.00    -0.078 C 
ATOM     21  N   UNL     1      -0.378   1.624  -1.091  0.00  0.00    +0.386 N 
ATOM     22  C   UNL     1       0.593   1.142  -0.101  0.00  0.00    -0.078 C 
ATOM     23  C   UNL     1       0.414   1.913   1.209  0.00  0.00    -0.015 C 
ATOM     24  H   UNL     1      -0.237   2.710  -1.198  0.00  0.00    -0.081 HD
ENDBRANCH  16  21
BRANCH  16  25
ATOM     25  C   UNL     1      -0.322  -0.488  -2.291  0.00  0.00    -0.022 A 
ATOM     26  C   UNL     1       0.545  -1.477  -2.618  0.00  0.00    +0.009 A 
ATOM     27  C   UNL     1       0.165  -2.792  -2.428  0.00  0.00    +0.008 A 
ATOM     28  C   UNL     1      -1.065  -3.054  -1.921  0.00  0.00    +0.045 A 
ATOM     29  S   UNL     1      -1.726  -1.412  -1.689  0.00  0.00    -0.103 S 
ENDBRANCH  16  25
ENDBRANCH   1  16
TORSDOF 5
