REMARK  Name = ZINC56932329
REMARK  10 active torsions:
REMARK  status: ('A' for Active; 'I' for Inactive)
REMARK    1  A    between atoms: C_1  and  N_2
REMARK    2  A    between atoms: N_2  and  C_3
REMARK    3  A    between atoms: C_3  and  C_4
REMARK    4  A    between atoms: C_9  and  O_10
REMARK    5  A    between atoms: N_13  and  C_14
REMARK    6  A    between atoms: C_14  and  C_15
REMARK    7  A    between atoms: C_15  and  C_17
REMARK    8  A    between atoms: C_15  and  N_25
REMARK    9  A    between atoms: C_22  and  O_23
REMARK   10  A    between atoms: O_23  and  C_24
REMARK                            x       y       z     vdW  Elec       q    Type
REMARK                         _______ _______ _______ _____ _____    ______ ____
ROOT
ATOM      1  C   UNL     1      -0.007  -0.734  -3.622  0.00  0.00    +0.095 C 
ENDROOT
BRANCH   1   6
ATOM      2  C   UNL     1       3.689  -2.759  -3.836  0.00  0.00    +0.134 C 
ATOM      3  N   UNL     1       2.706  -3.074  -2.796  0.00  0.00    -0.284 N 
ATOM      4  C   UNL     1       1.534  -2.410  -2.754  0.00  0.00    +0.302 C 
ATOM      5  O   UNL     1       0.718  -2.671  -1.892  0.00  0.00    -0.253 OA
ATOM      6  N   UNL     1       1.266  -1.456  -3.668  0.00  0.00    -0.300 N 
ATOM      7  H   UNL     1       1.918  -1.248  -4.356  0.00  0.00    +0.150 HD
BRANCH   3   8
ATOM      8  C   UNL     1       2.996  -4.111  -1.803  0.00  0.00    +0.147 C 
BRANCH   8   9
ATOM      9  C   UNL     1       3.680  -3.489  -0.613  0.00  0.00    +0.011 A 
ATOM     10  C   UNL     1       5.053  -3.574  -0.482  0.00  0.00    +0.009 A 
ATOM     11  C   UNL     1       5.681  -3.004   0.609  0.00  0.00    +0.001 A 
ATOM     12  C   UNL     1       4.938  -2.347   1.573  0.00  0.00    +0.004 A 
ATOM     13  C   UNL     1       3.566  -2.259   1.446  0.00  0.00    +0.046 A 
ATOM     14  C   UNL     1       2.933  -2.826   0.349  0.00  0.00    +0.122 A 
BRANCH  14  15
ATOM     15  O   UNL     1       1.583  -2.736   0.220  0.00  0.00    -0.506 OA
ATOM     16  H   UNL     1       1.099  -3.465   0.630  0.00  0.00    +0.292 HD
ENDBRANCH  14  15
ENDBRANCH   8   9
ENDBRANCH   3   8
ENDBRANCH   1   6
BRANCH   1  17
ATOM     17  C   UNL     1      -0.006   0.370  -4.681  0.00  0.00    -0.017 C 
BRANCH  17  18
ATOM     18  N   UNL     1       1.175   1.224  -4.497  0.00  0.00    +0.385 N 
ATOM     19  C   UNL     1       1.190   1.747  -3.125  0.00  0.00    -0.078 C 
ATOM     20  C   UNL     1       2.460   2.571  -2.903  0.00  0.00    -0.019 C 
ATOM     21  C   UNL     1       2.485   3.737  -3.896  0.00  0.00    -0.004 C 
ATOM     22  C   UNL     1       2.394   3.183  -5.321  0.00  0.00    -0.019 C 
ATOM     23  C   UNL     1       1.127   2.336  -5.453  0.00  0.00    -0.078 C 
ATOM     24  H   UNL     1       2.010   0.680  -4.656  0.00  0.00    -0.081 HD
ENDBRANCH  17  18
BRANCH  17  25
ATOM     25  C   UNL     1       0.032  -0.250  -6.054  0.00  0.00    -0.018 A 
ATOM     26  C   UNL     1       1.240  -0.424  -6.701  0.00  0.00    +0.005 A 
ATOM     27  C   UNL     1       1.276  -0.992  -7.960  0.00  0.00    +0.000 A 
ATOM     28  C   UNL     1       0.103  -1.389  -8.576  0.00  0.00    +0.004 A 
ATOM     29  C   UNL     1      -1.108  -1.218  -7.933  0.00  0.00    +0.046 A 
ATOM     30  C   UNL     1      -1.146  -0.652  -6.667  0.00  0.00    +0.122 A 
BRANCH  30  31
ATOM     31  O   UNL     1      -2.335  -0.488  -6.030  0.00  0.00    -0.495 OA
ATOM     32  C   UNL     1      -3.507  -0.926  -6.721  0.00  0.00    +0.277 C 
ENDBRANCH  30  31
ENDBRANCH  17  25
ENDBRANCH   1  17
TORSDOF 8
