REMARK  Name = ZINC13061062
REMARK  9 active torsions:
REMARK  status: ('A' for Active; 'I' for Inactive)
REMARK    1  A    between atoms: C_1  and  C_2
REMARK    2  A    between atoms: C_2  and  C_4
REMARK    3  A    between atoms: C_2  and  N_11
REMARK    4  A    between atoms: C_12  and  C_14
REMARK    5  A    between atoms: C_14  and  N_47
REMARK    6  A    between atoms: C_15  and  N_47
REMARK    7  A    between atoms: C_16  and  C_17
REMARK    8  A    between atoms: C_16  and  N_47
REMARK    9  A    between atoms: N_19  and  C_20
REMARK                            x       y       z     vdW  Elec       q    Type
REMARK                         _______ _______ _______ _____ _____    ______ ____
ROOT
ATOM      1  C   UNL     1       2.461   0.264   1.254  0.00  0.00    -0.095 C 
ATOM      2  N   UNL     1       2.405   1.021  -0.015  0.00  0.00    +0.389 N 
ATOM      3  H   UNL     1       2.261   0.363  -0.790  0.00  0.00    -0.081 HD
ENDROOT
BRANCH   2   4
ATOM      4  C   UNL     1       3.678   1.742  -0.228  0.00  0.00    +0.019 C 
BRANCH   4   6
ATOM      5  N   UNL     1       6.030   1.155  -0.719  0.00  0.00    -0.310 N 
ATOM      6  C   UNL     1       4.771   0.736  -0.477  0.00  0.00    +0.197 C 
ATOM      7  O   UNL     1       4.519  -0.450  -0.460  0.00  0.00    -0.278 OA
ATOM      8  H   UNL     1       6.231   2.103  -0.732  0.00  0.00    +0.149 HD
BRANCH   5  10
ATOM      9  C   UNL     1       7.664  -0.298   0.377  0.00  0.00    +0.033 C 
ATOM     10  C   UNL     1       7.093   0.176  -0.961  0.00  0.00    +0.100 C 
BRANCH  10  11
ATOM     11  C   UNL     1       8.188   0.816  -1.776  0.00  0.00    -0.027 A 
ATOM     12  C   UNL     1       8.567   2.120  -1.520  0.00  0.00    +0.007 A 
ATOM     13  C   UNL     1       9.575   2.705  -2.264  0.00  0.00    +0.020 A 
ATOM     14  C   UNL     1      10.196   1.988  -3.271  0.00  0.00    +0.041 A 
ATOM     15  C   UNL     1       9.812   0.685  -3.530  0.00  0.00    +0.020 A 
ATOM     16  C   UNL     1       8.808   0.099  -2.782  0.00  0.00    +0.007 A 
ATOM     17 CL   UNL     1      11.457   2.725  -4.210  0.00  0.00    -0.084 Cl
ENDBRANCH  10  11
ENDBRANCH   5  10
ENDBRANCH   4   6
ENDBRANCH   2   4
BRANCH   2  18
ATOM     18  C   UNL     1       1.280   1.979   0.018  0.00  0.00    +0.019 C 
BRANCH  18  19
ATOM     19  C   UNL     1      -0.015   1.208   0.015  0.00  0.00    +0.201 C 
ATOM     20  O   UNL     1       0.001  -0.004   0.004  0.00  0.00    -0.278 OA
ATOM     21  N   UNL     1      -1.191   1.867   0.018  0.00  0.00    -0.286 N 
ATOM     22  H   UNL     1      -1.205   2.834   0.092  0.00  0.00    +0.155 HD
BRANCH  21  23
ATOM     23  C   UNL     1      -2.391   1.155  -0.086  0.00  0.00    +0.047 A 
ATOM     24  C   UNL     1      -2.510  -0.099   0.499  0.00  0.00    +0.024 A 
ATOM     25  C   UNL     1      -3.698  -0.796   0.399  0.00  0.00    +0.002 A 
ATOM     26  C   UNL     1      -4.765  -0.252  -0.291  0.00  0.00    +0.001 A 
ATOM     27  C   UNL     1      -4.649   0.994  -0.880  0.00  0.00    +0.017 A 
ATOM     28  C   UNL     1      -3.465   1.699  -0.779  0.00  0.00    +0.039 A 
ATOM     29 BR   UNL     1      -3.307   3.402  -1.585  0.00  0.00    -0.048 Br
ENDBRANCH  21  23
ENDBRANCH  18  19
ENDBRANCH   2  18
TORSDOF 7
