REMARK  Name = ZINC37538508
REMARK  5 active torsions:
REMARK  status: ('A' for Active; 'I' for Inactive)
REMARK    1  A    between atoms: C_1  and  C_2
REMARK    2  A    between atoms: C_8  and  C_10
REMARK    3  A    between atoms: C_10  and  C_23
REMARK    4  A    between atoms: C_15  and  O_22
REMARK    5  A    between atoms: C_17  and  O_21
REMARK                            x       y       z     vdW  Elec       q    Type
REMARK                         _______ _______ _______ _____ _____    ______ ____
ROOT
ATOM      1  C   UNL     1       1.811   0.343   1.747  0.00  0.00    +0.152 C 
ATOM      2  C   UNL     1       2.443  -0.234   3.022  0.00  0.00    +0.131 C 
ATOM      3  C   UNL     1       3.545   0.719   3.447  0.00  0.00    +0.174 C 
ATOM      4  O   UNL     1       4.608   0.316   3.873  0.00  0.00    -0.292 OA
ATOM      5  C   UNL     1       3.260   2.153   3.318  0.00  0.00    +0.101 A 
ATOM      6  C   UNL     1       4.100   3.107   3.914  0.00  0.00    +0.134 A 
ATOM      7  C   UNL     1       3.815   4.452   3.766  0.00  0.00    +0.091 A 
ATOM      8  C   UNL     1       2.704   4.852   3.033  0.00  0.00    +0.124 A 
ATOM      9  C   UNL     1       1.866   3.913   2.446  0.00  0.00    +0.092 A 
ATOM     10  C   UNL     1       2.131   2.561   2.584  0.00  0.00    +0.139 A 
ATOM     11  O   UNL     1       1.305   1.650   2.019  0.00  0.00    -0.481 OA
ATOM     12  C   UNL     1       2.868   0.425   0.644  0.00  0.00    +0.060 C 
ENDROOT
BRANCH   1  19
ATOM     13  C   UNL     1      -0.019   1.526   0.010  0.00  0.00    +0.012 C 
ATOM     14  C   UNL     1       0.002  -0.004   0.002  0.00  0.00    +0.041 C 
ATOM     15  C   UNL     1      -1.429  -0.584   0.139  0.00  0.00    +0.127 C 
ATOM     16  C   UNL     1      -1.545  -0.928   1.611  0.00  0.00    +0.308 C 
ATOM     17  O   UNL     1      -2.492  -1.467   2.134  0.00  0.00    -0.251 OA
ATOM     18  O   UNL     1      -0.420  -0.537   2.242  0.00  0.00    -0.457 OA
ATOM     19  C   UNL     1       0.666  -0.563   1.290  0.00  0.00    +0.223 C 
ENDBRANCH   1  19
BRANCH   8  20
ATOM     20  O   UNL     1       2.434   6.174   2.891  0.00  0.00    -0.507 OA
ATOM     21  H   UNL     1       2.847   6.579   2.116  0.00  0.00    +0.292 HD
ENDBRANCH   8  20
BRANCH   6  22
ATOM     22  O   UNL     1       5.182   2.712   4.630  0.00  0.00    -0.506 OA
ATOM     23  H   UNL     1       5.989   2.622   4.105  0.00  0.00    +0.292 HD
ENDBRANCH   6  22
TORSDOF 3
