REMARK  Name = ZINC37350109
REMARK  3 active torsions:
REMARK  status: ('A' for Active; 'I' for Inactive)
REMARK    1  A    between atoms: C_6  and  C_7
REMARK    2  A    between atoms: C_8  and  C_13
REMARK    3  A    between atoms: C_11  and  N_12
REMARK                            x       y       z     vdW  Elec       q    Type
REMARK                         _______ _______ _______ _____ _____    ______ ____
ROOT
ATOM      1  C   UNL     1      -1.307  -0.707   0.052  0.00  0.00    +0.071 A 
ATOM      2  C   UNL     1      -1.710  -1.719   1.030  0.00  0.00    +0.123 A 
ATOM      3  N   UNL     1      -2.853  -2.218   0.622  0.00  0.00    -0.075 NA
ATOM      4  O   UNL     1      -3.225  -1.581  -0.584  0.00  0.00    -0.339 OA
ATOM      5  C   UNL     1      -2.294  -0.673  -0.913  0.00  0.00    +0.224 A 
ENDROOT
BRANCH   1  11
ATOM      6  C   UNL     1      -0.176   1.503   0.283  0.00  0.00    +0.010 A 
ATOM      7  C   UNL     1       0.969   2.272   0.321  0.00  0.00    +0.016 A 
ATOM      8  C   UNL     1       2.210   1.678   0.172  0.00  0.00    +0.018 A 
ATOM      9  C   UNL     1       2.310   0.310  -0.016  0.00  0.00    +0.016 A 
ATOM     10  C   UNL     1       1.172  -0.469  -0.056  0.00  0.00    +0.010 A 
ATOM     11  C   UNL     1      -0.081   0.125   0.093  0.00  0.00    -0.011 A 
ATOM     12 BR   UNL     1       3.774   2.739   0.225  0.00  0.00    -0.050 Br
ENDBRANCH   1  11
BRANCH   2  13
ATOM     13  C   UNL     1      -0.967  -2.108   2.254  0.00  0.00    +0.004 A 
ATOM     14  C   UNL     1      -0.362  -1.132   3.044  0.00  0.00    +0.011 A 
ATOM     15  C   UNL     1       0.328  -1.499   4.181  0.00  0.00    +0.015 A 
ATOM     16  C   UNL     1       0.421  -2.833   4.537  0.00  0.00    +0.013 A 
ATOM     17  C   UNL     1      -0.177  -3.806   3.755  0.00  0.00    +0.015 A 
ATOM     18  C   UNL     1      -0.875  -3.450   2.619  0.00  0.00    +0.011 A 
ATOM     19  I   UNL     1       1.472  -3.382   6.264  0.00  0.00    -0.044 I 
ENDBRANCH   2  13
BRANCH   5  20
ATOM     20  N   UNL     1      -2.317   0.147  -2.022  0.00  0.00    -0.327 N 
ATOM     21  H   UNL     1      -1.593   0.774  -2.176  0.00  0.00    +0.145 HD
ATOM     22  H   UNL     1      -3.057   0.098  -2.646  0.00  0.00    +0.145 HD
ENDBRANCH   5  20
TORSDOF 3
