REMARK  Name = ZINC04488248
REMARK  2 active torsions:
REMARK  status: ('A' for Active; 'I' for Inactive)
REMARK    1  A    between atoms: C_1  and  C_2
REMARK    2  A    between atoms: C_7  and  C_17
REMARK                            x       y       z     vdW  Elec       q    Type
REMARK                         _______ _______ _______ _____ _____    ______ ____
ROOT
ATOM      1  C   UNL     1      -0.018   1.503   0.010  0.00  0.00    +0.090 C 
ATOM      2  C   UNL     1       0.002  -0.004   0.002  0.00  0.00    +0.150 A 
ATOM      3  N   UNL     1       0.008  -0.773  -1.092  0.00  0.00    -0.198 NA
ATOM      4  C   UNL     1       0.029  -2.029  -0.742  0.00  0.00    +0.219 A 
ATOM      5  N   UNL     1       0.032  -2.087   0.613  0.00  0.00    -0.221 N 
ATOM      6  N   UNL     1       0.023  -0.769   1.066  0.00  0.00    -0.153 NA
ATOM      7  C   UNL     1       0.044  -3.337   1.362  0.00  0.00    +0.176 C 
ATOM      8  C   UNL     1       0.395  -4.487   0.444  0.00  0.00    +0.041 C 
ATOM      9  C   UNL     1       0.374  -4.364  -0.901  0.00  0.00    +0.020 C 
ATOM     10  N   UNL     1       0.049  -3.179  -1.515  0.00  0.00    -0.287 N 
ATOM     11  C   UNL     1       0.705  -5.538  -1.792  0.00  0.00    +0.052 C 
ATOM     12  C   UNL     1       1.729  -6.438  -1.097  0.00  0.00    +0.014 C 
ATOM     13  C   UNL     1       1.133  -6.908   0.234  0.00  0.00    +0.080 C 
ATOM     14  C   UNL     1       0.751  -5.705   1.051  0.00  0.00    +0.163 C 
ATOM     15  O   UNL     1       0.751  -5.786   2.264  0.00  0.00    -0.292 OA
ATOM     16  H   UNL     1      -0.160  -3.147  -2.462  0.00  0.00    +0.155 HD
ENDROOT
BRANCH   7  17
ATOM     17  C   UNL     1      -1.318  -3.575   1.960  0.00  0.00    -0.013 A 
ATOM     18  C   UNL     1      -2.422  -3.693   1.137  0.00  0.00    +0.044 A 
ATOM     19  C   UNL     1      -3.675  -3.911   1.686  0.00  0.00    +0.126 A 
ATOM     20  C   UNL     1      -3.821  -4.011   3.059  0.00  0.00    +0.076 A 
ATOM     21  C   UNL     1      -2.714  -3.893   3.882  0.00  0.00    +0.126 A 
ATOM     22  C   UNL     1      -1.462  -3.680   3.331  0.00  0.00    +0.044 A 
ATOM     23  F   UNL     1      -2.855  -3.991   5.222  0.00  0.00    -0.205 F 
ATOM     24  F   UNL     1      -4.754  -4.026   0.882  0.00  0.00    -0.205 F 
ENDBRANCH   7  17
TORSDOF 1
