REMARK  Name = ZINC67392738
REMARK  9 active torsions:
REMARK  status: ('A' for Active; 'I' for Inactive)
REMARK    1  A    between atoms: C_1  and  C_2
REMARK    2  A    between atoms: N_7  and  C_9
REMARK    3  A    between atoms: C_9  and  C_10
REMARK    4  A    between atoms: C_9  and  C_11
REMARK    5  A    between atoms: C_9  and  C_12
REMARK    6  A    between atoms: C_12  and  N_13
REMARK    7  A    between atoms: C_14  and  C_16
REMARK    8  A    between atoms: N_18  and  C_19
REMARK    9  A    between atoms: C_24  and  N_25
REMARK                            x       y       z     vdW  Elec       q    Type
REMARK                         _______ _______ _______ _____ _____    ______ ____
ROOT
ATOM      1  N   UNL     1       2.168  -4.462   1.134  0.00  0.00    -0.309 N 
ATOM      2  C   UNL     1       2.306  -5.783   0.908  0.00  0.00    +0.299 C 
ATOM      3  O   UNL     1       1.905  -6.584   1.726  0.00  0.00    -0.265 OA
ATOM      4  H   UNL     1       2.489  -3.821   0.480  0.00  0.00    +0.149 HD
ENDROOT
BRANCH   2   5
ATOM      5  C   UNL     1       2.953  -6.261  -0.350  0.00  0.00    +0.303 C 
ATOM      6  O   UNL     1       3.354  -5.460  -1.169  0.00  0.00    -0.265 OA
ATOM      7  N   UNL     1       3.091  -7.583  -0.577  0.00  0.00    -0.276 N 
ATOM      8  H   UNL     1       2.844  -8.221   0.111  0.00  0.00    +0.155 HD
BRANCH   7   9
ATOM      9  C   UNL     1       3.590  -8.034  -1.803  0.00  0.00    +0.055 A 
ATOM     10  C   UNL     1       3.465  -7.245  -2.938  0.00  0.00    +0.025 A 
ATOM     11  C   UNL     1       3.959  -7.693  -4.149  0.00  0.00    +0.002 A 
ATOM     12  C   UNL     1       4.578  -8.927  -4.234  0.00  0.00    +0.002 A 
ATOM     13  C   UNL     1       4.707  -9.720  -3.109  0.00  0.00    +0.025 A 
ATOM     14  C   UNL     1       4.220  -9.276  -1.888  0.00  0.00    +0.051 A 
BRANCH  14  15
ATOM     15  N   UNL     1       4.354 -10.074  -0.748  0.00  0.00    -0.328 N 
ATOM     16  C   UNL     1       3.389 -11.084  -0.289  0.00  0.00    +0.105 C 
ATOM     17  C   UNL     1       3.945 -11.688   1.017  0.00  0.00    +0.020 C 
ATOM     18  C   UNL     1       4.914 -10.589   1.525  0.00  0.00    +0.020 C 
ATOM     19  C   UNL     1       5.491 -10.046   0.191  0.00  0.00    +0.105 C 
ENDBRANCH  14  15
ENDBRANCH   7   9
ENDBRANCH   2   5
BRANCH   1  20
ATOM     20  C   UNL     1       1.534  -3.992   2.369  0.00  0.00    +0.092 C 
BRANCH  20  21
ATOM     21  C   UNL     1       1.504  -2.462   2.377  0.00  0.00    -0.055 C 
ATOM     22  C   UNL     1       2.933  -1.923   2.301  0.00  0.00    -0.008 C 
ATOM     23  C   UNL     1       0.841  -1.972   3.666  0.00  0.00    -0.008 C 
BRANCH  21  29
ATOM     24  C   UNL     1      -0.034   1.522  -0.016  0.00  0.00    +0.005 C 
ATOM     25  C   UNL     1      -0.011  -0.008  -0.024  0.00  0.00    -0.031 C 
ATOM     26  C   UNL     1      -1.447  -0.540  -0.023  0.00  0.00    -0.001 C 
ATOM     27  C   UNL     1      -1.414  -2.070   0.048  0.00  0.00    -0.018 C 
ATOM     28  C   UNL     1      -0.634  -2.500   1.293  0.00  0.00    -0.078 C 
ATOM     29  N   UNL     1       0.737  -1.982   1.219  0.00  0.00    +0.384 N 
ATOM     30  C   UNL     1       0.717  -0.514   1.222  0.00  0.00    -0.075 C 
ATOM     31  H   UNL     1       1.174  -2.309   0.370  0.00  0.00    -0.081 HD
ENDBRANCH  21  29
ENDBRANCH  20  21
ENDBRANCH   1  20
TORSDOF 6
