REMARK  Name = ZINC23005482
REMARK  5 active torsions:
REMARK  status: ('A' for Active; 'I' for Inactive)
REMARK    1  A    between atoms: C_6  and  C_7
REMARK    2  A    between atoms: N_12  and  C_15
REMARK    3  A    between atoms: C_15  and  C_16
REMARK    4  A    between atoms: C_16  and  N_18
REMARK    5  A    between atoms: C_21  and  C_24
REMARK                            x       y       z     vdW  Elec       q    Type
REMARK                         _______ _______ _______ _____ _____    ______ ____
ROOT
ATOM      1  C   UNL     1      -2.368  -6.899   1.098  0.00  0.00    +0.252 C 
ATOM      2  O   UNL     1      -3.064  -6.604   0.145  0.00  0.00    -0.272 OA
ENDROOT
BRANCH   1   3
ATOM      3  N   UNL     1      -2.572  -8.041   1.741  0.00  0.00    -0.155 NA
ATOM      4  C   UNL     1      -3.542  -8.867   1.344  0.00  0.00    +0.163 A 
ATOM      5  N   UNL     1      -3.900 -10.065   1.878  0.00  0.00    -0.335 N 
ATOM      6  C   UNL     1      -4.934 -10.757   1.312  0.00  0.00    +0.058 A 
ATOM      7  C   UNL     1      -5.535 -10.188   0.243  0.00  0.00    +0.074 A 
ATOM      8  S   UNL     1      -4.618  -8.669   0.068  0.00  0.00    -0.060 S 
ATOM      9  H   UNL     1      -3.430 -10.422   2.647  0.00  0.00    +0.168 HD
BRANCH   6  10
ATOM     10  C   UNL     1      -5.373 -12.065   1.844  0.00  0.00    +0.037 A 
ATOM     11  C   UNL     1      -4.734 -12.622   2.952  0.00  0.00    +0.051 A 
ATOM     12  C   UNL     1      -5.149 -13.844   3.444  0.00  0.00    +0.124 A 
ATOM     13  C   UNL     1      -6.198 -14.518   2.838  0.00  0.00    +0.041 A 
ATOM     14  C   UNL     1      -6.835 -13.972   1.739  0.00  0.00    +0.042 A 
ATOM     15  C   UNL     1      -6.433 -12.747   1.241  0.00  0.00    +0.133 A 
ATOM     16  F   UNL     1      -7.061 -12.212   0.171  0.00  0.00    -0.205 F 
ATOM     17  F   UNL     1      -4.532 -14.384   4.517  0.00  0.00    -0.205 F 
ENDBRANCH   6  10
ENDBRANCH   1   3
BRANCH   1  18
ATOM     18  C   UNL     1      -1.272  -5.967   1.547  0.00  0.00    +0.182 C 
BRANCH  18  24
ATOM     19  C   UNL     1      -1.266  -0.763   0.010  0.00  0.00    +0.247 C 
ATOM     20  O   UNL     1      -2.324  -0.177   0.130  0.00  0.00    -0.270 OA
ATOM     21  N   UNL     1      -1.248  -2.106  -0.099  0.00  0.00    -0.295 N 
ATOM     22  C   UNL     1       0.024  -2.846  -0.111  0.00  0.00    +0.123 C 
ATOM     23  C   UNL     1      -0.055  -3.966   0.931  0.00  0.00    +0.104 C 
ATOM     24  N   UNL     1      -1.250  -4.782   0.679  0.00  0.00    -0.291 NA
ATOM     25  C   UNL     1      -2.478  -3.991   0.837  0.00  0.00    +0.104 C 
ATOM     26  C   UNL     1      -2.499  -2.872  -0.203  0.00  0.00    +0.123 C 
BRANCH  19  32
ATOM     27  C   UNL     1       0.173   1.101   0.821  0.00  0.00    +0.014 A 
ATOM     28  C   UNL     1       1.357   1.807   0.792  0.00  0.00    +0.021 A 
ATOM     29  C   UNL     1       2.375   1.423  -0.065  0.00  0.00    +0.041 A 
ATOM     30  C   UNL     1       2.210   0.329  -0.897  0.00  0.00    +0.021 A 
ATOM     31  C   UNL     1       1.030  -0.385  -0.878  0.00  0.00    +0.014 A 
ATOM     32  C   UNL     1       0.001  -0.003  -0.016  0.00  0.00    +0.037 A 
ATOM     33 CL   UNL     1       3.863   2.316  -0.095  0.00  0.00    -0.084 Cl
ENDBRANCH  19  32
ENDBRANCH  18  24
ENDBRANCH   1  18
TORSDOF 5
