REMARK  Name = ZINC53106154
REMARK  6 active torsions:
REMARK  status: ('A' for Active; 'I' for Inactive)
REMARK    1  A    between atoms: C_1  and  C_2
REMARK    2  A    between atoms: C_7  and  C_9
REMARK    3  A    between atoms: C_7  and  N_11
REMARK    4  A    between atoms: C_9  and  O_10
REMARK    5  A    between atoms: C_12  and  C_14
REMARK    6  A    between atoms: C_20  and  C_22
REMARK                            x       y       z     vdW  Elec       q    Type
REMARK                         _______ _______ _______ _____ _____    ______ ____
ROOT
ATOM      1  N   UNL     1       1.481  -2.682   0.116  0.00  0.00    -0.302 N 
ATOM      2  C   UNL     1       2.814  -2.532  -0.012  0.00  0.00    +0.263 C 
ATOM      3  O   UNL     1       3.444  -1.942   0.845  0.00  0.00    -0.268 OA
ATOM      4  H   UNL     1       0.989  -3.216  -0.528  0.00  0.00    +0.150 HD
ENDROOT
BRANCH   2   5
ATOM      5  C   UNL     1       3.507  -3.082  -1.188  0.00  0.00    +0.135 A 
ATOM      6  C   UNL     1       4.860  -2.940  -1.326  0.00  0.00    +0.081 A 
ATOM      7  S   UNL     1       5.162  -3.715  -2.789  0.00  0.00    -0.060 S 
ATOM      8  C   UNL     1       3.489  -4.202  -3.172  0.00  0.00    +0.165 A 
ATOM      9  N   UNL     1       2.826  -3.732  -2.136  0.00  0.00    -0.220 NA
ATOM     10  N   UNL     1       3.011  -4.899  -4.274  0.00  0.00    -0.265 N 
ATOM     11  C   UNL     1       3.863  -5.303  -5.237  0.00  0.00    +0.216 C 
ATOM     12  O   UNL     1       5.047  -5.058  -5.142  0.00  0.00    -0.276 OA
ATOM     13  C   UNL     1       3.345  -6.060  -6.433  0.00  0.00    +0.109 C 
ATOM     14  H   UNL     1       2.064  -5.095  -4.351  0.00  0.00    +0.157 HD
ENDBRANCH   2   5
BRANCH   1  20
ATOM     15  C   UNL     1       0.669   1.523  -0.234  0.00  0.00    +0.007 C 
ATOM     16  C   UNL     1       0.452   0.010  -0.168  0.00  0.00    -0.012 C 
ATOM     17  C   UNL     1      -1.044  -0.295  -0.271  0.00  0.00    +0.003 C 
ATOM     18  C   UNL     1      -1.262  -1.808  -0.205  0.00  0.00    +0.002 C 
ATOM     19  C   UNL     1      -0.722  -2.343   1.123  0.00  0.00    +0.028 C 
ATOM     20  C   UNL     1       0.774  -2.038   1.225  0.00  0.00    +0.058 C 
ATOM     21  C   UNL     1       0.992  -0.525   1.160  0.00  0.00    +0.031 C 
BRANCH  20  22
ATOM     22  C   UNL     1       1.314  -2.574   2.553  0.00  0.00    +0.181 C 
BRANCH  22  23
ATOM     23  O   UNL     1       1.225  -4.000   2.562  0.00  0.00    -0.393 OA
ATOM     24  H   UNL     1       1.551  -4.409   3.376  0.00  0.00    +0.209 HD
ENDBRANCH  22  23
ENDBRANCH  20  22
ENDBRANCH   1  20
TORSDOF 4
