REMARK  Name = ZINC39534416
REMARK  12 active torsions:
REMARK  status: ('A' for Active; 'I' for Inactive)
REMARK    1  A    between atoms: C_1  and  C_2
REMARK    2  A    between atoms: C_2  and  C_3
REMARK    3  A    between atoms: C_2  and  S_4
REMARK    4  A    between atoms: S_4  and  C_7
REMARK    5  A    between atoms: C_10  and  C_13
REMARK    6  A    between atoms: C_13  and  C_15
REMARK    7  A    between atoms: C_13  and  N_24
REMARK    8  A    between atoms: C_15  and  N_16
REMARK    9  A    between atoms: N_16  and  C_17
REMARK   10  A    between atoms: C_22  and  O_23
REMARK   11  A    between atoms: C_28  and  C_31
REMARK   12  A    between atoms: C_31  and  C_32
REMARK                            x       y       z     vdW  Elec       q    Type
REMARK                         _______ _______ _______ _____ _____    ______ ____
ROOT
ATOM      1  C   UNL     1      -1.147  -6.622   0.491  0.00  0.00    -0.021 C 
ENDROOT
BRANCH   1   2
ATOM      2  N   UNL     1      -0.242  -7.037   1.571  0.00  0.00    +0.383 N 
ATOM      3  C   UNL     1       1.046  -6.348   1.423  0.00  0.00    -0.097 C 
ATOM      4  C   UNL     1       1.988  -6.780   2.549  0.00  0.00    -0.101 C 
ATOM      5  N   UNL     1       2.199  -8.232   2.481  0.00  0.00    +0.379 N 
ATOM      6  C   UNL     1       0.910  -8.921   2.629  0.00  0.00    -0.085 C 
ATOM      7  C   UNL     1      -0.032  -8.489   1.503  0.00  0.00    -0.094 C 
ATOM      8  H   UNL     1       2.608  -8.471   1.590  0.00  0.00    -0.086 HD
ATOM      9  H   UNL     1       2.820  -8.517   3.223  0.00  0.00    -0.086 HD
ATOM     10  H   UNL     1      -0.651  -6.798   2.462  0.00  0.00    -0.081 HD
BRANCH   6  11
ATOM     11  C   UNL     1       1.130 -10.434   2.558  0.00  0.00    +0.017 C 
BRANCH  11  12
ATOM     12  C   UNL     1       1.957 -10.877   3.737  0.00  0.00    -0.049 A 
ATOM     13  C   UNL     1       3.336 -10.900   3.644  0.00  0.00    +0.003 A 
ATOM     14  C   UNL     1       4.095 -11.307   4.726  0.00  0.00    +0.000 A 
ATOM     15  C   UNL     1       3.475 -11.690   5.900  0.00  0.00    +0.000 A 
ATOM     16  C   UNL     1       2.096 -11.666   5.993  0.00  0.00    +0.000 A 
ATOM     17  C   UNL     1       1.337 -11.255   4.913  0.00  0.00    +0.003 A 
ENDBRANCH  11  12
ENDBRANCH   6  11
ENDBRANCH   1   2
BRANCH   1  21
ATOM     18  C   UNL     1      -1.680  -2.386   0.625  0.00  0.00    +0.088 A 
ATOM     19  C   UNL     1      -1.548  -3.028  -0.593  0.00  0.00    +0.027 A 
ATOM     20  C   UNL     1      -1.376  -4.399  -0.636  0.00  0.00    +0.004 A 
ATOM     21  C   UNL     1      -1.334  -5.128   0.538  0.00  0.00    -0.059 A 
ATOM     22  C   UNL     1      -1.464  -4.486   1.755  0.00  0.00    +0.004 A 
ATOM     23  C   UNL     1      -1.633  -3.114   1.799  0.00  0.00    +0.027 A 
BRANCH  18  24
ATOM     24  S   UNL     1      -1.900  -0.639   0.680  0.00  0.00    -0.001 S 
ATOM     25  O   UNL     1      -2.583  -0.398   1.902  0.00  0.00    -0.169 OA
ATOM     26  O   UNL     1      -2.502  -0.310  -0.564  0.00  0.00    -0.169 OA
BRANCH  24  28
ATOM     27  C   UNL     1      -0.291   1.558   0.937  0.00  0.00    +0.032 C 
ATOM     28  C   UNL     1      -0.219   0.040   0.760  0.00  0.00    +0.130 C 
ATOM     29  C   UNL     1       0.525  -0.578   1.945  0.00  0.00    +0.032 C 
ENDBRANCH  24  28
ENDBRANCH  18  24
ENDBRANCH   1  21
BRANCH   1  30
ATOM     30  C   UNL     1      -2.502  -7.312   0.667  0.00  0.00    +0.091 C 
BRANCH  30  31
ATOM     31  N   UNL     1      -3.372  -6.974  -0.463  0.00  0.00    -0.342 N 
ATOM     32  H   UNL     1      -3.024  -6.454  -1.204  0.00  0.00    +0.146 HD
BRANCH  31  33
ATOM     33  C   UNL     1      -4.704  -7.402  -0.472  0.00  0.00    +0.069 A 
ATOM     34  C   UNL     1      -5.205  -8.141   0.590  0.00  0.00    +0.026 A 
ATOM     35  C   UNL     1      -6.521  -8.562   0.579  0.00  0.00    +0.002 A 
ATOM     36  C   UNL     1      -7.342  -8.249  -0.489  0.00  0.00    +0.004 A 
ATOM     37  C   UNL     1      -6.850  -7.513  -1.551  0.00  0.00    +0.047 A 
ATOM     38  C   UNL     1      -5.533  -7.082  -1.545  0.00  0.00    +0.138 A 
BRANCH  38  39
ATOM     39  O   UNL     1      -5.049  -6.354  -2.587  0.00  0.00    -0.505 OA
ATOM     40  H   UNL     1      -4.668  -6.888  -3.297  0.00  0.00    +0.292 HD
ENDBRANCH  38  39
ENDBRANCH  31  33
ENDBRANCH  30  31
ENDBRANCH   1  30
TORSDOF 10
