REMARK  Name = ZINC30567287
REMARK  5 active torsions:
REMARK  status: ('A' for Active; 'I' for Inactive)
REMARK    1  A    between atoms: C_2  and  C_18
REMARK    2  A    between atoms: C_7  and  C_9
REMARK    3  A    between atoms: C_9  and  N_10
REMARK    4  A    between atoms: C_11  and  C_13
REMARK    5  A    between atoms: C_18  and  N_19
REMARK                            x       y       z     vdW  Elec       q    Type
REMARK                         _______ _______ _______ _____ _____    ______ ____
ROOT
ATOM      1  C   UNL     1       4.435  -0.422  -0.043  0.00  0.00    +0.070 A 
ATOM      2  C   UNL     1       4.634   0.918  -0.037  0.00  0.00    +0.034 A 
ATOM      3  N   UNL     1       3.580   1.711  -0.028  0.00  0.00    -0.231 NA
ATOM      4  C   UNL     1       2.357   1.220  -0.014  0.00  0.00    +0.165 A 
ATOM      5  S   UNL     1       2.649  -0.492  -0.026  0.00  0.00    -0.060 S 
ATOM      6  N   UNL     1       1.143   1.898   0.001  0.00  0.00    -0.263 N 
ATOM      7  C   UNL     1      -0.014   1.209   0.009  0.00  0.00    +0.236 C 
ATOM      8  O   UNL     1       0.002  -0.004   0.002  0.00  0.00    -0.274 OA
ATOM      9  H   UNL     1       1.129   2.998   0.007  0.00  0.00    +0.157 HD
ENDROOT
BRANCH   7  10
ATOM     10  C   UNL     1      -1.330   1.944   0.019  0.00  0.00    +0.200 C 
BRANCH  10  11
ATOM     11  N   UNL     1      -2.430   0.977   0.019  0.00  0.00    -0.306 N 
ATOM     12  C   UNL     1      -3.707   1.409   0.027  0.00  0.00    +0.217 C 
ATOM     13  O   UNL     1      -3.945   2.599   0.035  0.00  0.00    -0.276 OA
ATOM     14  H   UNL     1      -2.214  -0.101   0.012  0.00  0.00    +0.149 HD
BRANCH  12  15
ATOM     15  C   UNL     1      -4.839   0.414   0.027  0.00  0.00    +0.075 C 
ATOM     16  C   UNL     1      -4.805  -0.424  -1.267  0.00  0.00    +0.013 C 
ATOM     17  C   UNL     1      -6.298  -0.627  -1.627  0.00  0.00    +0.001 C 
ATOM     18  C   UNL     1      -6.929   0.736  -1.251  0.00  0.00    +0.001 C 
ATOM     19  C   UNL     1      -6.189   1.152   0.038  0.00  0.00    +0.013 C 
ENDBRANCH  12  15
ENDBRANCH  10  11
ENDBRANCH   7  10
BRANCH   2  20
ATOM     20  C   UNL     1       6.029   1.490  -0.047  0.00  0.00    -0.022 C 
BRANCH  20  21
ATOM     21  N   UNL     1       6.423   1.796  -1.429  0.00  0.00    +0.383 N 
ATOM     22  C   UNL     1       6.433   0.571  -2.260  0.00  0.00    -0.078 C 
ATOM     23  C   UNL     1       7.085   0.781  -3.600  0.00  0.00    -0.019 C 
ATOM     24  C   UNL     1       8.572   0.382  -3.488  0.00  0.00    -0.002 C 
ATOM     25  C   UNL     1       9.373   1.418  -2.846  0.00  0.00    -0.002 C 
ATOM     26  C   UNL     1       8.907   1.705  -1.403  0.00  0.00    -0.019 C 
ATOM     27  C   UNL     1       7.681   2.574  -1.462  0.00  0.00    -0.078 C 
ATOM     28  H   UNL     1       5.661   2.449  -1.879  0.00  0.00    -0.081 HD
ENDBRANCH  20  21
ENDBRANCH   2  20
TORSDOF 5
