REMARK  Name = ZINC20889407
REMARK  4 active torsions:
REMARK  status: ('A' for Active; 'I' for Inactive)
REMARK    1  A    between atoms: C_6  and  S_7
REMARK    2  A    between atoms: S_7  and  N_10
REMARK    3  A    between atoms: C_18  and  C_20
REMARK    4  A    between atoms: N_22  and  C_23
REMARK                            x       y       z     vdW  Elec       q    Type
REMARK                         _______ _______ _______ _____ _____    ______ ____
ROOT
ATOM      1  N   UNL     1      -1.245   2.048   0.019  0.00  0.00    -0.203 N 
ATOM      2  C   UNL     1      -1.282   3.482   0.334  0.00  0.00    +0.132 C 
ATOM      3  C   UNL     1      -0.157   4.165  -0.455  0.00  0.00    +0.025 C 
ATOM      4  C   UNL     1       1.186   3.613   0.022  0.00  0.00    +0.038 C 
ATOM      5  C   UNL     1       1.174   2.107  -0.001  0.00  0.00    -0.024 A 
ATOM      6  C   UNL     1      -0.017   1.390   0.007  0.00  0.00    +0.054 A 
ATOM      7  C   UNL     1       0.003  -0.003  -0.004  0.00  0.00    +0.026 A 
ATOM      8  C   UNL     1       1.201  -0.679  -0.025  0.00  0.00    +0.015 A 
ATOM      9  C   UNL     1       2.401   0.037  -0.037  0.00  0.00    +0.037 A 
ATOM     10  C   UNL     1       2.378   1.433  -0.025  0.00  0.00    +0.018 A 
ENDROOT
BRANCH   9  11
ATOM     11  C   UNL     1       3.690  -0.681  -0.062  0.00  0.00    +0.244 C 
ATOM     12  O   UNL     1       4.733  -0.057  -0.072  0.00  0.00    -0.270 OA
ATOM     13  N   UNL     1       3.711  -2.028  -0.074  0.00  0.00    -0.308 N 
ATOM     14  H   UNL     1       2.767  -2.593  -0.065  0.00  0.00    +0.149 HD
BRANCH  13  15
ATOM     15  C   UNL     1       4.990  -2.741  -0.100  0.00  0.00    +0.073 C 
ATOM     16  C   UNL     1       5.476  -2.867  -1.545  0.00  0.00    +0.022 C 
ATOM     17  C   UNL     1       6.812  -3.611  -1.572  0.00  0.00    +0.002 C 
ATOM     18  C   UNL     1       6.630  -5.007  -0.972  0.00  0.00    +0.000 C 
ATOM     19  C   UNL     1       6.145  -4.881   0.474  0.00  0.00    +0.002 C 
ATOM     20  C   UNL     1       4.809  -4.137   0.500  0.00  0.00    +0.022 C 
ENDBRANCH  13  15
ENDBRANCH   9  11
BRANCH   1  21
ATOM     21  S   UNL     1      -2.642   1.224  -0.316  0.00  0.00    +0.075 S 
ATOM     22  O   UNL     1      -3.616   2.200  -0.662  0.00  0.00    -0.150 OA
ATOM     23  O   UNL     1      -2.287   0.160  -1.187  0.00  0.00    -0.150 OA
BRANCH  21  29
ATOM     24  C   UNL     1      -2.762  -0.789   1.524  0.00  0.00    +0.030 A 
ATOM     25  C   UNL     1      -3.183  -1.369   2.706  0.00  0.00    +0.017 A 
ATOM     26  C   UNL     1      -4.034  -0.678   3.550  0.00  0.00    +0.018 A 
ATOM     27  C   UNL     1      -4.460   0.594   3.212  0.00  0.00    +0.017 A 
ATOM     28  C   UNL     1      -4.035   1.175   2.032  0.00  0.00    +0.030 A 
ATOM     29  C   UNL     1      -3.184   0.484   1.189  0.00  0.00    +0.109 A 
ATOM     30 BR   UNL     1      -4.615  -1.472   5.164  0.00  0.00    -0.050 Br
ENDBRANCH  21  29
ENDBRANCH   1  21
TORSDOF 4
