REMARK  Name = ZINC09002125
REMARK  3 active torsions:
REMARK  status: ('A' for Active; 'I' for Inactive)
REMARK    1  A    between atoms: C_3  and  C_6
REMARK    2  A    between atoms: C_8  and  C_12
REMARK    3  A    between atoms: C_14  and  C_17
REMARK                            x       y       z     vdW  Elec       q    Type
REMARK                         _______ _______ _______ _____ _____    ______ ____
ROOT
ATOM      1  C   UNL     1       3.736   1.822  -0.024  0.00  0.00    +0.073 A 
ATOM      2  C   UNL     1       4.866   1.055  -0.045  0.00  0.00    +0.063 A 
ATOM      3  C   UNL     1       5.973   1.922  -0.050  0.00  0.00    +0.150 A 
ATOM      4  N   UNL     1       5.527   3.163  -0.033  0.00  0.00    -0.168 NA
ATOM      5  N   UNL     1       4.127   3.131  -0.022  0.00  0.00    -0.276 N 
ATOM      6  H   UNL     1       3.539   3.902  -0.012  0.00  0.00    +0.189 HD
ENDROOT
BRANCH   1   9
ATOM      7  C   UNL     1      -0.016   1.354   0.009  0.00  0.00    +0.008 A 
ATOM      8  C   UNL     1       1.177   2.041   0.002  0.00  0.00    +0.017 A 
ATOM      9  C   UNL     1       2.348   1.328  -0.013  0.00  0.00    +0.037 A 
ATOM     10  S   UNL     1       1.752  -0.355  -0.017  0.00  0.00    -0.095 S 
ATOM     11  C   UNL     1       0.002  -0.004   0.002  0.00  0.00    +0.046 A 
ENDBRANCH   1   9
BRANCH   3  12
ATOM     12  C   UNL     1       7.394   1.513  -0.070  0.00  0.00    +0.279 A 
ATOM     13  N   UNL     1       8.427   2.322  -0.069  0.00  0.00    -0.185 NA
ATOM     14  C   UNL     1       9.566   1.610  -0.090  0.00  0.00    +0.209 A 
ATOM     15  N   UNL     1       9.265   0.331  -0.105  0.00  0.00    -0.055 NA
ATOM     16  O   UNL     1       7.848   0.247  -0.086  0.00  0.00    -0.331 OA
BRANCH  14  17
ATOM     17  C   UNL     1      10.933   2.172  -0.097  0.00  0.00    +0.060 A 
ATOM     18  C   UNL     1      12.136   1.517  -0.124  0.00  0.00    +0.019 A 
ATOM     19  C   UNL     1      13.294   2.260  -0.125  0.00  0.00    +0.008 A 
ATOM     20  C   UNL     1      13.211   3.616  -0.100  0.00  0.00    +0.046 A 
ATOM     21  S   UNL     1      11.445   3.882  -0.080  0.00  0.00    -0.093 S 
ENDBRANCH  14  17
ENDBRANCH   3  12
TORSDOF 3
