REMARK  Name = ZINC21246136
REMARK  8 active torsions:
REMARK  status: ('A' for Active; 'I' for Inactive)
REMARK    1  A    between atoms: C_1  and  C_2
REMARK    2  A    between atoms: C_11  and  N_30
REMARK    3  A    between atoms: C_13  and  S_15
REMARK    4  A    between atoms: S_15  and  C_16
REMARK    5  A    between atoms: C_16  and  C_18
REMARK    6  A    between atoms: C_16  and  C_19
REMARK    7  A    between atoms: N_21  and  C_22
REMARK    8  A    between atoms: C_27  and  C_28
REMARK                            x       y       z     vdW  Elec       q    Type
REMARK                         _______ _______ _______ _____ _____    ______ ____
ROOT
ATOM      1  C   UNL     1       1.613  -5.569  -3.166  0.00  0.00    +0.008 C 
ATOM      2  C   UNL     1       1.181  -4.126  -2.892  0.00  0.00    -0.009 C 
ATOM      3  C   UNL     1       0.454  -4.054  -1.546  0.00  0.00    +0.008 C 
ATOM      4  C   UNL     1      -0.192  -2.679  -1.378  0.00  0.00    +0.037 C 
ATOM      5  C   UNL     1       0.866  -1.604  -1.615  0.00  0.00    -0.025 A 
ATOM      6  C   UNL     1       2.010  -1.895  -2.265  0.00  0.00    -0.004 A 
ATOM      7  S   UNL     1       2.919  -0.374  -2.307  0.00  0.00    -0.073 S 
ATOM      8  C   UNL     1       1.758   0.655  -1.448  0.00  0.00    +0.115 A 
ATOM      9  C   UNL     1       0.696  -0.224  -1.155  0.00  0.00    +0.051 A 
ATOM     10  C   UNL     1      -0.399   0.351  -0.451  0.00  0.00    +0.129 A 
ATOM     11  N   UNL     1      -0.358   1.632  -0.125  0.00  0.00    -0.207 NA
ATOM     12  C   UNL     1       0.677   2.405  -0.433  0.00  0.00    +0.192 A 
ATOM     13  N   UNL     1       1.725   1.923  -1.088  0.00  0.00    -0.214 NA
ATOM     14  C   UNL     1       2.420  -3.221  -2.831  0.00  0.00    +0.046 C 
ENDROOT
BRANCH  10  15
ATOM     15  N   UNL     1      -1.495  -0.422  -0.112  0.00  0.00    -0.343 N 
ATOM     16  H   UNL     1      -2.339   0.029   0.432  0.00  0.00    +0.144 HD
ATOM     17  H   UNL     1      -1.523  -1.487  -0.386  0.00  0.00    +0.144 HD
ENDBRANCH  10  15
BRANCH  12  18
ATOM     18  S   UNL     1       0.656   4.103   0.037  0.00  0.00    -0.073 S 
BRANCH  18  19
ATOM     19  C   UNL     1      -0.953   4.182   0.862  0.00  0.00    +0.137 C 
ATOM     20  C   UNL     1      -0.926   3.305   2.115  0.00  0.00    +0.029 C 
BRANCH  19  21
ATOM     21  C   UNL     1      -1.248   5.607   1.253  0.00  0.00    +0.230 C 
ATOM     22  O   UNL     1      -0.344   6.412   1.340  0.00  0.00    -0.274 OA
ATOM     23  N   UNL     1      -2.516   5.988   1.505  0.00  0.00    -0.284 N 
ATOM     24  H   UNL     1      -3.322   5.240   1.518  0.00  0.00    +0.155 HD
BRANCH  23  25
ATOM     25  C   UNL     1      -2.805   7.330   1.749  0.00  0.00    +0.051 A 
ATOM     26  C   UNL     1      -1.921   8.319   1.342  0.00  0.00    +0.024 A 
ATOM     27  C   UNL     1      -2.212   9.648   1.580  0.00  0.00    +0.002 A 
ATOM     28  C   UNL     1      -3.380  10.003   2.235  0.00  0.00    +0.001 A 
ATOM     29  C   UNL     1      -4.266   9.034   2.652  0.00  0.00    +0.021 A 
ATOM     30  C   UNL     1      -3.988   7.686   2.413  0.00  0.00    +0.073 A 
BRANCH  30  31
ATOM     31  C   UNL     1      -4.905   6.674   2.844  0.00  0.00    +0.101 C 
ATOM     32  N   UNL     1      -5.633   5.871   3.186  0.00  0.00    -0.191 NA
ENDBRANCH  30  31
ENDBRANCH  23  25
ENDBRANCH  19  21
ENDBRANCH  18  19
ENDBRANCH  12  18
TORSDOF 6
