REMARK  Name = ZINC40365077
REMARK  6 active torsions:
REMARK  status: ('A' for Active; 'I' for Inactive)
REMARK    1  A    between atoms: C_1  and  C_2
REMARK    2  A    between atoms: C_3  and  S_8
REMARK    3  A    between atoms: C_4  and  C_7
REMARK    4  A    between atoms: S_8  and  N_11
REMARK    5  A    between atoms: N_11  and  C_12
REMARK    6  A    between atoms: C_12  and  C_19
REMARK                            x       y       z     vdW  Elec       q    Type
REMARK                         _______ _______ _______ _____ _____    ______ ____
ROOT
ATOM      1  N   UNL     1       1.894  -0.531  -3.584  0.00  0.00    -0.170 NA
ATOM      2  H   UNL     1       2.381   0.292  -3.745  0.00  0.00    +0.150 HD
ENDROOT
BRANCH   1   3
ATOM      3  C   UNL     1       2.534  -1.823  -3.841  0.00  0.00    +0.126 C 
ATOM      4  C   UNL     1       2.674  -2.585  -2.507  0.00  0.00    +0.039 C 
ATOM      5  C   UNL     1       2.839  -4.050  -2.808  0.00  0.00    +0.003 C 
ATOM      6  C   UNL     1       4.318  -4.475  -2.875  0.00  0.00    +0.000 C 
ATOM      7  C   UNL     1       5.200  -3.452  -3.617  0.00  0.00    +0.000 C 
ATOM      8  C   UNL     1       4.536  -2.908  -4.853  0.00  0.00    +0.003 C 
ATOM      9  C   UNL     1       3.819  -1.593  -4.485  0.00  0.00    +0.039 C 
BRANCH   3  10
ATOM     10  C   UNL     1       1.680  -2.607  -4.747  0.00  0.00    +0.086 C 
ATOM     11  N   UNL     1       1.020  -3.212  -5.447  0.00  0.00    -0.195 NA
ENDBRANCH   3  10
ENDBRANCH   1   3
BRANCH   1  12
ATOM     12  S   UNL     1       0.338  -0.475  -3.021  0.00  0.00    +0.065 S 
ATOM     13  O   UNL     1      -0.033   0.896  -2.986  0.00  0.00    -0.153 OA
ATOM     14  O   UNL     1       0.293  -1.306  -1.869  0.00  0.00    -0.153 OA
BRANCH  12  17
ATOM     15  C   UNL     1      -1.047  -3.506  -3.018  0.00  0.00    +0.071 C 
ATOM     16  C   UNL     1      -1.232  -2.535  -4.155  0.00  0.00    +0.107 A 
ATOM     17  C   UNL     1      -0.684  -1.242  -4.235  0.00  0.00    +0.169 A 
ATOM     18  C   UNL     1      -1.076  -0.692  -5.400  0.00  0.00    +0.161 A 
ATOM     19  O   UNL     1      -1.841  -1.586  -6.044  0.00  0.00    -0.358 OA
ATOM     20  N   UNL     1      -1.922  -2.749  -5.240  0.00  0.00    -0.081 NA
ATOM     21  C   UNL     1      -0.719   0.686  -5.893  0.00  0.00    +0.091 C 
ENDBRANCH  12  17
ENDBRANCH   1  12
TORSDOF 4
