REMARK  Name = ZINC09186725
REMARK  17 active torsions:
REMARK  status: ('A' for Active; 'I' for Inactive)
REMARK    1  A    between atoms: C_1  and  C_2
REMARK    2  A    between atoms: C_2  and  N_71
REMARK    3  A    between atoms: C_3  and  C_4
REMARK    4  A    between atoms: C_3  and  N_71
REMARK    5  A    between atoms: C_5  and  C_6
REMARK    6  A    between atoms: C_5  and  N_71
REMARK    7  A    between atoms: C_6  and  C_7
REMARK    8  A    between atoms: C_7  and  N_8
REMARK    9  A    between atoms: C_9  and  C_25
REMARK   10  A    between atoms: C_12  and  C_13
REMARK   11  A    between atoms: C_12  and  O_20
REMARK   12  A    between atoms: C_28  and  O_34
REMARK   13  A    between atoms: C_29  and  O_31
REMARK   14  A    between atoms: O_31  and  C_32
REMARK   15  A    between atoms: C_32  and  C_33
REMARK   16  A    between atoms: O_34  and  C_35
REMARK   17  A    between atoms: C_35  and  C_36
REMARK                            x       y       z     vdW  Elec       q    Type
REMARK                         _______ _______ _______ _____ _____    ______ ____
ROOT
ATOM      1  N   UNL     1      -0.458   1.355   2.853  0.00  0.00    -0.284 N 
ATOM      2  C   UNL     1      -0.314  -0.057   3.220  0.00  0.00    +0.145 C 
ATOM      3  C   UNL     1       0.487  -0.092   4.501  0.00  0.00    +0.071 C 
ATOM      4  C   UNL     1       0.868  -1.213   5.211  0.00  0.00    +0.133 C 
ATOM      5  C   UNL     1       0.761   1.246   4.827  0.00  0.00    +0.249 C 
ATOM      6  O   UNL     1       1.385   1.631   5.799  0.00  0.00    -0.282 OA
ATOM      7  C   UNL     1       0.157   2.111   3.778  0.00  0.00    +0.288 C 
ATOM      8  O   UNL     1       0.212   3.324   3.760  0.00  0.00    -0.266 OA
ENDROOT
BRANCH   4   9
ATOM      9  C   UNL     1       1.772  -1.081   6.366  0.00  0.00    +0.017 A 
ATOM     10  C   UNL     1       2.972  -0.374   6.242  0.00  0.00    +0.013 A 
ATOM     11  C   UNL     1       3.811  -0.251   7.329  0.00  0.00    +0.021 A 
ATOM     12  C   UNL     1       3.473  -0.835   8.539  0.00  0.00    +0.041 A 
ATOM     13  C   UNL     1       2.288  -1.541   8.668  0.00  0.00    +0.021 A 
ATOM     14  C   UNL     1       1.437  -1.668   7.591  0.00  0.00    +0.013 A 
ATOM     15 CL   UNL     1       4.539  -0.680   9.900  0.00  0.00    -0.084 Cl
ENDBRANCH   4   9
BRANCH   2  16
ATOM     16  C   UNL     1       0.423  -0.800   2.135  0.00  0.00    -0.019 A 
ATOM     17  C   UNL     1       1.497  -0.205   1.499  0.00  0.00    +0.009 A 
ATOM     18  C   UNL     1       2.176  -0.882   0.503  0.00  0.00    +0.050 A 
ATOM     19  C   UNL     1       1.780  -2.160   0.141  0.00  0.00    +0.162 A 
ATOM     20  C   UNL     1       0.699  -2.758   0.780  0.00  0.00    +0.162 A 
ATOM     21  C   UNL     1       0.026  -2.076   1.782  0.00  0.00    +0.055 A 
BRANCH  20  22
ATOM     22  O   UNL     1       0.307  -4.012   0.428  0.00  0.00    -0.489 OA
BRANCH  22  23
ATOM     23  C   UNL     1      -0.811  -4.563   1.127  0.00  0.00    +0.226 C 
ATOM     24  C   UNL     1      -1.101  -5.968   0.598  0.00  0.00    +0.048 C 
ENDBRANCH  22  23
ENDBRANCH  20  22
BRANCH  19  25
ATOM     25  O   UNL     1       2.447  -2.828  -0.838  0.00  0.00    -0.489 OA
BRANCH  25  26
ATOM     26  C   UNL     1       3.548  -2.152  -1.451  0.00  0.00    +0.226 C 
ATOM     27  C   UNL     1       4.169  -3.053  -2.519  0.00  0.00    +0.048 C 
ENDBRANCH  25  26
ENDBRANCH  19  25
ENDBRANCH   2  16
BRANCH   4  28
ATOM     28  O   UNL     1       0.412  -2.430   4.846  0.00  0.00    -0.506 OA
ATOM     29  H   UNL     1       0.783  -3.124   5.463  0.00  0.00    +0.292 HD
ENDBRANCH   4  28
BRANCH   1  30
ATOM     30  C   UNL     1      -1.163   1.859   1.673  0.00  0.00    +0.107 C 
BRANCH  30  31
ATOM     31  C   UNL     1      -0.184   1.968   0.502  0.00  0.00    +0.000 C 
BRANCH  31  32
ATOM     32  C   UNL     1      -0.921   2.496  -0.731  0.00  0.00    -0.077 C 
BRANCH  32  33
ATOM     33  N   UNL     1       0.065   2.730  -1.807  0.00  0.00    +0.379 N 
ATOM     34  H   UNL     1       0.901   3.167  -1.404  0.00  0.00    -0.082 HD
BRANCH  33  36
ATOM     35  C   UNL     1       1.623   1.688  -3.379  0.00  0.00    -0.017 C 
ATOM     36  C   UNL     1       0.447   1.445  -2.430  0.00  0.00    -0.082 C 
ENDBRANCH  33  36
BRANCH  33  37
ATOM     37  C   UNL     1      -0.506   3.635  -2.827  0.00  0.00    -0.082 C 
ATOM     38  C   UNL     1      -0.461   5.068  -2.291  0.00  0.00    -0.017 C 
ENDBRANCH  33  37
ENDBRANCH  32  33
ENDBRANCH  31  32
ENDBRANCH  30  31
ENDBRANCH   1  30
TORSDOF 13
