REMARK  Name = ZINC09576049
REMARK  6 active torsions:
REMARK  status: ('A' for Active; 'I' for Inactive)
REMARK    1  A    between atoms: C_1  and  C_2
REMARK    2  A    between atoms: C_11  and  O_22
REMARK    3  A    between atoms: C_12  and  C_13
REMARK    4  A    between atoms: C_13  and  N_41
REMARK    5  A    between atoms: C_14  and  C_21
REMARK    6  A    between atoms: C_14  and  N_41
REMARK                            x       y       z     vdW  Elec       q    Type
REMARK                         _______ _______ _______ _____ _____    ______ ____
ROOT
ATOM      1  C   UNL     1       5.360   4.032  -1.371  0.00  0.00    +0.045 C 
ATOM      2  C   UNL     1       4.657   3.660  -0.090  0.00  0.00    -0.033 A 
ATOM      3  C   UNL     1       5.132   4.078   1.113  0.00  0.00    +0.096 A 
ATOM      4  C   UNL     1       4.457   3.717   2.297  0.00  0.00    +0.337 A 
ATOM      5  O   UNL     1       4.893   4.098   3.368  0.00  0.00    -0.245 OA
ATOM      6  O   UNL     1       3.345   2.965   2.273  0.00  0.00    -0.422 OA
ATOM      7  C   UNL     1       2.821   2.518   1.112  0.00  0.00    +0.144 A 
ATOM      8  C   UNL     1       3.445   2.840  -0.108  0.00  0.00    +0.022 A 
ATOM      9  C   UNL     1       2.905   2.377  -1.314  0.00  0.00    +0.035 A 
ATOM     10  C   UNL     1       1.774   1.613  -1.302  0.00  0.00    +0.083 A 
ATOM     11  C   UNL     1       1.152   1.291  -0.096  0.00  0.00    +0.140 A 
ATOM     12  C   UNL     1       1.669   1.745   1.106  0.00  0.00    +0.021 A 
ATOM     13 CL   UNL     1       1.105   1.039  -2.798  0.00  0.00    -0.080 Cl
ENDROOT
BRANCH  11  14
ATOM     14  O   UNL     1       0.027   0.531  -0.101  0.00  0.00    -0.505 OA
ATOM     15  H   UNL     1       0.194  -0.419  -0.042  0.00  0.00    +0.292 HD
ENDBRANCH  11  14
BRANCH  12  16
ATOM     16  C   UNL     1       0.986   1.397   2.403  0.00  0.00    -0.038 C 
BRANCH  16  17
ATOM     17  N   UNL     1       1.545   0.132   2.918  0.00  0.00    +0.387 N 
ATOM     18  H   UNL     1       2.566   0.216   2.986  0.00  0.00    -0.085 HD
ATOM     19  H   UNL     1       1.306  -0.631   2.275  0.00  0.00    -0.085 HD
BRANCH  17  20
ATOM     20  C   UNL     1       0.991  -0.166   4.253  0.00  0.00    -0.050 C 
ATOM     21  C   UNL     1       1.460   0.904   5.227  0.00  0.00    +0.011 C 
ATOM     22  C   UNL     1       2.271   0.351   6.420  0.00  0.00    +0.164 C 
ATOM     23  S   UNL     1       2.863  -1.258   5.739  0.00  0.00    -0.032 S 
ATOM     24  O   UNL     1       4.016  -1.035   4.938  0.00  0.00    -0.174 OA
ATOM     25  O   UNL     1       2.905  -2.224   6.780  0.00  0.00    -0.174 OA
ATOM     26  C   UNL     1       1.416  -1.598   4.645  0.00  0.00    +0.153 C 
ATOM     27  C   UNL     1      -0.536  -0.117   4.174  0.00  0.00    -0.009 C 
ENDBRANCH  17  20
ENDBRANCH  16  17
ENDBRANCH  12  16
TORSDOF 4
