REMARK  Name = ZINC10341413
REMARK  6 active torsions:
REMARK  status: ('A' for Active; 'I' for Inactive)
REMARK    1  A    between atoms: C_1  and  C_2
REMARK    2  A    between atoms: C_2  and  C_4
REMARK    3  A    between atoms: C_2  and  N_43
REMARK    4  A    between atoms: N_6  and  C_7
REMARK    5  A    between atoms: C_10  and  S_13
REMARK    6  A    between atoms: S_13  and  N_16
REMARK                            x       y       z     vdW  Elec       q    Type
REMARK                         _______ _______ _______ _____ _____    ______ ____
ROOT
ATOM      1  C   UNL     1      -0.006   1.146   0.236  0.00  0.00    +0.203 C 
ATOM      2  O   UNL     1       0.131   0.006   0.626  0.00  0.00    -0.277 OA
ATOM      3  N   UNL     1      -1.224   1.590  -0.134  0.00  0.00    -0.287 N 
ATOM      4  H   UNL     1      -1.323   2.480  -0.507  0.00  0.00    +0.155 HD
ENDROOT
BRANCH   3   5
ATOM      5  C   UNL     1      -2.346   0.768   0.022  0.00  0.00    +0.033 A 
ATOM      6  C   UNL     1      -2.235  -0.603  -0.166  0.00  0.00    +0.025 A 
ATOM      7  C   UNL     1      -3.342  -1.413  -0.005  0.00  0.00    +0.030 A 
ATOM      8  C   UNL     1      -4.563  -0.858   0.331  0.00  0.00    +0.105 A 
ATOM      9  C   UNL     1      -4.678   0.508   0.513  0.00  0.00    +0.030 A 
ATOM     10  C   UNL     1      -3.573   1.323   0.360  0.00  0.00    +0.025 A 
BRANCH   8  11
ATOM     11  S   UNL     1      -5.975  -1.893   0.529  0.00  0.00    +0.056 S 
ATOM     12  O   UNL     1      -5.487  -3.191   0.839  0.00  0.00    -0.153 OA
ATOM     13  O   UNL     1      -6.875  -1.194   1.378  0.00  0.00    -0.153 OA
BRANCH  11  14
ATOM     14  N   UNL     1      -6.711  -2.005  -0.951  0.00  0.00    -0.204 NA
ATOM     15  H   UNL     1      -6.337  -1.539  -1.715  0.00  0.00    +0.144 HD
ATOM     16  H   UNL     1      -7.515  -2.537  -1.053  0.00  0.00    +0.144 HD
ENDBRANCH  11  14
ENDBRANCH   8  11
ENDBRANCH   3   5
BRANCH   1  18
ATOM     17  C   UNL     1       1.063   3.151   1.228  0.00  0.00    -0.004 C 
ATOM     18  C   UNL     1       1.186   2.064   0.158  0.00  0.00    +0.017 C 
BRANCH  18  27
ATOM     19  C   UNL     1       2.491   0.817   1.772  0.00  0.00    -0.072 C 
ATOM     20  C   UNL     1       3.543  -0.302   1.857  0.00  0.00    +0.024 C 
ATOM     21  C   UNL     1       4.760   0.162   1.125  0.00  0.00    -0.011 A 
ATOM     22  C   UNL     1       4.843   1.224   0.275  0.00  0.00    -0.054 A 
ATOM     23  C   UNL     1       6.091   1.470  -0.293  0.00  0.00    +0.009 A 
ATOM     24  C   UNL     1       7.141   0.670   0.007  0.00  0.00    +0.045 A 
ATOM     25  S   UNL     1       6.402  -0.500   1.138  0.00  0.00    -0.101 S 
ATOM     26  C   UNL     1       3.601   2.066  -0.002  0.00  0.00    -0.041 C 
ATOM     27  N   UNL     1       2.409   1.264   0.361  0.00  0.00    +0.390 N 
ATOM     28  H   UNL     1       2.370   0.437  -0.246  0.00  0.00    -0.080 HD
ENDBRANCH  18  27
ENDBRANCH   1  18
TORSDOF 5
