REMARK  Name = ZINC39464399
REMARK  6 active torsions:
REMARK  status: ('A' for Active; 'I' for Inactive)
REMARK    1  A    between atoms: C_4  and  O_7
REMARK    2  A    between atoms: O_7  and  S_8
REMARK    3  A    between atoms: S_8  and  C_11
REMARK    4  A    between atoms: C_16  and  O_17
REMARK    5  A    between atoms: P_25  and  C_28
REMARK    6  A    between atoms: C_33  and  O_34
REMARK                            x       y       z     vdW  Elec       q    Type
REMARK                         _______ _______ _______ _____ _____    ______ ____
ROOT
ATOM      1  C   UNL     1       3.192  -2.273   2.002  0.00  0.00    +0.170 A 
ATOM      2  C   UNL     1       2.053  -2.016   2.736  0.00  0.00    +0.040 A 
ATOM      3  C   UNL     1       1.300  -3.059   3.256  0.00  0.00    -0.021 A 
ATOM      4  C   UNL     1       1.694  -4.362   3.038  0.00  0.00    -0.038 A 
ATOM      5  C   UNL     1       2.837  -4.626   2.301  0.00  0.00    +0.051 A 
ATOM      6  C   UNL     1       3.587  -3.584   1.777  0.00  0.00    +0.145 A 
ATOM      7  C   UNL     1       0.908  -5.525   3.587  0.00  0.00    +0.052 C 
ATOM      8  C   UNL     1      -0.505  -5.066   3.946  0.00  0.00    +0.108 C 
ATOM      9  N   UNL     1      -0.413  -3.877   4.806  0.00  0.00    -0.225 NA
ATOM     10  C   UNL     1       0.065  -2.719   4.049  0.00  0.00    +0.129 C 
ATOM     11  C   UNL     1       0.377  -1.544   4.980  0.00  0.00    +0.194 C 
ATOM     12  O   UNL     1      -0.838  -1.149   5.649  0.00  0.00    -0.311 OA
ATOM     13  P   UNL     1      -1.728  -2.301   6.373  0.00  0.00    +0.318 P 
ATOM     14  O   UNL     1      -3.133  -1.855   6.503  0.00  0.00    -0.266 OA
ATOM     15  N   UNL     1      -1.637  -3.623   5.384  0.00  0.00    -0.175 NA
ATOM     16  H   UNL     1      -2.406  -4.190   5.219  0.00  0.00    +0.151 HD
ENDROOT
BRANCH  13  17
ATOM     17  C   UNL     1      -1.041  -2.689   8.007  0.00  0.00    +0.094 A 
ATOM     18  C   UNL     1      -0.084  -3.677   8.137  0.00  0.00    +0.018 A 
ATOM     19  C   UNL     1       0.440  -3.973   9.382  0.00  0.00    +0.001 A 
ATOM     20  C   UNL     1       0.007  -3.282  10.499  0.00  0.00    +0.004 A 
ATOM     21  C   UNL     1      -0.949  -2.294  10.374  0.00  0.00    +0.046 A 
ATOM     22  C   UNL     1      -1.472  -1.991   9.125  0.00  0.00    +0.131 A 
BRANCH  22  23
ATOM     23  O   UNL     1      -2.410  -1.015   8.998  0.00  0.00    -0.506 OA
ATOM     24  H   UNL     1      -3.320  -1.329   9.088  0.00  0.00    +0.292 HD
ENDBRANCH  22  23
ENDBRANCH  13  17
BRANCH   1  25
ATOM     25  S   UNL     1       4.140  -0.941   1.346  0.00  0.00    +0.154 S 
ATOM     26  O   UNL     1       5.458  -1.436   1.154  0.00  0.00    -0.131 OA
ATOM     27  O   UNL     1       3.863   0.192   2.158  0.00  0.00    -0.131 OA
BRANCH  25  28
ATOM     28  O   UNL     1       3.586  -0.632  -0.037  0.00  0.00    -0.342 OA
BRANCH  28  32
ATOM     29  C   UNL     1      -0.017   1.378   0.010  0.00  0.00    +0.000 A 
ATOM     30  C   UNL     1       1.170   2.088   0.002  0.00  0.00    +0.004 A 
ATOM     31  C   UNL     1       2.377   1.417  -0.013  0.00  0.00    +0.048 A 
ATOM     32  C   UNL     1       2.399   0.030  -0.021  0.00  0.00    +0.157 A 
ATOM     33  C   UNL     1       1.207  -0.680  -0.013  0.00  0.00    +0.048 A 
ATOM     34  C   UNL     1       0.002  -0.004   0.002  0.00  0.00    +0.004 A 
ENDBRANCH  28  32
ENDBRANCH  25  28
ENDBRANCH   1  25
BRANCH   6  35
ATOM     35  O   UNL     1       4.705  -3.845   1.051  0.00  0.00    -0.505 OA
ATOM     36  H   UNL     1       5.513  -3.902   1.579  0.00  0.00    +0.292 HD
ENDBRANCH   6  35
TORSDOF 6
