REMARK  Name = ZINC40373385
REMARK  15 active torsions:
REMARK  status: ('A' for Active; 'I' for Inactive)
REMARK    1  A    between atoms: C_1  and  C_2
REMARK    2  A    between atoms: C_2  and  C_3
REMARK    3  A    between atoms: C_2  and  C_4
REMARK    4  A    between atoms: C_7  and  O_10
REMARK    5  A    between atoms: O_10  and  C_11
REMARK    6  A    between atoms: C_11  and  C_12
REMARK    7  A    between atoms: C_12  and  O_13
REMARK    8  A    between atoms: O_13  and  C_14
REMARK    9  A    between atoms: C_14  and  C_15
REMARK   10  A    between atoms: C_15  and  C_17
REMARK   11  A    between atoms: C_15  and  O_37
REMARK   12  A    between atoms: C_17  and  N_18
REMARK   13  A    between atoms: N_21  and  C_24
REMARK   14  A    between atoms: C_24  and  C_25
REMARK   15  A    between atoms: C_24  and  C_31
REMARK                            x       y       z     vdW  Elec       q    Type
REMARK                         _______ _______ _______ _____ _____    ______ ____
ROOT
ATOM      1  N   UNL     1     -12.453  -0.156  -0.998  0.00  0.00    -0.303 NA
ATOM      2  C   UNL     1     -12.262   0.377  -2.354  0.00  0.00    +0.066 C 
ATOM      3  C   UNL     1     -13.039   1.687  -2.499  0.00  0.00    -0.062 C 
ATOM      4  N   UNL     1     -14.465   1.440  -2.248  0.00  0.00    +0.389 N 
ATOM      5  C   UNL     1     -14.643   0.932  -0.881  0.00  0.00    -0.062 C 
ATOM      6  C   UNL     1     -13.879  -0.384  -0.723  0.00  0.00    +0.066 C 
ATOM      7  H   UNL     1     -14.810   0.758  -2.907  0.00  0.00    -0.080 HD
ENDROOT
BRANCH   1   8
ATOM      8  C   UNL     1     -11.675  -1.386  -0.800  0.00  0.00    +0.117 C 
BRANCH   8   9
ATOM      9  C   UNL     1     -10.181  -1.058  -0.849  0.00  0.00    +0.154 C 
BRANCH   9  10
ATOM     10  O   UNL     1      -9.842  -0.215   0.254  0.00  0.00    -0.388 OA
ATOM     11  H   UNL     1     -10.020  -0.609   1.119  0.00  0.00    +0.210 HD
ENDBRANCH   9  10
BRANCH   9  12
ATOM     12  C   UNL     1      -9.372  -2.354  -0.769  0.00  0.00    +0.192 C 
BRANCH  12  13
ATOM     13  O   UNL     1      -7.983  -2.059  -0.932  0.00  0.00    -0.374 OA
BRANCH  13  14
ATOM     14  C   UNL     1      -7.135  -3.208  -0.872  0.00  0.00    +0.201 C 
BRANCH  14  15
ATOM     15  C   UNL     1      -5.679  -2.776  -1.058  0.00  0.00    +0.257 C 
BRANCH  15  16
ATOM     16  O   UNL     1      -5.282  -1.955   0.043  0.00  0.00    -0.490 OA
BRANCH  16  20
ATOM     17  C   UNL     1      -1.412  -0.526   0.013  0.00  0.00    -0.045 A 
ATOM     18  C   UNL     1      -2.258  -0.203   1.057  0.00  0.00    +0.007 A 
ATOM     19  C   UNL     1      -3.555  -0.681   1.070  0.00  0.00    +0.046 A 
ATOM     20  C   UNL     1      -4.007  -1.484   0.033  0.00  0.00    +0.121 A 
ATOM     21  C   UNL     1      -3.156  -1.805  -1.015  0.00  0.00    +0.046 A 
ATOM     22  C   UNL     1      -1.862  -1.321  -1.025  0.00  0.00    +0.007 A 
BRANCH  17  24
ATOM     23  C   UNL     1      -0.019   1.526   0.010  0.00  0.00    +0.012 C 
ATOM     24  C   UNL     1       0.002  -0.004   0.002  0.00  0.00    +0.013 C 
ATOM     25  C   UNL     1       0.742  -0.511   1.242  0.00  0.00    +0.012 C 
ENDBRANCH  17  24
ENDBRANCH  16  20
ENDBRANCH  15  16
ENDBRANCH  14  15
ENDBRANCH  13  14
ENDBRANCH  12  13
ENDBRANCH   9  12
ENDBRANCH   8   9
ENDBRANCH   1   8
BRANCH   4  26
ATOM     26  C   UNL     1     -15.214   2.694  -2.405  0.00  0.00    -0.007 C 
BRANCH  26  27
ATOM     27  C   UNL     1     -15.033   3.215  -3.808  0.00  0.00    -0.057 A 
ATOM     28  C   UNL     1     -15.040   2.338  -4.877  0.00  0.00    +0.002 A 
ATOM     29  C   UNL     1     -14.874   2.815  -6.163  0.00  0.00    +0.000 A 
ATOM     30  C   UNL     1     -14.703   4.170  -6.381  0.00  0.00    +0.000 A 
ATOM     31  C   UNL     1     -14.697   5.046  -5.313  0.00  0.00    +0.000 A 
ATOM     32  C   UNL     1     -14.867   4.569  -4.026  0.00  0.00    +0.002 A 
ENDBRANCH  26  27
BRANCH  26  33
ATOM     33  C   UNL     1     -16.677   2.442  -2.148  0.00  0.00    -0.057 A 
ATOM     34  C   UNL     1     -17.270   1.282  -2.611  0.00  0.00    +0.002 A 
ATOM     35  C   UNL     1     -18.613   1.051  -2.375  0.00  0.00    +0.000 A 
ATOM     36  C   UNL     1     -19.361   1.978  -1.675  0.00  0.00    +0.000 A 
ATOM     37  C   UNL     1     -18.768   3.137  -1.210  0.00  0.00    +0.000 A 
ATOM     38  C   UNL     1     -17.425   3.366  -1.443  0.00  0.00    +0.002 A 
ENDBRANCH  26  33
ENDBRANCH   4  26
TORSDOF 13
