REMARK  Name = ZINC32091480
REMARK  4 active torsions:
REMARK  status: ('A' for Active; 'I' for Inactive)
REMARK    1  A    between atoms: C_1  and  C_2
REMARK    2  A    between atoms: N_15  and  C_18
REMARK    3  A    between atoms: C_18  and  C_20
REMARK    4  A    between atoms: C_18  and  C_31
REMARK                            x       y       z     vdW  Elec       q    Type
REMARK                         _______ _______ _______ _____ _____    ______ ____
ROOT
ATOM      1  C   UNL     1       0.193   3.615   1.269  0.00  0.00    +0.069 C 
ATOM      2  C   UNL     1      -0.652   2.718   2.137  0.00  0.00    +0.079 A 
ATOM      3  C   UNL     1      -0.058   1.628   2.798  0.00  0.00    +0.143 A 
ATOM      4  N   UNL     1      -0.782   0.833   3.562  0.00  0.00    -0.229 NA
ATOM      5  C   UNL     1      -2.093   1.068   3.708  0.00  0.00    +0.091 A 
ATOM      6  C   UNL     1      -2.891   0.239   4.515  0.00  0.00    +0.030 A 
ATOM      7  C   UNL     1      -4.220   0.502   4.645  0.00  0.00    +0.002 A 
ATOM      8  C   UNL     1      -4.804   1.583   3.988  0.00  0.00    +0.002 A 
ATOM      9  C   UNL     1      -4.062   2.406   3.198  0.00  0.00    +0.030 A 
ATOM     10  C   UNL     1      -2.687   2.167   3.040  0.00  0.00    +0.090 A 
ATOM     11  N   UNL     1      -1.932   2.965   2.273  0.00  0.00    -0.247 NA
ATOM     12  N   UNL     1       1.299   1.388   2.646  0.00  0.00    -0.317 N 
ATOM     13  C   UNL     1       1.533   0.153   1.884  0.00  0.00    +0.088 C 
ATOM     14  C   UNL     1       3.037  -0.034   1.671  0.00  0.00    -0.058 C 
ATOM     15  N   UNL     1       3.712  -0.088   2.975  0.00  0.00    +0.394 N 
ATOM     16  C   UNL     1       3.478   1.147   3.737  0.00  0.00    -0.058 C 
ATOM     17  C   UNL     1       1.974   1.334   3.951  0.00  0.00    +0.088 C 
ATOM     18  H   UNL     1       3.283  -0.925   3.545  0.00  0.00    -0.080 HD
ENDROOT
BRANCH  15  19
ATOM     19  C   UNL     1       5.149  -0.343   2.814  0.00  0.00    +0.080 C 
BRANCH  19  20
ATOM     20  C   UNL     1       5.350  -1.647   2.087  0.00  0.00    -0.025 A 
ATOM     21  C   UNL     1       5.708  -1.798   0.802  0.00  0.00    +0.086 A 
ATOM     22  N   UNL     1       5.795  -3.129   0.495  0.00  0.00    -0.360 N 
ATOM     23  H   UNL     1       6.085  -3.442  -0.519  0.00  0.00    +0.165 HD
ATOM     24  C   UNL     1       5.477  -3.886   1.600  0.00  0.00    +0.048 A 
ATOM     25  C   UNL     1       5.184  -2.991   2.646  0.00  0.00    +0.002 A 
ATOM     26  C   UNL     1       4.825  -3.482   3.903  0.00  0.00    +0.011 A 
ATOM     27  C   UNL     1       4.758  -4.830   4.111  0.00  0.00    +0.016 A 
ATOM     28  C   UNL     1       5.046  -5.718   3.083  0.00  0.00    +0.020 A 
ATOM     29  C   UNL     1       5.403  -5.255   1.834  0.00  0.00    +0.041 A 
ATOM     30 BR   UNL     1       4.947  -7.580   3.398  0.00  0.00    -0.050 Br
ENDBRANCH  19  20
BRANCH  19  31
ATOM     31  C   UNL     1       5.772   0.776   2.020  0.00  0.00    +0.347 C 
ATOM     32  O   UNL     1       5.088   1.692   1.628  0.00  0.00    -0.248 OA
ATOM     33  O   UNL     1       7.086   0.755   1.747  0.00  0.00    -0.248 OA
ENDBRANCH  19  31
ENDBRANCH  15  19
TORSDOF 3
