REMARK  Name = ZINC17913156
REMARK  8 active torsions:
REMARK  status: ('A' for Active; 'I' for Inactive)
REMARK    1  A    between atoms: C_2  and  C_3
REMARK    2  A    between atoms: C_3  and  N_4
REMARK    3  A    between atoms: N_4  and  S_5
REMARK    4  A    between atoms: S_5  and  C_8
REMARK    5  A    between atoms: C_11  and  C_14
REMARK    6  A    between atoms: N_16  and  C_17
REMARK    7  A    between atoms: C_17  and  C_18
REMARK    8  A    between atoms: C_18  and  N_62
REMARK                            x       y       z     vdW  Elec       q    Type
REMARK                         _______ _______ _______ _____ _____    ______ ____
ROOT
ATOM      1  C   UNL     1      -3.897   3.112   4.944  0.00  0.00    +0.244 C 
ATOM      2  O   UNL     1      -4.884   2.604   5.441  0.00  0.00    -0.270 OA
ATOM      3  N   UNL     1      -3.329   4.188   5.524  0.00  0.00    -0.313 N 
ATOM      4  H   UNL     1      -2.542   4.593   5.128  0.00  0.00    +0.149 HD
ENDROOT
BRANCH   1   8
ATOM      5  C   UNL     1      -2.241   1.495   1.383  0.00  0.00    +0.105 A 
ATOM      6  C   UNL     1      -1.652   2.597   1.978  0.00  0.00    +0.029 A 
ATOM      7  C   UNL     1      -2.188   3.130   3.132  0.00  0.00    +0.015 A 
ATOM      8  C   UNL     1      -3.320   2.549   3.705  0.00  0.00    +0.037 A 
ATOM      9  C   UNL     1      -3.906   1.435   3.102  0.00  0.00    +0.015 A 
ATOM     10  C   UNL     1      -3.363   0.915   1.945  0.00  0.00    +0.029 A 
BRANCH   5  11
ATOM     11  S   UNL     1      -1.553   0.825  -0.095  0.00  0.00    +0.059 S 
ATOM     12  O   UNL     1      -1.959  -0.536  -0.150  0.00  0.00    -0.153 OA
ATOM     13  O   UNL     1      -0.187   1.213  -0.120  0.00  0.00    -0.153 OA
BRANCH  11  14
ATOM     14  N   UNL     1      -2.286   1.590  -1.367  0.00  0.00    -0.186 NA
ATOM     15  H   UNL     1      -2.849   1.087  -1.976  0.00  0.00    +0.148 HD
BRANCH  14  16
ATOM     16  C   UNL     1      -2.085   3.026  -1.573  0.00  0.00    +0.132 C 
BRANCH  16  18
ATOM     17  C   UNL     1      -3.421   4.352  -3.128  0.00  0.00    +0.005 C 
ATOM     18  C   UNL     1      -2.534   3.402  -2.961  0.00  0.00    -0.018 C 
ENDBRANCH  16  18
ENDBRANCH  14  16
ENDBRANCH  11  14
ENDBRANCH   5  11
ENDBRANCH   1   8
BRANCH   3  19
ATOM     19  C   UNL     1      -3.900   4.746   6.752  0.00  0.00    +0.092 C 
BRANCH  19  20
ATOM     20  C   UNL     1      -3.172   6.043   7.110  0.00  0.00    -0.050 C 
ATOM     21  C   UNL     1      -1.665   5.786   7.152  0.00  0.00    -0.010 C 
ATOM     22  C   UNL     1      -1.357   4.721   8.206  0.00  0.00    -0.001 C 
ATOM     23  C   UNL     1      -1.830   5.210   9.577  0.00  0.00    -0.000 C 
ATOM     24  C   UNL     1      -3.338   5.466   9.535  0.00  0.00    -0.001 C 
ATOM     25  C   UNL     1      -3.645   6.531   8.481  0.00  0.00    -0.010 C 
BRANCH  20  31
ATOM     26  C   UNL     1      -4.912   7.313   6.005  0.00  0.00    -0.078 C 
ATOM     27  C   UNL     1      -5.170   8.481   5.050  0.00  0.00    -0.019 C 
ATOM     28  C   UNL     1      -4.602   8.141   3.670  0.00  0.00    -0.004 C 
ATOM     29  C   UNL     1      -3.107   7.840   3.802  0.00  0.00    -0.019 C 
ATOM     30  C   UNL     1      -2.908   6.691   4.793  0.00  0.00    -0.078 C 
ATOM     31  N   UNL     1      -3.454   7.091   6.107  0.00  0.00    +0.384 N 
ATOM     32  H   UNL     1      -3.003   7.965   6.403  0.00  0.00    -0.081 HD
ENDBRANCH  20  31
ENDBRANCH  19  20
ENDBRANCH   3  19
TORSDOF 8
