REMARK  Name = ZINC39024549
REMARK  6 active torsions:
REMARK  status: ('A' for Active; 'I' for Inactive)
REMARK    1  A    between atoms: C_1  and  C_2
REMARK    2  A    between atoms: C_2  and  C_3
REMARK    3  A    between atoms: C_3  and  C_4
REMARK    4  A    between atoms: C_6  and  C_18
REMARK    5  A    between atoms: C_8  and  C_16
REMARK    6  A    between atoms: C_9  and  N_15
REMARK                            x       y       z     vdW  Elec       q    Type
REMARK                         _______ _______ _______ _____ _____    ______ ____
ROOT
ATOM      1  C   UNL     1      -1.936  -1.835   0.161  0.00  0.00    +0.069 C 
ATOM      2  C   UNL     1      -1.856  -2.589   1.230  0.00  0.00    +0.030 C 
ATOM      3  C   UNL     1      -1.658  -2.297   2.692  0.00  0.00    +0.098 C 
ATOM      4  C   UNL     1      -0.672  -3.340   3.186  0.00  0.00    +0.097 C 
ATOM      5  C   UNL     1      -0.297  -4.382   2.414  0.00  0.00    +0.195 C 
ATOM      6  O   UNL     1      -0.691  -4.631   1.153  0.00  0.00    -0.448 OA
ATOM      7  C   UNL     1      -1.909  -4.026   0.709  0.00  0.00    +0.343 C 
ATOM      8  N   UNL     1      -1.930  -3.822  -0.743  0.00  0.00    -0.138 NA
ATOM      9  N   UNL     1      -1.973  -2.604  -0.957  0.00  0.00    -0.155 NA
ENDROOT
BRANCH   3  10
ATOM     10  C   UNL     1      -1.091  -0.913   2.875  0.00  0.00    -0.033 A 
ATOM     11  C   UNL     1       0.188  -0.626   2.434  0.00  0.00    +0.006 A 
ATOM     12  C   UNL     1       0.709   0.643   2.601  0.00  0.00    +0.022 A 
ATOM     13  C   UNL     1      -0.049   1.628   3.209  0.00  0.00    +0.059 A 
ATOM     14  C   UNL     1      -1.329   1.341   3.651  0.00  0.00    +0.060 A 
ATOM     15  C   UNL     1      -1.851   0.071   3.478  0.00  0.00    +0.026 A 
ATOM     16 CL   UNL     1      -2.281   2.575   4.415  0.00  0.00    -0.082 Cl
ATOM     17 CL   UNL     1       0.606   3.222   3.420  0.00  0.00    -0.082 Cl
ENDBRANCH   3  10
BRANCH   5  18
ATOM     18  N   UNL     1       0.577  -5.279   2.975  0.00  0.00    -0.329 N 
ATOM     19  H   UNL     1       0.893  -5.146   3.882  0.00  0.00    +0.145 HD
ATOM     20  H   UNL     1       0.878  -6.046   2.464  0.00  0.00    +0.145 HD
ENDBRANCH   5  18
BRANCH   4  21
ATOM     21  C   UNL     1      -0.125  -3.215   4.503  0.00  0.00    +0.101 C 
ATOM     22  N   UNL     1       0.308  -3.116   5.548  0.00  0.00    -0.191 NA
ENDBRANCH   4  21
BRANCH   1  23
ATOM     23  C   UNL     1      -1.985  -0.328   0.171  0.00  0.00    +0.057 C 
BRANCH  23  25
ATOM     24  C   UNL     1      -3.488   1.658   0.366  0.00  0.00    +0.004 C 
ATOM     25  C   UNL     1      -3.442   0.133   0.254  0.00  0.00    +0.003 C 
ENDBRANCH  23  25
ENDBRANCH   1  23
TORSDOF 5
