REMARK  Name = ZINC13804277
REMARK  7 active torsions:
REMARK  status: ('A' for Active; 'I' for Inactive)
REMARK    1  A    between atoms: C_1  and  N_2
REMARK    2  A    between atoms: N_2  and  C_3
REMARK    3  A    between atoms: N_2  and  C_27
REMARK    4  A    between atoms: C_3  and  C_4
REMARK    5  A    between atoms: C_5  and  C_15
REMARK    6  A    between atoms: N_17  and  N_18
REMARK    7  A    between atoms: C_19  and  C_20
REMARK                            x       y       z     vdW  Elec       q    Type
REMARK                         _______ _______ _______ _____ _____    ______ ____
ROOT
ATOM      1  C   UNL     1       3.121  -2.200  -0.045  0.00  0.00    +0.063 A 
ATOM      2  C   UNL     1       3.084  -3.566  -0.047  0.00  0.00    +0.170 A 
ATOM      3  N   UNL     1       1.798  -3.957  -0.038  0.00  0.00    -0.124 NA
ATOM      4  N   UNL     1       1.032  -2.922  -0.025  0.00  0.00    -0.058 NA
ATOM      5  N   UNL     1       1.838  -1.775  -0.025  0.00  0.00    -0.194 N 
ATOM      6  C   UNL     1       1.399  -0.446  -0.014  0.00  0.00    +0.240 A 
ATOM      7  C   UNL     1       0.002  -0.004   0.002  0.00  0.00    +0.206 A 
ATOM      8  N   UNL     1      -0.016   1.300   0.009  0.00  0.00    -0.032 NA
ATOM      9  O   UNL     1       1.327   1.753  -0.001  0.00  0.00    -0.239 OA
ATOM     10  N   UNL     1       2.164   0.609  -0.015  0.00  0.00    -0.027 NA
ATOM     11  N   UNL     1      -1.114  -0.833   0.008  0.00  0.00    -0.337 N 
ATOM     12  H   UNL     1      -2.123  -0.397   0.020  0.00  0.00    +0.144 HD
ATOM     13  H   UNL     1      -0.987  -1.926   0.001  0.00  0.00    +0.144 HD
ENDROOT
BRANCH   2  14
ATOM     14  C   UNL     1       4.256  -4.460  -0.063  0.00  0.00    +0.285 C 
ATOM     15  O   UNL     1       5.379  -3.991  -0.071  0.00  0.00    -0.267 OA
ATOM     16  N   UNL     1       4.085  -5.797  -0.070  0.00  0.00    -0.202 N 
ATOM     17  H   UNL     1       3.070  -6.221  -0.063  0.00  0.00    +0.178 HD
BRANCH  16  18
ATOM     18  N   UNL     1       5.199  -6.646  -0.085  0.00  0.00    -0.187 NA
ATOM     19  C   UNL     1       5.033  -7.933  -0.091  0.00  0.00    +0.138 C 
BRANCH  19  20
ATOM     20  C   UNL     1       6.206  -8.827  -0.107  0.00  0.00    -0.005 A 
ATOM     21  C   UNL     1       7.496  -8.292  -0.122  0.00  0.00    +0.011 A 
ATOM     22  C   UNL     1       8.588  -9.134  -0.132  0.00  0.00    +0.020 A 
ATOM     23  C   UNL     1       8.408 -10.507  -0.138  0.00  0.00    +0.041 A 
ATOM     24  C   UNL     1       7.132 -11.044  -0.129  0.00  0.00    +0.020 A 
ATOM     25  C   UNL     1       6.031 -10.213  -0.114  0.00  0.00    +0.011 A 
ATOM     26 CL   UNL     1       9.789 -11.559  -0.158  0.00  0.00    -0.084 Cl
ENDBRANCH  19  20
ENDBRANCH  16  18
ENDBRANCH   2  14
BRANCH   1  27
ATOM     27  C   UNL     1       4.355  -1.335  -0.059  0.00  0.00    -0.020 C 
BRANCH  27  29
ATOM     28  C   UNL     1       5.218  -2.288   1.992  0.00  0.00    -0.095 C 
ATOM     29  N   UNL     1       4.775  -1.059   1.321  0.00  0.00    +0.383 N 
ATOM     30  H   UNL     1       3.904  -0.670   1.869  0.00  0.00    -0.081 HD
BRANCH  29  31
ATOM     31  C   UNL     1       5.825  -0.032   1.356  0.00  0.00    -0.068 C 
ATOM     32  C   UNL     1       7.083  -0.565   0.668  0.00  0.00    -0.015 C 
ATOM     33  C   UNL     1       8.177   0.504   0.705  0.00  0.00    -0.002 C 
ATOM     34  C   UNL     1       8.500   0.853   2.159  0.00  0.00    -0.000 C 
ATOM     35  C   UNL     1       7.242   1.386   2.848  0.00  0.00    -0.002 C 
ATOM     36  C   UNL     1       6.148   0.317   2.811  0.00  0.00    -0.015 C 
ENDBRANCH  29  31
ENDBRANCH  27  29
ENDBRANCH   1  27
TORSDOF 6
