REMARK  Name = ZINC16957361
REMARK  13 active torsions:
REMARK  status: ('A' for Active; 'I' for Inactive)
REMARK    1  A    between atoms: C_6  and  C_7
REMARK    2  A    between atoms: C_7  and  C_9
REMARK    3  A    between atoms: C_7  and  C_11
REMARK    4  A    between atoms: C_11  and  C_17
REMARK    5  A    between atoms: N_12  and  N_13
REMARK    6  A    between atoms: N_13  and  C_14
REMARK    7  A    between atoms: C_14  and  N_16
REMARK    8  A    between atoms: C_17  and  C_23
REMARK    9  A    between atoms: N_18  and  N_19
REMARK   10  A    between atoms: N_19  and  C_20
REMARK   11  A    between atoms: C_20  and  N_22
REMARK   12  A    between atoms: C_23  and  C_25
REMARK   13  A    between atoms: C_23  and  C_27
REMARK                            x       y       z     vdW  Elec       q    Type
REMARK                         _______ _______ _______ _____ _____    ______ ____
ROOT
ATOM      1  C   UNL     1      -1.933  -1.864   1.075  0.00  0.00    +0.105 C 
ATOM      2  N   UNL     1      -1.070  -2.579   0.412  0.00  0.00    -0.182 NA
ENDROOT
BRANCH   2   3
ATOM      3  N   UNL     1      -1.129  -3.978   0.467  0.00  0.00    -0.218 N 
ATOM      4  H   UNL     1      -1.861  -4.414   0.931  0.00  0.00    +0.176 HD
BRANCH   3   5
ATOM      5  C   UNL     1      -0.170  -4.716  -0.124  0.00  0.00    +0.147 C 
ATOM      6  S   UNL     1      -0.242  -6.426  -0.056  0.00  0.00    -0.017 S 
BRANCH   5   7
ATOM      7  N   UNL     1       0.847  -4.110  -0.768  0.00  0.00    -0.339 N 
ATOM      8  H   UNL     1       0.888  -3.142  -0.806  0.00  0.00    +0.144 HD
ATOM      9  H   UNL     1       1.538  -4.642  -1.193  0.00  0.00    +0.144 HD
ENDBRANCH   5   7
ENDBRANCH   3   5
ENDBRANCH   2   3
BRANCH   1  10
ATOM     10  C   UNL     1      -2.873  -2.514   1.987  0.00  0.00    +0.105 C 
ATOM     11  N   UNL     1      -4.105  -2.715   1.617  0.00  0.00    -0.182 NA
BRANCH  11  12
ATOM     12  N   UNL     1      -4.976  -3.434   2.445  0.00  0.00    -0.218 N 
ATOM     13  H   UNL     1      -4.685  -3.719   3.325  0.00  0.00    +0.176 HD
BRANCH  12  14
ATOM     14  C   UNL     1      -6.220  -3.732   2.018  0.00  0.00    +0.147 C 
ATOM     15  S   UNL     1      -7.327  -4.500   3.074  0.00  0.00    -0.017 S 
BRANCH  14  16
ATOM     16  N   UNL     1      -6.591  -3.425   0.759  0.00  0.00    -0.339 N 
ATOM     17  H   UNL     1      -5.964  -2.991   0.161  0.00  0.00    +0.144 HD
ATOM     18  H   UNL     1      -7.486  -3.640   0.452  0.00  0.00    +0.144 HD
ENDBRANCH  14  16
ENDBRANCH  12  14
ENDBRANCH  11  12
BRANCH  10  19
ATOM     19  C   UNL     1      -2.416  -2.950   3.355  0.00  0.00    +0.173 C 
BRANCH  19  20
ATOM     20  C   UNL     1      -2.097  -1.737   4.189  0.00  0.00    -0.025 A 
ATOM     21  C   UNL     1      -1.000  -0.955   3.879  0.00  0.00    +0.007 A 
ATOM     22  C   UNL     1      -0.706   0.159   4.644  0.00  0.00    +0.020 A 
ATOM     23  C   UNL     1      -1.511   0.491   5.720  0.00  0.00    +0.041 A 
ATOM     24  C   UNL     1      -2.609  -0.292   6.029  0.00  0.00    +0.020 A 
ATOM     25  C   UNL     1      -2.904  -1.402   5.260  0.00  0.00    +0.007 A 
ATOM     26 CL   UNL     1      -1.142   1.888   6.681  0.00  0.00    -0.084 Cl
ENDBRANCH  19  20
BRANCH  19  27
ATOM     27  C   UNL     1      -1.213  -3.788   3.226  0.00  0.00    +0.077 C 
ATOM     28  N   UNL     1      -0.284  -4.434   3.127  0.00  0.00    -0.196 NA
ENDBRANCH  19  27
ENDBRANCH  10  19
ENDBRANCH   1  10
BRANCH   1  29
ATOM     29  C   UNL     1      -1.962  -0.367   0.902  0.00  0.00    +0.173 C 
BRANCH  29  35
ATOM     30  C   UNL     1       0.136   0.932   0.487  0.00  0.00    +0.007 A 
ATOM     31  C   UNL     1       1.181   1.323  -0.329  0.00  0.00    +0.020 A 
ATOM     32  C   UNL     1       1.266   0.839  -1.623  0.00  0.00    +0.041 A 
ATOM     33  C   UNL     1       0.305  -0.036  -2.098  0.00  0.00    +0.020 A 
ATOM     34  C   UNL     1      -0.739  -0.426  -1.280  0.00  0.00    +0.007 A 
ATOM     35  C   UNL     1      -0.824   0.058   0.012  0.00  0.00    -0.025 A 
ATOM     36 CL   UNL     1       2.577   1.330  -2.649  0.00  0.00    -0.084 Cl
ENDBRANCH  29  35
BRANCH  29  37
ATOM     37  C   UNL     1      -3.240   0.031   0.289  0.00  0.00    +0.077 C 
ATOM     38  N   UNL     1      -4.226   0.338  -0.184  0.00  0.00    -0.196 NA
ENDBRANCH  29  37
ENDBRANCH   1  29
TORSDOF 13
