REMARK  Name = ZINC09593662
REMARK  9 active torsions:
REMARK  status: ('A' for Active; 'I' for Inactive)
REMARK    1  A    between atoms: C_1  and  C_2
REMARK    2  A    between atoms: C_4  and  C_21
REMARK    3  A    between atoms: C_5  and  C_20
REMARK    4  A    between atoms: N_6  and  C_7
REMARK    5  A    between atoms: C_7  and  C_8
REMARK    6  A    between atoms: C_7  and  C_14
REMARK    7  A    between atoms: C_21  and  C_23
REMARK    8  A    between atoms: C_23  and  S_24
REMARK    9  A    between atoms: S_24  and  C_25
REMARK                            x       y       z     vdW  Elec       q    Type
REMARK                         _______ _______ _______ _____ _____    ______ ____
ROOT
ATOM      1  C   UNL     1      -2.611   1.394   0.413  0.00  0.00    +0.063 C 
ATOM      2  C   UNL     1      -1.191   1.858   0.616  0.00  0.00    +0.018 A 
ATOM      3  C   UNL     1      -0.204   1.129   1.163  0.00  0.00    +0.034 A 
ATOM      4  C   UNL     1       0.994   1.978   1.149  0.00  0.00    +0.039 A 
ATOM      5  C   UNL     1       0.602   3.176   0.583  0.00  0.00    +0.027 A 
ATOM      6  N   UNL     1      -0.704   3.087   0.275  0.00  0.00    -0.336 N 
ATOM      7  C   UNL     1       1.484   4.375   0.351  0.00  0.00    +0.064 C 
ENDROOT
BRANCH   4   8
ATOM      8  C   UNL     1       2.330   1.627   1.636  0.00  0.00    +0.175 C 
ATOM      9  O   UNL     1       3.234   2.433   1.561  0.00  0.00    -0.291 OA
BRANCH   8  10
ATOM     10  C   UNL     1       2.583   0.265   2.228  0.00  0.00    +0.157 C 
BRANCH  10  11
ATOM     11  S   UNL     1       4.316   0.138   2.732  0.00  0.00    -0.078 S 
BRANCH  11  12
ATOM     12  C   UNL     1       4.330  -1.504   3.371  0.00  0.00    +0.195 A 
ATOM     13  N   UNL     1       3.215  -2.230   3.365  0.00  0.00    -0.189 NA
ATOM     14  C   UNL     1       3.227  -3.470   3.841  0.00  0.00    +0.218 A 
ATOM     15  N   UNL     1       4.351  -3.983   4.334  0.00  0.00    -0.181 NA
ATOM     16  C   UNL     1       5.464  -3.256   4.345  0.00  0.00    +0.218 A 
ATOM     17  N   UNL     1       5.454  -2.017   3.864  0.00  0.00    -0.189 NA
ATOM     18  N   UNL     1       6.630  -3.788   4.856  0.00  0.00    -0.327 N 
ATOM     19  N   UNL     1       2.071  -4.225   3.830  0.00  0.00    -0.327 N 
ATOM     20  H   UNL     1       7.442  -3.258   4.865  0.00  0.00    +0.145 HD
ATOM     21  H   UNL     1       6.638  -4.692   5.208  0.00  0.00    +0.145 HD
ATOM     22  H   UNL     1       2.079  -5.129   4.182  0.00  0.00    +0.145 HD
ATOM     23  H   UNL     1       1.252  -3.851   3.471  0.00  0.00    +0.145 HD
ENDBRANCH  11  12
ENDBRANCH  10  11
ENDBRANCH   8  10
ENDBRANCH   4   8
BRANCH   6  24
ATOM     24  C   UNL     1      -1.492   4.155  -0.345  0.00  0.00    +0.147 C 
BRANCH  24  25
ATOM     25  C   UNL     1      -2.951   3.951  -0.030  0.00  0.00    -0.020 A 
ATOM     26  C   UNL     1      -3.370   3.870   1.285  0.00  0.00    +0.006 A 
ATOM     27  C   UNL     1      -4.709   3.688   1.574  0.00  0.00    +0.000 A 
ATOM     28  C   UNL     1      -5.629   3.576   0.548  0.00  0.00    +0.000 A 
ATOM     29  C   UNL     1      -5.210   3.651  -0.767  0.00  0.00    +0.000 A 
ATOM     30  C   UNL     1      -3.871   3.839  -1.056  0.00  0.00    +0.006 A 
ENDBRANCH  24  25
BRANCH  24  31
ATOM     31  C   UNL     1      -1.043   5.488   0.195  0.00  0.00    -0.020 A 
ATOM     32  C   UNL     1      -0.922   5.676   1.559  0.00  0.00    +0.006 A 
ATOM     33  C   UNL     1      -0.505   6.898   2.054  0.00  0.00    +0.000 A 
ATOM     34  C   UNL     1      -0.220   7.935   1.185  0.00  0.00    +0.000 A 
ATOM     35  C   UNL     1      -0.346   7.748  -0.179  0.00  0.00    +0.000 A 
ATOM     36  C   UNL     1      -0.757   6.525  -0.674  0.00  0.00    +0.006 A 
ENDBRANCH  24  31
ENDBRANCH   6  24
TORSDOF 7
