REMARK  Name = ZINC65548851
REMARK  9 active torsions:
REMARK  status: ('A' for Active; 'I' for Inactive)
REMARK    1  A    between atoms: C_1  and  O_2
REMARK    2  A    between atoms: O_2  and  C_3
REMARK    3  A    between atoms: C_6  and  C_11
REMARK    4  A    between atoms: C_8  and  O_9
REMARK    5  A    between atoms: O_9  and  C_10
REMARK    6  A    between atoms: C_15  and  S_24
REMARK    7  A    between atoms: N_17  and  C_18
REMARK    8  A    between atoms: S_24  and  C_25
REMARK    9  A    between atoms: C_25  and  C_26
REMARK                            x       y       z     vdW  Elec       q    Type
REMARK                         _______ _______ _______ _____ _____    ______ ____
ROOT
ATOM      1  C   UNL     1       2.593  -2.664  -4.151  0.00  0.00    +0.189 C 
ATOM      2  N   UNL     1       3.443  -3.824  -3.799  0.00  0.00    -0.230 NA
ATOM      3  N   UNL     1       4.495  -3.831  -4.827  0.00  0.00    -0.226 NA
ATOM      4  C   UNL     1       4.765  -2.385  -5.040  0.00  0.00    +0.217 C 
ATOM      5  N   UNL     1       3.435  -1.748  -4.941  0.00  0.00    -0.284 N 
ATOM      6  H   UNL     1       3.840  -3.715  -2.877  0.00  0.00    +0.143 HD
ATOM      7  H   UNL     1       5.321  -4.308  -4.497  0.00  0.00    +0.143 HD
ENDROOT
BRANCH   1  11
ATOM      8  C   UNL     1       1.244  -0.706  -0.596  0.00  0.00    +0.162 A 
ATOM      9  C   UNL     1       2.598  -0.773  -0.882  0.00  0.00    +0.050 A 
ATOM     10  C   UNL     1       3.031  -1.407  -2.032  0.00  0.00    +0.010 A 
ATOM     11  C   UNL     1       2.116  -1.975  -2.898  0.00  0.00    -0.008 A 
ATOM     12  C   UNL     1       0.763  -1.911  -2.619  0.00  0.00    +0.056 A 
ATOM     13  C   UNL     1       0.323  -1.283  -1.465  0.00  0.00    +0.162 A 
BRANCH   8  15
ATOM     14  C   UNL     1       1.818   0.485   1.381  0.00  0.00    +0.277 C 
ATOM     15  O   UNL     1       0.817  -0.084   0.535  0.00  0.00    -0.491 OA
ENDBRANCH   8  15
BRANCH  13  16
ATOM     16  O   UNL     1      -1.007  -1.225  -1.186  0.00  0.00    -0.491 OA
ATOM     17  C   UNL     1      -1.894  -1.838  -2.123  0.00  0.00    +0.277 C 
ENDBRANCH  13  16
ENDBRANCH   1  11
BRANCH   5  18
ATOM     18  C   UNL     1       3.051  -0.522  -5.488  0.00  0.00    +0.033 A 
ATOM     19  C   UNL     1       1.730  -0.103  -5.398  0.00  0.00    +0.023 A 
ATOM     20  C   UNL     1       1.354   1.111  -5.940  0.00  0.00    +0.002 A 
ATOM     21  C   UNL     1       2.291   1.908  -6.571  0.00  0.00    +0.000 A 
ATOM     22  C   UNL     1       3.607   1.494  -6.662  0.00  0.00    +0.002 A 
ATOM     23  C   UNL     1       3.991   0.284  -6.118  0.00  0.00    +0.023 A 
ENDBRANCH   5  18
BRANCH   4  24
ATOM     24  S   UNL     1       5.874  -1.750  -3.752  0.00  0.00    -0.118 S 
BRANCH  24  25
ATOM     25  C   UNL     1       7.497  -2.426  -4.198  0.00  0.00    +0.119 C 
BRANCH  25  26
ATOM     26  C   UNL     1       8.560  -1.870  -3.248  0.00  0.00    +0.184 C 
ATOM     27  N   UNL     1       8.207  -2.183  -1.858  0.00  0.00    -0.363 N 
ATOM     28  C   UNL     1       8.064  -1.054  -1.227  0.00  0.00    +0.060 A 
ATOM     29  C   UNL     1       7.720  -0.722   0.162  0.00  0.00    +0.027 A 
ATOM     30  C   UNL     1       7.644   0.571   0.538  0.00  0.00    +0.002 A 
ATOM     31  C   UNL     1       7.882   1.634  -0.351  0.00  0.00    +0.002 A 
ATOM     32  C   UNL     1       8.203   1.441  -1.646  0.00  0.00    +0.027 A 
ATOM     33  C   UNL     1       8.316   0.072  -2.168  0.00  0.00    +0.060 A 
ATOM     34  N   UNL     1       8.604  -0.405  -3.344  0.00  0.00    -0.363 N 
ATOM     35  H   UNL     1       8.099  -3.070  -1.479  0.00  0.00    +0.162 HD
ATOM     36  H   UNL     1       8.811   0.112  -4.139  0.00  0.00    +0.162 HD
ENDBRANCH  25  26
ENDBRANCH  24  25
ENDBRANCH   4  24
TORSDOF 7
