REMARK  Name = ZINC25535809
REMARK  7 active torsions:
REMARK  status: ('A' for Active; 'I' for Inactive)
REMARK    1  A    between atoms: C_1  and  C_2
REMARK    2  A    between atoms: C_2  and  C_3
REMARK    3  A    between atoms: C_2  and  C_4
REMARK    4  A    between atoms: C_4  and  C_6
REMARK    5  A    between atoms: C_4  and  N_22
REMARK    6  A    between atoms: C_6  and  N_7
REMARK    7  A    between atoms: C_8  and  C_10
REMARK                            x       y       z     vdW  Elec       q    Type
REMARK                         _______ _______ _______ _____ _____    ______ ____
ROOT
ATOM      1  C   UNL     1      -1.031   1.100  -1.141  0.00  0.00    +0.089 C 
ENDROOT
BRANCH   1   2
ATOM      2  N   UNL     1      -0.506   0.392  -2.311  0.00  0.00    -0.312 N 
ATOM      3  C   UNL     1      -1.062   0.590  -3.523  0.00  0.00    +0.265 C 
ATOM      4  O   UNL     1      -1.998   1.355  -3.645  0.00  0.00    -0.268 OA
ATOM      5  H   UNL     1       0.342  -0.300  -2.201  0.00  0.00    +0.149 HD
BRANCH   3   6
ATOM      6  C   UNL     1      -0.533  -0.123  -4.703  0.00  0.00    +0.153 A 
ATOM      7  C   UNL     1      -1.137   0.081  -6.029  0.00  0.00    +0.020 A 
ATOM      8  C   UNL     1      -2.206   0.943  -6.245  0.00  0.00    +0.011 A 
ATOM      9  C   UNL     1      -2.714   1.086  -7.519  0.00  0.00    +0.001 A 
ATOM     10  C   UNL     1      -2.167   0.384  -8.585  0.00  0.00    +0.001 A 
ATOM     11  C   UNL     1      -1.103  -0.472  -8.394  0.00  0.00    +0.014 A 
ATOM     12  C   UNL     1      -0.577  -0.630  -7.116  0.00  0.00    +0.050 A 
ATOM     13  C   UNL     1       0.554  -1.521  -6.823  0.00  0.00    +0.272 A 
ATOM     14  O   UNL     1       1.083  -2.168  -7.708  0.00  0.00    -0.266 OA
ATOM     15  N   UNL     1       0.993  -1.606  -5.550  0.00  0.00    -0.242 N 
ATOM     16  H   UNL     1       1.838  -2.265  -5.302  0.00  0.00    +0.192 HD
ATOM     17  N   UNL     1       0.477  -0.950  -4.580  0.00  0.00    -0.166 NA
ENDBRANCH   3   6
ENDBRANCH   1   2
BRANCH   1  18
ATOM     18  C   UNL     1      -0.133   0.823   0.067  0.00  0.00    -0.048 C 
BRANCH  18  19
ATOM     19  N   UNL     1      -0.768   1.355   1.281  0.00  0.00    +0.386 N 
ATOM     20  C   UNL     1      -1.970   0.581   1.630  0.00  0.00    -0.073 C 
ATOM     21  C   UNL     1      -2.371   0.928   3.064  0.00  0.00    +0.017 C 
ATOM     22  C   UNL     1      -2.437   2.424   3.232  0.00  0.00    -0.048 A 
ATOM     23  C   UNL     1      -3.113   2.937   4.329  0.00  0.00    +0.004 A 
ATOM     24  C   UNL     1      -3.194   4.301   4.523  0.00  0.00    +0.000 A 
ATOM     25  C   UNL     1      -2.597   5.161   3.619  0.00  0.00    +0.000 A 
ATOM     26  C   UNL     1      -1.924   4.651   2.527  0.00  0.00    +0.002 A 
ATOM     27  C   UNL     1      -1.844   3.280   2.330  0.00  0.00    -0.061 A 
ATOM     28  C   UNL     1      -1.106   2.773   1.119  0.00  0.00    -0.042 C 
ATOM     29  H   UNL     1      -0.043   1.265   2.103  0.00  0.00    -0.081 HD
ENDBRANCH  18  19
BRANCH  18  31
ATOM     30  C   UNL     1       2.062   1.361   1.133  0.00  0.00    +0.005 C 
ATOM     31  C   UNL     1       1.222   1.502  -0.139  0.00  0.00    -0.029 C 
ATOM     32  C   UNL     1       1.953   0.838  -1.308  0.00  0.00    +0.005 C 
ENDBRANCH  18  31
ENDBRANCH   1  18
TORSDOF 5
