REMARK  Name = ZINC20527717
REMARK  13 active torsions:
REMARK  status: ('A' for Active; 'I' for Inactive)
REMARK    1  A    between atoms: C_1  and  C_2
REMARK    2  A    between atoms: C_2  and  N_3
REMARK    3  A    between atoms: N_3  and  C_4
REMARK    4  A    between atoms: N_3  and  C_6
REMARK    5  A    between atoms: C_4  and  C_5
REMARK    6  A    between atoms: C_9  and  C_12
REMARK    7  A    between atoms: N_13  and  N_14
REMARK    8  A    between atoms: C_18  and  S_21
REMARK    9  A    between atoms: N_19  and  N_20
REMARK   10  A    between atoms: S_21  and  C_22
REMARK   11  A    between atoms: C_22  and  C_23
REMARK   12  A    between atoms: N_25  and  C_26
REMARK   13  A    between atoms: C_27  and  C_35
REMARK                            x       y       z     vdW  Elec       q    Type
REMARK                         _______ _______ _______ _____ _____    ______ ____
ROOT
ATOM      1  N   UNL     1      -4.413  13.129  -7.407  0.00  0.00    -0.204 N 
ATOM      2  C   UNL     1      -4.027  12.227  -6.425  0.00  0.00    +0.254 A 
ATOM      3  N   UNL     1      -3.833  12.505  -5.158  0.00  0.00    -0.109 NA
ATOM      4  N   UNL     1      -3.461  11.320  -4.509  0.00  0.00    -0.119 NA
ATOM      5  C   UNL     1      -3.431  10.360  -5.402  0.00  0.00    +0.210 A 
ATOM      6  N   UNL     1      -3.784  10.895  -6.608  0.00  0.00    -0.211 N 
ATOM      7  H   UNL     1      -4.548  12.787  -8.444  0.00  0.00    +0.177 HD
ENDROOT
BRANCH   6   8
ATOM      8  N   UNL     1      -3.877  10.217  -7.790  0.00  0.00    -0.294 N 
ATOM      9  H   UNL     1      -3.658   9.139  -7.825  0.00  0.00    +0.163 HD
ATOM     10  H   UNL     1      -4.171  10.748  -8.708  0.00  0.00    +0.163 HD
ENDBRANCH   6   8
BRANCH   1  12
ATOM     11  C   UNL     1      -4.990  15.316  -7.997  0.00  0.00    +0.138 C 
ATOM     12  N   UNL     1      -4.630  14.473  -7.078  0.00  0.00    -0.188 NA
BRANCH  11  16
ATOM     13  C   UNL     1      -5.648  19.391  -7.000  0.00  0.00    +0.030 A 
ATOM     14  C   UNL     1      -5.819  18.961  -8.311  0.00  0.00    +0.024 A 
ATOM     15  C   UNL     1      -5.607  17.640  -8.639  0.00  0.00    +0.011 A 
ATOM     16  C   UNL     1      -5.218  16.731  -7.651  0.00  0.00    -0.005 A 
ATOM     17  C   UNL     1      -5.053  17.165  -6.333  0.00  0.00    +0.011 A 
ATOM     18  C   UNL     1      -5.262  18.489  -6.014  0.00  0.00    +0.024 A 
BRANCH  13  19
ATOM     19  N   UNL     1      -5.865  20.730  -6.672  0.00  0.00    -0.330 N 
BRANCH  19  21
ATOM     20  C   UNL     1      -4.237  21.634  -5.086  0.00  0.00    +0.024 C 
ATOM     21  C   UNL     1      -5.685  21.184  -5.290  0.00  0.00    +0.102 C 
ENDBRANCH  19  21
BRANCH  19  22
ATOM     22  C   UNL     1      -6.272  21.681  -7.708  0.00  0.00    +0.102 C 
ATOM     23  C   UNL     1      -7.800  21.720  -7.793  0.00  0.00    +0.024 C 
ENDBRANCH  19  22
ENDBRANCH  13  19
ENDBRANCH  11  16
ENDBRANCH   1  12
BRANCH   5  24
ATOM     24  S   UNL     1      -3.017   8.675  -5.097  0.00  0.00    -0.075 S 
BRANCH  24  25
ATOM     25  C   UNL     1      -2.653   8.627  -3.320  0.00  0.00    +0.173 C 
BRANCH  25  26
ATOM     26  C   UNL     1      -2.279   7.222  -2.922  0.00  0.00    +0.228 C 
ATOM     27  O   UNL     1      -2.260   6.341  -3.755  0.00  0.00    -0.275 OA
ATOM     28  N   UNL     1      -1.965   6.946  -1.641  0.00  0.00    -0.278 N 
ATOM     29  H   UNL     1      -1.982   7.746  -0.886  0.00  0.00    +0.155 HD
BRANCH  28  30
ATOM     30  C   UNL     1      -1.621   5.653  -1.274  0.00  0.00    +0.090 A 
ATOM     31  C   UNL     1      -1.271   5.177  -0.019  0.00  0.00    +0.084 A 
ATOM     32  C   UNL     1      -0.951   3.765   0.100  0.00  0.00    -0.018 A 
ATOM     33  C   UNL     1      -1.032   3.059  -1.049  0.00  0.00    -0.004 A 
ATOM     34  S   UNL     1      -1.524   4.240  -2.273  0.00  0.00    -0.077 S 
ATOM     35  C   UNL     1      -0.761   1.597  -1.232  0.00  0.00    +0.043 C 
ATOM     36  C   UNL     1      -0.013   1.086   0.008  0.00  0.00    +0.005 C 
ATOM     37  C   UNL     1      -0.735   1.583   1.264  0.00  0.00    +0.005 C 
ATOM     38  C   UNL     1      -0.551   3.094   1.407  0.00  0.00    +0.037 C 
BRANCH  31  39
ATOM     39  C   UNL     1      -1.226   6.046   1.118  0.00  0.00    +0.102 C 
ATOM     40  N   UNL     1      -1.191   6.736   2.020  0.00  0.00    -0.191 NA
ENDBRANCH  31  39
ENDBRANCH  28  30
ENDBRANCH  25  26
ENDBRANCH  24  25
ENDBRANCH   5  24
TORSDOF 11
