REMARK  Name = ZINC13273455
REMARK  7 active torsions:
REMARK  status: ('A' for Active; 'I' for Inactive)
REMARK    1  A    between atoms: C_1  and  N_2
REMARK    2  A    between atoms: C_3  and  C_24
REMARK    3  A    between atoms: C_6  and  S_7
REMARK    4  A    between atoms: S_7  and  C_8
REMARK    5  A    between atoms: N_11  and  C_16
REMARK    6  A    between atoms: C_19  and  C_22
REMARK    7  A    between atoms: C_24  and  C_25
REMARK                            x       y       z     vdW  Elec       q    Type
REMARK                         _______ _______ _______ _____ _____    ______ ____
ROOT
ATOM      1  C   UNL     1       1.250   2.308   0.473  0.00  0.00    +0.059 A 
ATOM      2  C   UNL     1       2.182   1.958  -0.528  0.00  0.00    +0.150 A 
ATOM      3  N   UNL     1       3.418   2.366  -0.449  0.00  0.00    -0.171 NA
ATOM      4  N   UNL     1       3.850   3.156   0.621  0.00  0.00    -0.196 N 
ATOM      5  C   UNL     1       2.994   3.514   1.598  0.00  0.00    +0.291 A 
ATOM      6  O   UNL     1       3.378   4.205   2.530  0.00  0.00    -0.264 OA
ATOM      7  C   UNL     1       1.658   3.094   1.536  0.00  0.00    +0.122 A 
ATOM      8 CL   UNL     1       0.533   3.548   2.779  0.00  0.00    -0.077 Cl
ENDROOT
BRANCH   4   9
ATOM      9  C   UNL     1       5.179   3.577   0.678  0.00  0.00    +0.069 A 
ATOM     10  C   UNL     1       5.773   4.153  -0.441  0.00  0.00    +0.029 A 
ATOM     11  C   UNL     1       7.083   4.575  -0.387  0.00  0.00    +0.017 A 
ATOM     12  C   UNL     1       7.819   4.413   0.790  0.00  0.00    +0.063 A 
ATOM     13  C   UNL     1       7.221   3.829   1.910  0.00  0.00    +0.017 A 
ATOM     14  C   UNL     1       5.909   3.415   1.851  0.00  0.00    +0.029 A 
BRANCH  12  15
ATOM     15  C   UNL     1       9.225   4.858   0.850  0.00  0.00    +0.387 C 
ATOM     16  O   UNL     1       9.864   4.717   1.873  0.00  0.00    -0.241 OA
ATOM     17  O   UNL     1       9.800   5.421  -0.231  0.00  0.00    -0.241 OA
ENDBRANCH  12  15
ENDBRANCH   4   9
BRANCH   1  18
ATOM     18  S   UNL     1      -0.420   1.755   0.364  0.00  0.00    -0.047 S 
BRANCH  18  24
ATOM     19  C   UNL     1      -2.600  -0.724   0.564  0.00  0.00    +0.152 C 
ATOM     20  N   UNL     1      -1.151  -0.937   0.585  0.00  0.00    -0.309 N 
ATOM     21  C   UNL     1      -0.494  -2.132   0.682  0.00  0.00    +0.134 A 
ATOM     22  N   UNL     1       0.783  -1.875   0.669  0.00  0.00    -0.134 NA
ATOM     23  N   UNL     1       0.977  -0.608   0.566  0.00  0.00    -0.122 NA
ATOM     24  C   UNL     1      -0.176   0.016   0.508  0.00  0.00    +0.196 A 
BRANCH  21  25
ATOM     25  C   UNL     1      -1.130  -3.494   0.789  0.00  0.00    +0.081 C 
BRANCH  25  26
ATOM     26  C   UNL     1      -1.240  -4.117  -0.604  0.00  0.00    +0.019 C 
ATOM     27  C   UNL     1      -2.022  -5.438  -0.512  0.00  0.00    +0.028 C 
ATOM     28  C   UNL     1      -1.851  -6.196  -1.859  0.00  0.00    +0.166 C 
ATOM     29  S   UNL     1      -0.068  -5.878  -2.201  0.00  0.00    -0.031 S 
ATOM     30  O   UNL     1       0.703  -6.945  -1.665  0.00  0.00    -0.174 OA
ATOM     31  O   UNL     1       0.084  -5.524  -3.569  0.00  0.00    -0.174 OA
ATOM     32  C   UNL     1       0.178  -4.380  -1.163  0.00  0.00    +0.170 C 
ENDBRANCH  25  26
ENDBRANCH  21  25
ENDBRANCH  18  24
ENDBRANCH   1  18
TORSDOF 6
