REMARK  Name = ZINC14471255
REMARK  8 active torsions:
REMARK  status: ('A' for Active; 'I' for Inactive)
REMARK    1  A    between atoms: C_1  and  C_2
REMARK    2  A    between atoms: C_2  and  C_3
REMARK    3  A    between atoms: C_3  and  C_5
REMARK    4  A    between atoms: C_3  and  N_6
REMARK    5  A    between atoms: N_6  and  S_7
REMARK    6  A    between atoms: S_7  and  C_10
REMARK    7  A    between atoms: C_23  and  C_26
REMARK    8  A    between atoms: C_30  and  N_32
REMARK                            x       y       z     vdW  Elec       q    Type
REMARK                         _______ _______ _______ _____ _____    ______ ____
ROOT
ATOM      1  C   UNL     1      -5.913   4.695   0.911  0.00  0.00    +0.106 A 
ATOM      2  C   UNL     1      -6.052   4.355  -0.423  0.00  0.00    +0.030 A 
ATOM      3  C   UNL     1      -5.261   3.367  -0.972  0.00  0.00    +0.025 A 
ATOM      4  C   UNL     1      -4.319   2.707  -0.192  0.00  0.00    +0.031 A 
ATOM      5  C   UNL     1      -4.175   3.065   1.153  0.00  0.00    -0.018 A 
ATOM      6  C   UNL     1      -4.975   4.049   1.694  0.00  0.00    +0.034 A 
ATOM      7  C   UNL     1      -3.142   2.360   1.940  0.00  0.00    +0.049 C 
ATOM      8  C   UNL     1      -3.255   2.183   3.410  0.00  0.00    -0.023 C 
ATOM      9  C   UNL     1      -2.658   1.047   3.748  0.00  0.00    -0.030 C 
ATOM     10  C   UNL     1      -2.118   0.348   2.499  0.00  0.00    +0.033 C 
ATOM     11  C   UNL     1      -3.069   0.889   1.429  0.00  0.00    +0.029 C 
ATOM     12  C   UNL     1      -2.513   0.979   0.019  0.00  0.00    +0.105 C 
ATOM     13  N   UNL     1      -3.538   1.698  -0.769  0.00  0.00    -0.336 N 
ATOM     14  H   UNL     1      -3.671   1.467  -1.701  0.00  0.00    +0.147 HD
ENDROOT
BRANCH  12  15
ATOM     15  C   UNL     1      -1.219   1.750   0.017  0.00  0.00    -0.025 A 
ATOM     16  C   UNL     1      -0.019   1.087   0.191  0.00  0.00    +0.007 A 
ATOM     17  C   UNL     1       1.168   1.794   0.196  0.00  0.00    +0.022 A 
ATOM     18  C   UNL     1       1.156   3.167   0.021  0.00  0.00    +0.071 A 
ATOM     19  C   UNL     1      -0.045   3.830  -0.158  0.00  0.00    +0.145 A 
ATOM     20  C   UNL     1      -1.232   3.121  -0.163  0.00  0.00    +0.039 A 
ATOM     21 CL   UNL     1       2.646   4.057   0.028  0.00  0.00    -0.081 Cl
BRANCH  19  22
ATOM     22  N   UNL     1      -0.059   5.298  -0.345  0.00  0.00    +0.058 N 
ATOM     23  O   UNL     1      -1.117   5.882  -0.503  0.00  0.00    -0.126 OA
ATOM     24  O   UNL     1       0.986   5.923  -0.341  0.00  0.00    -0.126 OA
ENDBRANCH  19  22
ENDBRANCH  12  15
BRANCH   1  25
ATOM     25  S   UNL     1      -6.931   5.951   1.611  0.00  0.00    +0.059 S 
ATOM     26  O   UNL     1      -8.101   6.021   0.808  0.00  0.00    -0.153 OA
ATOM     27  O   UNL     1      -6.980   5.702   3.009  0.00  0.00    -0.153 OA
BRANCH  25  28
ATOM     28  N   UNL     1      -6.136   7.391   1.415  0.00  0.00    -0.187 NA
ATOM     29  H   UNL     1      -5.828   7.885   2.191  0.00  0.00    +0.148 HD
BRANCH  28  30
ATOM     30  C   UNL     1      -5.898   7.919   0.069  0.00  0.00    +0.073 C 
ATOM     31  C   UNL     1      -4.503   7.503  -0.403  0.00  0.00    +0.025 C 
BRANCH  30  33
ATOM     32  C   UNL     1      -7.424   9.861   0.447  0.00  0.00    +0.005 C 
ATOM     33  C   UNL     1      -5.994   9.446   0.096  0.00  0.00    +0.017 C 
ENDBRANCH  30  33
ENDBRANCH  28  30
ENDBRANCH  25  28
ENDBRANCH   1  25
TORSDOF 6
