REMARK  Name = ZINC56064900
REMARK  7 active torsions:
REMARK  status: ('A' for Active; 'I' for Inactive)
REMARK    1  A    between atoms: C_1  and  C_2
REMARK    2  A    between atoms: C_5  and  C_27
REMARK    3  A    between atoms: C_6  and  S_8
REMARK    4  A    between atoms: S_8  and  N_11
REMARK    5  A    between atoms: N_11  and  C_12
REMARK    6  A    between atoms: C_12  and  C_13
REMARK    7  A    between atoms: C_23  and  C_26
REMARK                            x       y       z     vdW  Elec       q    Type
REMARK                         _______ _______ _______ _____ _____    ______ ____
ROOT
ATOM      1  C   UNL     1      -1.288  -4.620   1.408  0.00  0.00    +0.142 C 
ENDROOT
BRANCH   1   2
ATOM      2  C   UNL     1      -2.308  -5.660   1.795  0.00  0.00    -0.016 A 
ATOM      3  C   UNL     1      -1.946  -6.730   2.603  0.00  0.00    +0.009 A 
ATOM      4  C   UNL     1      -2.913  -7.662   2.936  0.00  0.00    +0.042 A 
ATOM      5  C   UNL     1      -4.207  -7.497   2.452  0.00  0.00    +0.099 A 
ATOM      6  N   UNL     1      -4.512  -6.462   1.683  0.00  0.00    -0.349 N 
ATOM      7  C   UNL     1      -3.612  -5.555   1.355  0.00  0.00    +0.089 A 
ATOM      8  N   UNL     1      -5.188  -8.426   2.777  0.00  0.00    -0.312 N 
ATOM      9  C   UNL     1      -6.531  -8.350   2.181  0.00  0.00    +0.134 C 
ATOM     10  C   UNL     1      -6.887  -9.730   1.615  0.00  0.00    +0.179 C 
ATOM     11  O   UNL     1      -6.698 -10.718   2.631  0.00  0.00    -0.374 OA
ATOM     12  C   UNL     1      -5.349 -10.838   3.087  0.00  0.00    +0.132 C 
ATOM     13  C   UNL     1      -4.912  -9.518   3.724  0.00  0.00    +0.137 C 
ATOM     14  C   UNL     1      -5.257 -11.962   4.120  0.00  0.00    +0.039 C 
ATOM     15  H   UNL     1      -5.420  -6.367   1.357  0.00  0.00    +0.167 HD
ENDBRANCH   1   2
BRANCH   1  16
ATOM     16  N   UNL     1      -1.278  -3.549   2.407  0.00  0.00    -0.186 NA
ATOM     17  H   UNL     1      -2.011  -3.467   3.037  0.00  0.00    +0.148 HD
BRANCH  16  18
ATOM     18  S   UNL     1      -0.015  -2.479   2.462  0.00  0.00    +0.059 S 
ATOM     19  O   UNL     1       1.175  -3.255   2.443  0.00  0.00    -0.153 OA
ATOM     20  O   UNL     1      -0.308  -1.559   3.504  0.00  0.00    -0.153 OA
BRANCH  18  26
ATOM     21  C   UNL     1       2.151  -1.026  -2.067  0.00  0.00    +0.044 C 
ATOM     22  C   UNL     1       0.995  -0.930  -1.105  0.00  0.00    -0.049 A 
ATOM     23  C   UNL     1      -0.087  -0.123  -1.402  0.00  0.00    +0.004 A 
ATOM     24  C   UNL     1      -1.147  -0.035  -0.519  0.00  0.00    +0.005 A 
ATOM     25  C   UNL     1      -1.125  -0.755   0.661  0.00  0.00    -0.024 A 
ATOM     26  C   UNL     1      -0.044  -1.562   0.958  0.00  0.00    +0.108 A 
ATOM     27  C   UNL     1       1.015  -1.654   0.073  0.00  0.00    +0.032 A 
ATOM     28  C   UNL     1      -2.280  -0.658   1.624  0.00  0.00    +0.046 C 
ENDBRANCH  18  26
ENDBRANCH  16  18
ENDBRANCH   1  16
TORSDOF 4
