REMARK  Name = ZINC06894039
REMARK  5 active torsions:
REMARK  status: ('A' for Active; 'I' for Inactive)
REMARK    1  A    between atoms: C_1  and  C_2
REMARK    2  A    between atoms: C_13  and  S_14
REMARK    3  A    between atoms: S_14  and  C_15
REMARK    4  A    between atoms: C_15  and  C_16
REMARK    5  A    between atoms: C_19  and  C_22
REMARK                            x       y       z     vdW  Elec       q    Type
REMARK                         _______ _______ _______ _____ _____    ______ ____
ROOT
ATOM      1  C   UNL     1       1.226  -9.678  -6.393  0.00  0.00    +0.086 C 
ATOM      2  C   UNL     1       1.226  -8.580  -5.361  0.00  0.00    +0.105 A 
ATOM      3  C   UNL     1       1.240  -8.766  -4.031  0.00  0.00    +0.071 A 
ATOM      4  C   UNL     1       1.235  -7.483  -3.429  0.00  0.00    +0.094 A 
ATOM      5  C   UNL     1       1.217  -6.562  -4.473  0.00  0.00    +0.154 A 
ATOM      6  O   UNL     1       1.212  -7.261  -5.629  0.00  0.00    -0.458 OA
ATOM      7  C   UNL     1       1.211  -5.281  -3.905  0.00  0.00    +0.077 A 
ATOM      8  C   UNL     1       1.225  -5.433  -2.538  0.00  0.00    +0.085 A 
ATOM      9  N   UNL     1       1.240  -6.789  -2.248  0.00  0.00    -0.293 N 
ATOM     10  C   UNL     1       1.255  -7.167  -0.928  0.00  0.00    +0.229 A 
ATOM     11  N   UNL     1       1.255  -6.269   0.013  0.00  0.00    -0.138 NA
ATOM     12  N   UNL     1       1.249  -5.007  -0.221  0.00  0.00    -0.139 NA
ATOM     13  C   UNL     1       1.228  -4.523  -1.449  0.00  0.00    +0.144 A 
ENDROOT
BRANCH  13  14
ATOM     14  S   UNL     1       1.210  -2.784  -1.730  0.00  0.00    -0.097 S 
BRANCH  14  15
ATOM     15  C   UNL     1       1.221  -2.189  -0.020  0.00  0.00    +0.111 C 
BRANCH  15  16
ATOM     16  C   UNL     1       1.208  -0.682  -0.013  0.00  0.00    -0.037 A 
ATOM     17  C   UNL     1       0.002  -0.004   0.002  0.00  0.00    +0.005 A 
ATOM     18  C   UNL     1      -0.017   1.375   0.010  0.00  0.00    +0.008 A 
ATOM     19  C   UNL     1       1.184   2.087   0.002  0.00  0.00    -0.026 A 
ATOM     20  C   UNL     1       2.397   1.396  -0.013  0.00  0.00    +0.008 A 
ATOM     21  C   UNL     1       2.401   0.017  -0.021  0.00  0.00    +0.005 A 
BRANCH  19  22
ATOM     22  C   UNL     1       1.171   3.565   0.009  0.00  0.00    +0.000 C 
ATOM     23  C   UNL     1       2.313   4.237   0.002  0.00  0.00    +0.009 C 
ENDBRANCH  19  22
ENDBRANCH  15  16
ENDBRANCH  14  15
ENDBRANCH  13  14
TORSDOF 4
