REMARK  Name = ZINC12847635
REMARK  5 active torsions:
REMARK  status: ('A' for Active; 'I' for Inactive)
REMARK    1  A    between atoms: C_1  and  O_2
REMARK    2  A    between atoms: O_2  and  C_3
REMARK    3  A    between atoms: C_8  and  C_9
REMARK    4  A    between atoms: C_12  and  C_32
REMARK    5  A    between atoms: C_16  and  C_19
REMARK                            x       y       z     vdW  Elec       q    Type
REMARK                         _______ _______ _______ _____ _____    ______ ____
ROOT
ATOM      1  C   UNL     1       1.574  -4.258   0.656  0.00  0.00    +0.108 C 
ATOM      2  C   UNL     1       1.445  -4.510   2.163  0.00  0.00    +0.063 C 
ATOM      3  C   UNL     1      -0.017  -4.350   2.593  0.00  0.00    +0.215 C 
ATOM      4  N   UNL     1      -0.866  -5.134   1.690  0.00  0.00    -0.238 N 
ATOM      5  C   UNL     1      -0.471  -5.554   0.465  0.00  0.00    +0.130 A 
ATOM      6  C   UNL     1      -1.520  -6.260  -0.093  0.00  0.00    +0.096 A 
ATOM      7  C   UNL     1      -2.572  -6.246   0.857  0.00  0.00    +0.149 A 
ATOM      8  N   UNL     1      -2.170  -5.577   1.903  0.00  0.00    -0.177 NA
ATOM      9  N   UNL     1       0.783  -5.276  -0.062  0.00  0.00    -0.322 N 
ATOM     10  H   UNL     1       1.122  -5.724  -0.853  0.00  0.00    +0.148 HD
ENDROOT
BRANCH   6  11
ATOM     11  C   UNL     1      -1.540  -6.900  -1.414  0.00  0.00    +0.256 C 
ATOM     12  O   UNL     1      -1.092  -6.314  -2.381  0.00  0.00    -0.269 OA
ATOM     13  N   UNL     1      -2.056  -8.137  -1.555  0.00  0.00    -0.267 N 
ATOM     14  C   UNL     1      -2.658  -8.831  -0.408  0.00  0.00    +0.114 C 
ATOM     15  C   UNL     1      -2.147 -10.278  -0.415  0.00  0.00    +0.024 C 
ATOM     16  C   UNL     1      -2.635 -10.968  -1.689  0.00  0.00    +0.038 C 
ATOM     17  C   UNL     1      -2.296 -10.140  -2.900  0.00  0.00    -0.026 A 
ATOM     18  C   UNL     1      -2.032  -8.781  -2.799  0.00  0.00    +0.040 A 
ATOM     19  C   UNL     1      -1.732  -8.043  -3.938  0.00  0.00    +0.024 A 
ATOM     20  C   UNL     1      -1.700  -8.660  -5.173  0.00  0.00    +0.002 A 
ATOM     21  C   UNL     1      -1.966 -10.013  -5.275  0.00  0.00    +0.000 A 
ATOM     22  C   UNL     1      -2.255 -10.753  -4.141  0.00  0.00    +0.005 A 
ENDBRANCH   6  11
BRANCH   1  28
ATOM     23  C   UNL     1       1.881  -1.779   0.438  0.00  0.00    +0.125 A 
ATOM     24  C   UNL     1       1.397  -0.516   0.129  0.00  0.00    +0.046 A 
ATOM     25  C   UNL     1       0.088  -0.361  -0.284  0.00  0.00    +0.004 A 
ATOM     26  C   UNL     1      -0.740  -1.464  -0.389  0.00  0.00    +0.001 A 
ATOM     27  C   UNL     1      -0.261  -2.723  -0.081  0.00  0.00    +0.009 A 
ATOM     28  C   UNL     1       1.050  -2.884   0.327  0.00  0.00    +0.014 A 
BRANCH  23  30
ATOM     29  C   UNL     1       3.966  -0.751   0.936  0.00  0.00    +0.277 C 
ATOM     30  O   UNL     1       3.168  -1.933   0.844  0.00  0.00    -0.495 OA
ENDBRANCH  23  30
ENDBRANCH   1  28
BRANCH   3  31
ATOM     31  C   UNL     1      -0.188  -4.854   4.028  0.00  0.00    +0.412 C 
ATOM     32  F   UNL     1       0.633  -4.111   4.883  0.00  0.00    -0.168 F 
ATOM     33  F   UNL     1      -1.523  -4.706   4.418  0.00  0.00    -0.168 F 
ATOM     34  F   UNL     1       0.171  -6.204   4.093  0.00  0.00    -0.168 F 
ENDBRANCH   3  31
TORSDOF 4
