REMARK  Name = ZINC10786476
REMARK  5 active torsions:
REMARK  status: ('A' for Active; 'I' for Inactive)
REMARK    1  A    between atoms: C_1  and  S_2
REMARK    2  A    between atoms: S_2  and  C_3
REMARK    3  A    between atoms: C_18  and  C_20
REMARK    4  A    between atoms: N_26  and  S_27
REMARK    5  A    between atoms: S_27  and  C_30
REMARK                            x       y       z     vdW  Elec       q    Type
REMARK                         _______ _______ _______ _____ _____    ______ ____
ROOT
ATOM      1  C   UNL     1       1.302   3.513   6.521  0.00  0.00    +0.034 A 
ATOM      2  C   UNL     1       2.242   3.115   7.448  0.00  0.00    +0.017 A 
ATOM      3  C   UNL     1       3.306   2.301   7.094  0.00  0.00    +0.002 A 
ATOM      4  C   UNL     1       3.430   1.878   5.783  0.00  0.00    +0.017 A 
ATOM      5  C   UNL     1       2.499   2.268   4.850  0.00  0.00    +0.042 A 
ATOM      6  C   UNL     1       1.401   3.095   5.168  0.00  0.00    +0.094 A 
ATOM      7  N   UNL     1       0.576   3.396   4.140  0.00  0.00    -0.224 NA
ATOM      8  C   UNL     1       0.772   2.942   2.924  0.00  0.00    +0.162 A 
ATOM      9  S   UNL     1       2.265   1.978   3.113  0.00  0.00    -0.052 S 
ATOM     10  N   UNL     1       0.019   3.160   1.786  0.00  0.00    -0.307 N 
ATOM     11  C   UNL     1       0.601   2.466   0.629  0.00  0.00    +0.126 C 
ATOM     12  C   UNL     1      -0.353   2.581  -0.564  0.00  0.00    +0.127 C 
ATOM     13  N   UNL     1      -0.661   4.002  -0.782  0.00  0.00    -0.297 N 
ATOM     14  C   UNL     1      -1.120   4.799   0.366  0.00  0.00    +0.127 C 
ATOM     15  C   UNL     1      -0.136   4.597   1.523  0.00  0.00    +0.126 C 
ATOM     16  C   UNL     1      -0.525   4.561  -2.001  0.00  0.00    +0.235 C 
ATOM     17  O   UNL     1      -0.031   3.925  -2.908  0.00  0.00    -0.274 OA
ENDROOT
BRANCH  16  18
ATOM     18  C   UNL     1      -0.988   5.975  -2.237  0.00  0.00    +0.166 C 
ATOM     19  C   UNL     1       0.216   6.859  -2.579  0.00  0.00    +0.030 C 
ATOM     20  C   UNL     1      -0.274   8.260  -2.954  0.00  0.00    +0.003 C 
ATOM     21  C   UNL     1      -1.175   8.173  -4.187  0.00  0.00    +0.017 C 
ATOM     22  C   UNL     1      -2.395   7.305  -3.864  0.00  0.00    +0.110 C 
ATOM     23  N   UNL     1      -1.933   6.003  -3.362  0.00  0.00    -0.164 NA
BRANCH  23  24
ATOM     24  S   UNL     1      -2.462   4.595  -4.054  0.00  0.00    +0.068 S 
ATOM     25  O   UNL     1      -2.287   3.574  -3.082  0.00  0.00    -0.152 OA
ATOM     26  O   UNL     1      -3.725   4.880  -4.640  0.00  0.00    -0.152 OA
BRANCH  24  27
ATOM     27  C   UNL     1      -1.364   4.221  -5.381  0.00  0.00    +0.143 A 
ATOM     28  C   UNL     1      -0.330   3.345  -5.412  0.00  0.00    +0.036 A 
ATOM     29  C   UNL     1       0.401   3.212  -6.577  0.00  0.00    +0.010 A 
ATOM     30  C   UNL     1       0.069   3.969  -7.652  0.00  0.00    +0.047 A 
ATOM     31  S   UNL     1      -1.320   4.903  -7.030  0.00  0.00    -0.077 S 
ENDBRANCH  24  27
ENDBRANCH  23  24
ENDBRANCH  16  18
BRANCH   1  33
ATOM     32  C   UNL     1       0.255   4.813   8.792  0.00  0.00    +0.090 C 
ATOM     33  S   UNL     1      -0.033   4.549   7.021  0.00  0.00    -0.126 S 
ENDBRANCH   1  33
TORSDOF 4
