REMARK  Name = ZINC09440901
REMARK  8 active torsions:
REMARK  status: ('A' for Active; 'I' for Inactive)
REMARK    1  A    between atoms: C_1  and  C_2
REMARK    2  A    between atoms: C_9  and  S_14
REMARK    3  A    between atoms: S_14  and  C_17
REMARK    4  A    between atoms: C_17  and  C_18
REMARK    5  A    between atoms: C_18  and  C_19
REMARK    6  A    between atoms: N_21  and  C_22
REMARK    7  A    between atoms: C_27  and  C_28
REMARK    8  A    between atoms: C_27  and  N_62
REMARK                            x       y       z     vdW  Elec       q    Type
REMARK                         _______ _______ _______ _____ _____    ______ ____
ROOT
ATOM      1  C   UNL     1       6.673   6.457   0.065  0.00  0.00    +0.119 C 
ENDROOT
BRANCH   1   2
ATOM      2  C   UNL     1       7.544   6.534   1.292  0.00  0.00    +0.215 C 
ATOM      3  O   UNL     1       7.113   6.170   2.365  0.00  0.00    -0.276 OA
ATOM      4  N   UNL     1       8.803   7.006   1.196  0.00  0.00    -0.313 N 
ATOM      5  H   UNL     1       9.147   7.297   0.337  0.00  0.00    +0.149 HD
BRANCH   4   6
ATOM      6  C   UNL     1       9.650   7.081   2.389  0.00  0.00    +0.069 C 
ATOM      7  C   UNL     1       9.378   8.393   3.129  0.00  0.00    +0.003 C 
ATOM      8  C   UNL     1      10.309   8.493   4.339  0.00  0.00    -0.077 C 
ATOM      9  C   UNL     1      12.003   7.173   3.218  0.00  0.00    -0.077 C 
ATOM     10  C   UNL     1      11.123   7.033   1.974  0.00  0.00    +0.003 C 
ATOM     11  N   UNL     1      11.710   8.467   3.870  0.00  0.00    +0.382 N 
ATOM     12  H   UNL     1      11.848   9.222   3.189  0.00  0.00    -0.081 HD
BRANCH  11  13
ATOM     13  C   UNL     1      12.627   8.677   5.010  0.00  0.00    -0.043 C 
BRANCH  13  14
ATOM     14  C   UNL     1      12.457  10.085   5.516  0.00  0.00    -0.064 A 
ATOM     15  C   UNL     1      13.221  11.108   4.985  0.00  0.00    +0.002 A 
ATOM     16  C   UNL     1      13.061  12.401   5.447  0.00  0.00    +0.000 A 
ATOM     17  C   UNL     1      12.146  12.670   6.447  0.00  0.00    +0.000 A 
ATOM     18  C   UNL     1      11.386  11.647   6.982  0.00  0.00    +0.000 A 
ATOM     19  C   UNL     1      11.542  10.355   6.517  0.00  0.00    +0.002 A 
ENDBRANCH  13  14
ENDBRANCH  11  13
ENDBRANCH   4   6
ENDBRANCH   1   2
BRANCH   1  20
ATOM     20  C   UNL     1       5.304   5.889   0.446  0.00  0.00    +0.181 C 
BRANCH  20  21
ATOM     21  S   UNL     1       4.255   5.797  -1.031  0.00  0.00    -0.003 S 
ATOM     22  O   UNL     1       4.760   4.819  -1.930  0.00  0.00    -0.169 OA
ATOM     23  O   UNL     1       3.936   7.104  -1.487  0.00  0.00    -0.169 OA
BRANCH  21  31
ATOM     24  C   UNL     1      -1.760   2.245  -1.414  0.00  0.00    +0.029 C 
ATOM     25  C   UNL     1      -1.350   1.901   0.019  0.00  0.00    +0.134 C 
ATOM     26  C   UNL     1      -0.014   1.209   0.009  0.00  0.00    +0.230 C 
ATOM     27  O   UNL     1       0.002  -0.004   0.002  0.00  0.00    -0.274 OA
ATOM     28  N   UNL     1       1.149   1.853   0.001  0.00  0.00    -0.284 N 
ATOM     29  C   UNL     1       1.328   3.234  -0.003  0.00  0.00    +0.049 A 
ATOM     30  C   UNL     1       2.531   3.767  -0.452  0.00  0.00    +0.051 A 
ATOM     31  C   UNL     1       2.725   5.135  -0.460  0.00  0.00    +0.090 A 
ATOM     32  C   UNL     1       1.729   5.987  -0.021  0.00  0.00    +0.028 A 
ATOM     33  C   UNL     1       0.527   5.471   0.427  0.00  0.00    +0.018 A 
ATOM     34  C   UNL     1       0.326   4.101   0.436  0.00  0.00    +0.030 A 
ATOM     35  S   UNL     1      -1.206   3.429   1.001  0.00  0.00    -0.111 S 
ATOM     36  H   UNL     1       1.952   1.308  -0.003  0.00  0.00    +0.155 HD
ENDBRANCH  21  31
ENDBRANCH  20  21
ENDBRANCH   1  20
TORSDOF 7
