REMARK  Name = ZINC66876394
REMARK  7 active torsions:
REMARK  status: ('A' for Active; 'I' for Inactive)
REMARK    1  A    between atoms: C_1  and  C_2
REMARK    2  A    between atoms: C_3  and  O_29
REMARK    3  A    between atoms: C_12  and  C_13
REMARK    4  A    between atoms: C_13  and  N_14
REMARK    5  A    between atoms: C_17  and  N_20
REMARK    6  A    between atoms: C_21  and  C_23
REMARK    7  A    between atoms: C_23  and  C_24
REMARK                            x       y       z     vdW  Elec       q    Type
REMARK                         _______ _______ _______ _____ _____    ______ ____
ROOT
ATOM      1  N   UNL     1      -1.303  -4.861   2.359  0.00  0.00    +0.382 N 
ATOM      2  C   UNL     1      -2.067  -4.455   3.545  0.00  0.00    -0.077 C 
ATOM      3  C   UNL     1      -3.520  -4.913   3.402  0.00  0.00    +0.003 C 
ATOM      4  C   UNL     1      -3.557  -6.438   3.266  0.00  0.00    +0.069 C 
ATOM      5  C   UNL     1      -2.696  -6.856   2.070  0.00  0.00    +0.003 C 
ATOM      6  C   UNL     1      -1.274  -6.325   2.263  0.00  0.00    -0.077 C 
ATOM      7  H   UNL     1      -1.739  -4.479   1.533  0.00  0.00    -0.081 HD
ENDROOT
BRANCH   4   8
ATOM      8  N   UNL     1      -4.938  -6.877   3.052  0.00  0.00    -0.313 N 
ATOM      9  C   UNL     1      -5.309  -8.126   3.397  0.00  0.00    +0.213 C 
ATOM     10  O   UNL     1      -4.500  -8.887   3.884  0.00  0.00    -0.276 OA
ATOM     11  H   UNL     1      -5.586  -6.269   2.663  0.00  0.00    +0.149 HD
BRANCH   9  12
ATOM     12  C   UNL     1      -6.730  -8.578   3.177  0.00  0.00    +0.099 C 
BRANCH  12  13
ATOM     13  C   UNL     1      -6.884 -10.025   3.650  0.00  0.00    -0.002 C 
ATOM     14  C   UNL     1      -6.082 -10.969   2.731  0.00  0.00    +0.004 C 
ATOM     15  C   UNL     1      -6.965 -12.237   2.625  0.00  0.00    +0.000 C 
ATOM     16  C   UNL     1      -8.398 -11.652   2.571  0.00  0.00    +0.000 C 
ATOM     17  C   UNL     1      -8.357 -10.459   3.548  0.00  0.00    +0.004 C 
ENDBRANCH  12  13
ENDBRANCH   9  12
ENDBRANCH   4   8
BRANCH   1  18
ATOM     18  C   UNL     1       0.071  -4.351   2.466  0.00  0.00    -0.042 C 
BRANCH  18  30
ATOM     19  C   UNL     1      -0.018   1.503   0.010  0.00  0.00    +0.051 C 
ATOM     20  C   UNL     1       0.002  -0.004   0.002  0.00  0.00    +0.034 A 
ATOM     21  C   UNL     1       0.006  -0.693  -1.200  0.00  0.00    +0.123 A 
ATOM     22  C   UNL     1       0.024  -2.086  -1.219  0.00  0.00    +0.046 A 
ATOM     23  C   UNL     1       0.039  -2.792  -0.051  0.00  0.00    +0.015 A 
ATOM     24  C   UNL     1       0.036  -2.113   1.173  0.00  0.00    +0.019 A 
ATOM     25  C   UNL     1       0.023  -0.706   1.198  0.00  0.00    +0.146 A 
ATOM     26  O   UNL     1       0.025  -0.054   2.380  0.00  0.00    -0.422 OA
ATOM     27  C   UNL     1       0.045  -0.719   3.546  0.00  0.00    +0.337 A 
ATOM     28  O   UNL     1       0.046  -0.089   4.588  0.00  0.00    -0.245 OA
ATOM     29  C   UNL     1       0.065  -2.128   3.595  0.00  0.00    +0.094 A 
ATOM     30  C   UNL     1       0.051  -2.845   2.441  0.00  0.00    -0.047 A 
BRANCH  21  31
ATOM     31  O   UNL     1      -0.009  -0.004  -2.370  0.00  0.00    -0.506 OA
ATOM     32  H   UNL     1       0.870   0.207  -2.713  0.00  0.00    +0.292 HD
ENDBRANCH  21  31
ENDBRANCH  18  30
ENDBRANCH   1  18
TORSDOF 6
