REMARK  Name = ZINC24873155
REMARK  11 active torsions:
REMARK  status: ('A' for Active; 'I' for Inactive)
REMARK    1  A    between atoms: C_1  and  S_2
REMARK    2  A    between atoms: S_2  and  C_5
REMARK    3  A    between atoms: C_9  and  S_11
REMARK    4  A    between atoms: S_11  and  N_14
REMARK    5  A    between atoms: N_14  and  C_15
REMARK    6  A    between atoms: N_14  and  C_19
REMARK    7  A    between atoms: C_15  and  C_16
REMARK    8  A    between atoms: N_22  and  C_25
REMARK    9  A    between atoms: C_25  and  C_26
REMARK   10  A    between atoms: C_31  and  O_32
REMARK   11  A    between atoms: O_32  and  C_33
REMARK                            x       y       z     vdW  Elec       q    Type
REMARK                         _______ _______ _______ _____ _____    ______ ____
ROOT
ATOM      1  N   UNL     1      -2.317   0.835   0.788  0.00  0.00    -0.173 NA
ENDROOT
BRANCH   1   2
ATOM      2  C   UNL     1      -2.425  -0.243   1.774  0.00  0.00    +0.076 C 
ATOM      3  C   UNL     1      -2.423   0.351   3.185  0.00  0.00    +0.002 C 
ATOM      4  C   UNL     1      -2.474  -0.783   4.211  0.00  0.00    -0.077 C 
ATOM      5  N   UNL     1      -1.312  -1.662   4.029  0.00  0.00    +0.383 N 
ATOM      6  C   UNL     1      -1.318  -2.281   2.698  0.00  0.00    -0.077 C 
ATOM      7  C   UNL     1      -1.232  -1.192   1.627  0.00  0.00    +0.002 C 
ATOM      8  H   UNL     1      -0.407  -1.041   4.107  0.00  0.00    -0.081 HD
BRANCH   5   9
ATOM      9  C   UNL     1      -1.254  -2.682   5.085  0.00  0.00    -0.039 C 
BRANCH   9  10
ATOM     10  C   UNL     1      -1.003  -2.017   6.413  0.00  0.00    -0.022 A 
ATOM     11  C   UNL     1       0.269  -2.008   6.953  0.00  0.00    +0.005 A 
ATOM     12  C   UNL     1       0.501  -1.394   8.169  0.00  0.00    +0.000 A 
ATOM     13  C   UNL     1      -0.541  -0.796   8.855  0.00  0.00    +0.004 A 
ATOM     14  C   UNL     1      -1.816  -0.807   8.322  0.00  0.00    +0.046 A 
ATOM     15  C   UNL     1      -2.050  -1.418   7.099  0.00  0.00    +0.128 A 
BRANCH  15  16
ATOM     16  O   UNL     1      -3.303  -1.431   6.573  0.00  0.00    -0.434 OA
BRANCH  16  17
ATOM     17  C   UNL     1      -4.332  -0.795   7.333  0.00  0.00    +0.541 C 
ATOM     18  F   UNL     1      -4.442  -1.418   8.581  0.00  0.00    -0.166 F 
ATOM     19  F   UNL     1      -4.013   0.555   7.513  0.00  0.00    -0.166 F 
ENDBRANCH  16  17
ENDBRANCH  15  16
ENDBRANCH   9  10
ENDBRANCH   5   9
ENDBRANCH   1   2
BRANCH   1  20
ATOM     20  S   UNL     1      -3.510   1.048  -0.341  0.00  0.00    +0.061 S 
ATOM     21  O   UNL     1      -4.691   0.473   0.203  0.00  0.00    -0.153 OA
ATOM     22  O   UNL     1      -3.443   2.406  -0.752  0.00  0.00    -0.153 OA
BRANCH  20  27
ATOM     23  C   UNL     1      -1.970  -0.141  -3.856  0.00  0.00    +0.090 A 
ATOM     24  C   UNL     1      -2.400  -1.451  -3.948  0.00  0.00    +0.027 A 
ATOM     25  C   UNL     1      -3.169  -1.999  -2.938  0.00  0.00    +0.004 A 
ATOM     26  C   UNL     1      -3.508  -1.236  -1.837  0.00  0.00    +0.028 A 
ATOM     27  C   UNL     1      -3.078   0.075  -1.745  0.00  0.00    +0.107 A 
ATOM     28  C   UNL     1      -2.313   0.624  -2.757  0.00  0.00    +0.055 A 
BRANCH  23  30
ATOM     29  C   UNL     1      -2.185   1.277  -6.302  0.00  0.00    +0.200 C 
ATOM     30  S   UNL     1      -0.990   0.557  -5.144  0.00  0.00    -0.006 S 
ATOM     31  O   UNL     1      -0.240   1.586  -4.511  0.00  0.00    -0.170 OA
ATOM     32  O   UNL     1      -0.335  -0.552  -5.743  0.00  0.00    -0.170 OA
ENDBRANCH  23  30
ENDBRANCH  20  27
ENDBRANCH   1  20
BRANCH   1  33
ATOM     33  C   UNL     1      -1.154   1.726   0.801  0.00  0.00    +0.113 C 
BRANCH  33  34
ATOM     34  C   UNL     1      -0.013   1.086   0.008  0.00  0.00    +0.005 C 
ATOM     35  C   UNL     1       0.460   1.806  -1.256  0.00  0.00    +0.005 C 
ATOM     36  C   UNL     1       1.335   1.811  -0.001  0.00  0.00    +0.005 C 
ENDBRANCH  33  34
ENDBRANCH   1  33
TORSDOF 10
