REMARK  Name = ZINC13131539
REMARK  11 active torsions:
REMARK  status: ('A' for Active; 'I' for Inactive)
REMARK    1  A    between atoms: C_1  and  C_2
REMARK    2  A    between atoms: C_2  and  O_3
REMARK    3  A    between atoms: O_3  and  C_4
REMARK    4  A    between atoms: C_4  and  C_6
REMARK    5  A    between atoms: C_10  and  N_11
REMARK    6  A    between atoms: C_12  and  C_14
REMARK    7  A    between atoms: C_14  and  C_16
REMARK    8  A    between atoms: C_14  and  N_17
REMARK    9  A    between atoms: N_17  and  C_18
REMARK   10  A    between atoms: N_27  and  C_30
REMARK   11  A    between atoms: C_30  and  C_31
REMARK                            x       y       z     vdW  Elec       q    Type
REMARK                         _______ _______ _______ _____ _____    ______ ____
ROOT
ATOM      1  C   UNL     1       5.295   0.029   2.905  0.00  0.00    +0.091 A 
ATOM      2  C   UNL     1       5.746  -1.025   3.794  0.00  0.00    -0.019 A 
ATOM      3  C   UNL     1       4.839  -1.995   4.047  0.00  0.00    +0.010 A 
ATOM      4  S   UNL     1       3.402  -1.520   3.131  0.00  0.00    -0.076 S 
ATOM      5  C   UNL     1       3.998  -0.060   2.412  0.00  0.00    +0.086 A 
ATOM      6  C   UNL     1       5.040  -3.193   4.921  0.00  0.00    +0.127 C 
ATOM      7  N   UNL     1       6.486  -3.341   5.175  0.00  0.00    -0.293 NA
ATOM      8  C   UNL     1       7.072  -2.064   5.606  0.00  0.00    +0.090 C 
ATOM      9  C   UNL     1       7.131  -1.088   4.428  0.00  0.00    +0.052 C 
ENDROOT
BRANCH   5  10
ATOM     10  N   UNL     1       3.340   0.810   1.558  0.00  0.00    -0.281 N 
ATOM     11  C   UNL     1       2.070   0.556   1.185  0.00  0.00    +0.203 C 
ATOM     12  O   UNL     1       1.503  -0.434   1.597  0.00  0.00    -0.277 OA
ATOM     13  H   UNL     1       3.853   1.708   1.185  0.00  0.00    +0.155 HD
BRANCH  11  14
ATOM     14  C   UNL     1       1.353   1.502   0.257  0.00  0.00    +0.014 C 
ATOM     15  C   UNL     1       1.280   2.889   0.899  0.00  0.00    -0.004 C 
BRANCH  14  16
ATOM     16  N   UNL     1      -0.006   1.006   0.005  0.00  0.00    +0.388 N 
ATOM     17  H   UNL     1      -0.388   0.508   0.909  0.00  0.00    -0.084 HD
ATOM     18  H   UNL     1      -0.663   1.850  -0.253  0.00  0.00    -0.084 HD
BRANCH  16  19
ATOM     19  C   UNL     1      -0.019   0.043  -1.104  0.00  0.00    -0.071 C 
ATOM     20  C   UNL     1      -0.155   0.794  -2.430  0.00  0.00    -0.016 C 
ATOM     21  C   UNL     1       0.225  -0.135  -3.584  0.00  0.00    -0.002 C 
ATOM     22  C   UNL     1       1.495  -0.907  -3.221  0.00  0.00    -0.000 C 
ATOM     23  C   UNL     1       1.161  -2.392  -3.063  0.00  0.00    -0.000 C 
ATOM     24  C   UNL     1       0.450  -2.615  -1.727  0.00  0.00    -0.000 C 
ATOM     25  C   UNL     1      -0.999  -2.136  -1.834  0.00  0.00    -0.002 C 
ATOM     26  C   UNL     1      -1.201  -0.914  -0.936  0.00  0.00    -0.016 C 
ENDBRANCH  16  19
ENDBRANCH  14  16
ENDBRANCH  11  14
ENDBRANCH   5  10
BRANCH   1  27
ATOM     27  C   UNL     1       6.171   1.145   2.542  0.00  0.00    +0.342 C 
ATOM     28  O   UNL     1       6.182   2.155   3.219  0.00  0.00    -0.245 OA
BRANCH  27  29
ATOM     29  O   UNL     1       6.966   1.052   1.456  0.00  0.00    -0.461 OA
BRANCH  29  31
ATOM     30  C   UNL     1       8.631   1.908  -0.101  0.00  0.00    +0.048 C 
ATOM     31  C   UNL     1       7.808   2.197   1.156  0.00  0.00    +0.229 C 
ENDBRANCH  29  31
ENDBRANCH  27  29
ENDBRANCH   1  27
BRANCH   7  32
ATOM     32  C   UNL     1       6.741  -4.398   6.163  0.00  0.00    +0.120 C 
BRANCH  32  33
ATOM     33  C   UNL     1       6.347  -5.733   5.584  0.00  0.00    -0.033 A 
ATOM     34  C   UNL     1       5.061  -6.209   5.758  0.00  0.00    +0.005 A 
ATOM     35  C   UNL     1       4.699  -7.431   5.223  0.00  0.00    +0.000 A 
ATOM     36  C   UNL     1       5.625  -8.181   4.523  0.00  0.00    +0.000 A 
ATOM     37  C   UNL     1       6.913  -7.707   4.354  0.00  0.00    +0.000 A 
ATOM     38  C   UNL     1       7.274  -6.483   4.885  0.00  0.00    +0.005 A 
ENDBRANCH  32  33
ENDBRANCH   7  32
TORSDOF 9
