REMARK  Name = ZINC06196905
REMARK  14 active torsions:
REMARK  status: ('A' for Active; 'I' for Inactive)
REMARK    1  A    between atoms: C_1  and  C_2
REMARK    2  A    between atoms: C_2  and  O_3
REMARK    3  A    between atoms: O_3  and  C_4
REMARK    4  A    between atoms: C_11  and  C_16
REMARK    5  A    between atoms: C_16  and  C_18
REMARK    6  A    between atoms: C_16  and  N_70
REMARK    7  A    between atoms: N_22  and  C_23
REMARK    8  A    between atoms: C_23  and  C_24
REMARK    9  A    between atoms: C_23  and  C_25
REMARK   10  A    between atoms: C_23  and  C_26
REMARK   11  A    between atoms: C_27  and  C_28
REMARK   12  A    between atoms: C_27  and  N_70
REMARK   13  A    between atoms: C_34  and  C_35
REMARK   14  A    between atoms: C_34  and  N_70
REMARK                            x       y       z     vdW  Elec       q    Type
REMARK                         _______ _______ _______ _____ _____    ______ ____
ROOT
ATOM      1  C   UNL     1      -1.136  -0.579   0.587  0.00  0.00    +0.040 C 
ENDROOT
BRANCH   1   9
ATOM      2  C   UNL     1       4.692   0.446   2.433  0.00  0.00    +0.121 A 
ATOM      3  C   UNL     1       4.638   1.835   2.334  0.00  0.00    +0.047 A 
ATOM      4  C   UNL     1       3.486   2.465   1.920  0.00  0.00    +0.030 A 
ATOM      5  C   UNL     1       2.361   1.714   1.596  0.00  0.00    +0.049 A 
ATOM      6  C   UNL     1       2.410   0.310   1.695  0.00  0.00    +0.002 A 
ATOM      7  C   UNL     1       3.587  -0.318   2.116  0.00  0.00    +0.055 A 
ATOM      8  C   UNL     1       1.219  -0.468   1.351  0.00  0.00    +0.017 A 
ATOM      9  C   UNL     1       0.106   0.193   0.948  0.00  0.00    +0.011 A 
ATOM     10  C   UNL     1       0.108   1.602   0.866  0.00  0.00    +0.251 A 
ATOM     11  O   UNL     1      -0.902   2.177   0.496  0.00  0.00    -0.268 OA
ATOM     12  N   UNL     1       1.196   2.326   1.179  0.00  0.00    -0.322 N 
ATOM     13  H   UNL     1       1.162   3.323   1.110  0.00  0.00    +0.169 HD
BRANCH   2  14
ATOM     14  O   UNL     1       5.838  -0.159   2.843  0.00  0.00    -0.492 OA
BRANCH  14  16
ATOM     15  C   UNL     1       8.135  -0.164   3.594  0.00  0.00    +0.048 C 
ATOM     16  C   UNL     1       6.944   0.691   3.154  0.00  0.00    +0.225 C 
ENDBRANCH  14  16
ENDBRANCH   2  14
ENDBRANCH   1   9
BRANCH   1  17
ATOM     17  C   UNL     1      -1.435  -0.393  -0.879  0.00  0.00    +0.143 A 
ATOM     18  N   UNL     1      -1.965   0.666  -1.441  0.00  0.00    -0.115 NA
ATOM     19  N   UNL     1      -2.060   0.439  -2.706  0.00  0.00    -0.023 NA
ATOM     20  N   UNL     1      -1.604  -0.737  -2.965  0.00  0.00    -0.043 NA
ATOM     21  N   UNL     1      -1.204  -1.280  -1.865  0.00  0.00    -0.225 N 
BRANCH  21  22
ATOM     22  C   UNL     1      -0.614  -2.612  -1.716  0.00  0.00    +0.059 C 
ATOM     23  C   UNL     1      -1.534  -3.485  -0.860  0.00  0.00    +0.036 C 
ATOM     24  C   UNL     1      -0.442  -3.251  -3.095  0.00  0.00    +0.036 C 
ATOM     25  C   UNL     1       0.752  -2.492  -1.036  0.00  0.00    +0.036 C 
ENDBRANCH  21  22
ENDBRANCH   1  17
BRANCH   1  26
ATOM     26  N   UNL     1      -2.274  -0.059   1.375  0.00  0.00    +0.397 N 
ATOM     27  H   UNL     1      -2.494   0.891   1.055  0.00  0.00    -0.079 HD
BRANCH  26  28
ATOM     28  C   UNL     1      -3.460  -0.919   1.178  0.00  0.00    -0.041 C 
BRANCH  28  29
ATOM     29  C   UNL     1      -4.126  -0.531  -0.117  0.00  0.00    -0.064 A 
ATOM     30  C   UNL     1      -4.826   0.658  -0.205  0.00  0.00    +0.002 A 
ATOM     31  C   UNL     1      -5.433   1.016  -1.394  0.00  0.00    +0.000 A 
ATOM     32  C   UNL     1      -5.350   0.180  -2.492  0.00  0.00    +0.000 A 
ATOM     33  C   UNL     1      -4.655  -1.012  -2.402  0.00  0.00    +0.000 A 
ATOM     34  C   UNL     1      -4.043  -1.367  -1.215  0.00  0.00    +0.002 A 
ENDBRANCH  28  29
ENDBRANCH  26  28
BRANCH  26  35
ATOM     35  C   UNL     1      -1.916  -0.012   2.808  0.00  0.00    -0.001 C 
BRANCH  35  36
ATOM     36  C   UNL     1      -2.925   0.843   3.531  0.00  0.00    +0.089 A 
ATOM     37  C   UNL     1      -4.004   0.394   4.197  0.00  0.00    +0.042 A 
ATOM     38  C   UNL     1      -4.666   1.529   4.717  0.00  0.00    +0.041 A 
ATOM     39  C   UNL     1      -3.953   2.604   4.338  0.00  0.00    +0.195 A 
ATOM     40  O   UNL     1      -2.896   2.182   3.625  0.00  0.00    -0.470 OA
ENDBRANCH  35  36
ENDBRANCH  26  35
ENDBRANCH   1  26
TORSDOF 10
