REMARK  Name = ZINC35038045
REMARK  9 active torsions:
REMARK  status: ('A' for Active; 'I' for Inactive)
REMARK    1  A    between atoms: C_1  and  C_2
REMARK    2  A    between atoms: C_5  and  C_11
REMARK    3  A    between atoms: C_7  and  N_8
REMARK    4  A    between atoms: N_13  and  C_14
REMARK    5  A    between atoms: N_13  and  C_20
REMARK    6  A    between atoms: C_14  and  C_15
REMARK    7  A    between atoms: C_20  and  C_22
REMARK    8  A    between atoms: C_20  and  C_23
REMARK    9  A    between atoms: N_33  and  C_34
REMARK                            x       y       z     vdW  Elec       q    Type
REMARK                         _______ _______ _______ _____ _____    ______ ____
ROOT
ATOM      1  C   UNL     1       0.609  -4.694   0.015  0.00  0.00    +0.248 C 
ATOM      2  O   UNL     1       0.182  -4.900   1.133  0.00  0.00    -0.270 OA
ATOM      3  N   UNL     1       0.191  -5.454  -1.017  0.00  0.00    -0.280 N 
ENDROOT
BRANCH   1   8
ATOM      4  C   UNL     1       4.419  -0.475  -0.878  0.00  0.00    +0.046 C 
ATOM      5  C   UNL     1       3.422  -1.580  -0.644  0.00  0.00    -0.020 A 
ATOM      6  C   UNL     1       2.926  -2.299  -1.718  0.00  0.00    +0.006 A 
ATOM      7  C   UNL     1       2.012  -3.311  -1.511  0.00  0.00    +0.013 A 
ATOM      8  C   UNL     1       1.589  -3.611  -0.215  0.00  0.00    +0.039 A 
ATOM      9  C   UNL     1       2.093  -2.883   0.863  0.00  0.00    +0.046 A 
ATOM     10  C   UNL     1       3.011  -1.876   0.643  0.00  0.00    +0.130 A 
BRANCH  10  11
ATOM     11  N   UNL     1       3.552  -1.106   1.786  0.00  0.00    +0.057 N 
ATOM     12  O   UNL     1       4.631  -0.569   1.696  0.00  0.00    -0.126 OA
ATOM     13  O   UNL     1       2.914  -1.015   2.809  0.00  0.00    -0.126 OA
ENDBRANCH  10  11
ENDBRANCH   1   8
BRANCH   3  14
ATOM     14  C   UNL     1      -0.686  -6.602  -0.773  0.00  0.00    +0.140 C 
ATOM     15  C   UNL     1      -2.111  -6.258  -1.211  0.00  0.00    +0.036 C 
BRANCH  14  16
ATOM     16  C   UNL     1      -0.191  -7.788  -1.561  0.00  0.00    +0.138 A 
ATOM     17  N   UNL     1       0.041  -7.632  -2.829  0.00  0.00    -0.231 NA
ATOM     18  C   UNL     1       0.488  -8.654  -3.601  0.00  0.00    +0.078 A 
ATOM     19  C   UNL     1       0.738  -8.486  -4.965  0.00  0.00    +0.028 A 
ATOM     20  C   UNL     1       1.191  -9.551  -5.711  0.00  0.00    +0.002 A 
ATOM     21  C   UNL     1       1.402 -10.792  -5.124  0.00  0.00    +0.001 A 
ATOM     22  C   UNL     1       1.162 -10.982  -3.781  0.00  0.00    +0.015 A 
ATOM     23  C   UNL     1       0.704  -9.918  -3.008  0.00  0.00    +0.065 A 
ATOM     24  C   UNL     1       0.432 -10.061  -1.570  0.00  0.00    +0.266 A 
ATOM     25  O   UNL     1       0.598 -11.123  -0.999  0.00  0.00    -0.267 OA
ATOM     26  N   UNL     1      -0.005  -8.966  -0.906  0.00  0.00    -0.263 N 
BRANCH  26  27
ATOM     27  C   UNL     1      -0.275  -9.048   0.466  0.00  0.00    +0.051 A 
ATOM     28  C   UNL     1       0.334  -8.165   1.348  0.00  0.00    +0.026 A 
ATOM     29  C   UNL     1       0.067  -8.248   2.700  0.00  0.00    +0.002 A 
ATOM     30  C   UNL     1      -0.807  -9.208   3.176  0.00  0.00    +0.000 A 
ATOM     31  C   UNL     1      -1.415 -10.089   2.300  0.00  0.00    +0.002 A 
ATOM     32  C   UNL     1      -1.155 -10.008   0.946  0.00  0.00    +0.026 A 
ENDBRANCH  26  27
ENDBRANCH  14  16
ENDBRANCH   3  14
BRANCH   3  33
ATOM     33  C   UNL     1       0.612  -5.131  -2.383  0.00  0.00    +0.183 C 
BRANCH  33  34
ATOM     34  C   UNL     1       2.063  -5.497  -2.560  0.00  0.00    +0.122 A 
ATOM     35  C   UNL     1       2.527  -6.658  -3.056  0.00  0.00    +0.046 A 
ATOM     36  C   UNL     1       3.938  -6.574  -3.044  0.00  0.00    +0.041 A 
ATOM     37  C   UNL     1       4.253  -5.367  -2.542  0.00  0.00    +0.195 A 
ATOM     38  O   UNL     1       3.113  -4.716  -2.256  0.00  0.00    -0.466 OA
ENDBRANCH  33  34
ENDBRANCH   3  33
TORSDOF 7
