REMARK  Name = ZINC13011819
REMARK  12 active torsions:
REMARK  status: ('A' for Active; 'I' for Inactive)
REMARK    1  A    between atoms: C_1  and  C_2
REMARK    2  A    between atoms: C_2  and  C_3
REMARK    3  A    between atoms: C_2  and  C_4
REMARK    4  A    between atoms: C_4  and  N_5
REMARK    5  A    between atoms: C_6  and  N_32
REMARK    6  A    between atoms: C_7  and  N_14
REMARK    7  A    between atoms: N_14  and  C_15
REMARK    8  A    between atoms: C_15  and  C_16
REMARK    9  A    between atoms: C_16  and  C_17
REMARK   10  A    between atoms: C_16  and  C_18
REMARK   11  A    between atoms: C_19  and  C_21
REMARK   12  A    between atoms: C_25  and  C_31
REMARK                            x       y       z     vdW  Elec       q    Type
REMARK                         _______ _______ _______ _____ _____    ______ ____
ROOT
ATOM      1  N   UNL     1       2.473   4.390  -0.011  0.00  0.00    -0.262 N 
ATOM      2  C   UNL     1       3.724   3.945  -0.250  0.00  0.00    +0.241 C 
ATOM      3  O   UNL     1       4.663   4.711  -0.191  0.00  0.00    -0.273 OA
ENDROOT
BRANCH   2   4
ATOM      4  C   UNL     1       3.956   2.495  -0.591  0.00  0.00    +0.173 C 
ATOM      5  C   UNL     1       3.292   2.203  -1.957  0.00  0.00    +0.103 C 
ATOM      6  S   UNL     1       4.617   1.190  -2.757  0.00  0.00    -0.133 S 
ATOM      7  C   UNL     1       6.019   1.980  -1.862  0.00  0.00    +0.082 C 
ATOM      8  N   UNL     1       5.397   2.232  -0.539  0.00  0.00    -0.275 N 
ATOM      9  C   UNL     1       6.373   2.101   0.400  0.00  0.00    +0.217 C 
ATOM     10  O   UNL     1       6.286   2.491   1.545  0.00  0.00    -0.276 OA
ATOM     11  C   UNL     1       7.579   1.401  -0.183  0.00  0.00    +0.099 C 
ATOM     12  C   UNL     1       7.128   0.949  -1.598  0.00  0.00    +0.046 C 
ATOM     13  C   UNL     1       6.531   3.250  -2.545  0.00  0.00    +0.044 C 
ENDBRANCH   2   4
BRANCH   1  16
ATOM     14  N   UNL     1      -0.626   2.631  -0.907  0.00  0.00    -0.280 N 
ATOM     15  C   UNL     1       0.414   3.530  -0.957  0.00  0.00    +0.127 A 
ATOM     16  C   UNL     1       1.393   3.482   0.013  0.00  0.00    +0.140 A 
ATOM     17  C   UNL     1       1.298   2.510   1.028  0.00  0.00    +0.277 A 
ATOM     18  O   UNL     1       2.150   2.445   1.897  0.00  0.00    -0.266 OA
ATOM     19  N   UNL     1       0.258   1.653   1.031  0.00  0.00    -0.273 N 
ATOM     20  H   UNL     1       0.191   0.960   1.749  0.00  0.00    +0.173 HD
ATOM     21  C   UNL     1      -0.690   1.718   0.080  0.00  0.00    +0.331 A 
ATOM     22  O   UNL     1      -1.620   0.935   0.109  0.00  0.00    -0.246 OA
BRANCH  15  23
ATOM     23  N   UNL     1       0.476   4.466  -1.962  0.00  0.00    -0.343 N 
ATOM     24  H   UNL     1      -0.175   4.449  -2.681  0.00  0.00    +0.144 HD
ATOM     25  H   UNL     1       1.171   5.143  -1.952  0.00  0.00    +0.144 HD
ENDBRANCH  15  23
BRANCH  14  26
ATOM     26  C   UNL     1      -1.673   2.671  -1.931  0.00  0.00    +0.131 C 
BRANCH  26  28
ATOM     27  C   UNL     1      -1.235   0.310  -2.622  0.00  0.00    +0.009 C 
ATOM     28  C   UNL     1      -1.280   1.764  -3.098  0.00  0.00    +0.003 C 
ATOM     29  C   UNL     1      -2.311   1.901  -4.220  0.00  0.00    +0.009 C 
ENDBRANCH  26  28
ENDBRANCH  14  26
ENDBRANCH   1  16
BRANCH   1  30
ATOM     30  C   UNL     1       2.236   5.816   0.224  0.00  0.00    +0.117 C 
BRANCH  30  31
ATOM     31  C   UNL     1       2.204   6.087   1.729  0.00  0.00    +0.001 C 
ATOM     32  C   UNL     1       3.573   5.769   2.333  0.00  0.00    +0.009 C 
ATOM     33  C   UNL     1       1.867   7.559   1.976  0.00  0.00    +0.009 C 
ENDBRANCH  30  31
ENDBRANCH   1  30
TORSDOF 7
