REMARK  Name = ZINC24978412
REMARK  6 active torsions:
REMARK  status: ('A' for Active; 'I' for Inactive)
REMARK    1  A    between atoms: C_4  and  C_7
REMARK    2  A    between atoms: C_7  and  C_9
REMARK    3  A    between atoms: C_7  and  N_18
REMARK    4  A    between atoms: N_18  and  C_19
REMARK    5  A    between atoms: C_19  and  C_20
REMARK    6  A    between atoms: N_22  and  N_23
REMARK                            x       y       z     vdW  Elec       q    Type
REMARK                         _______ _______ _______ _____ _____    ______ ____
ROOT
ATOM      1  N   UNL     1      -3.611   1.792   0.029  0.00  0.00    +0.394 N 
ATOM      2  H   UNL     1      -3.549   2.428  -0.866  0.00  0.00    -0.084 HD
ATOM      3  H   UNL     1      -3.541   2.419   0.930  0.00  0.00    -0.084 HD
ENDROOT
BRANCH   1   4
ATOM      4  C   UNL     1      -4.893   1.074   0.031  0.00  0.00    +0.027 C 
BRANCH   4   5
ATOM      5  C   UNL     1      -5.958   1.949   0.641  0.00  0.00    +0.097 A 
ATOM      6  C   UNL     1      -6.923   1.520   1.467  0.00  0.00    +0.051 A 
ATOM      7  C   UNL     1      -7.722   2.703   1.811  0.00  0.00    +0.020 A 
ATOM      8  C   UNL     1      -8.841   2.924   2.612  0.00  0.00    +0.011 A 
ATOM      9  C   UNL     1      -9.360   4.184   2.719  0.00  0.00    +0.001 A 
ATOM     10  C   UNL     1      -8.780   5.243   2.035  0.00  0.00    +0.004 A 
ATOM     11  C   UNL     1      -7.673   5.044   1.238  0.00  0.00    +0.047 A 
ATOM     12  C   UNL     1      -7.130   3.771   1.116  0.00  0.00    +0.135 A 
ATOM     13  O   UNL     1      -6.080   3.271   0.432  0.00  0.00    -0.461 OA
ENDBRANCH   4   5
BRANCH   4  17
ATOM     14  C   UNL     1      -5.984   0.094  -3.981  0.00  0.00    +0.000 A 
ATOM     15  C   UNL     1      -6.198  -0.818  -2.964  0.00  0.00    +0.000 A 
ATOM     16  C   UNL     1      -5.845  -0.500  -1.666  0.00  0.00    +0.002 A 
ATOM     17  C   UNL     1      -5.278   0.728  -1.384  0.00  0.00    -0.054 A 
ATOM     18  C   UNL     1      -5.068   1.642  -2.400  0.00  0.00    +0.002 A 
ATOM     19  C   UNL     1      -5.417   1.323  -3.700  0.00  0.00    +0.000 A 
ENDBRANCH   4  17
ENDBRANCH   1   4
BRANCH   1  20
ATOM     20  C   UNL     1      -2.482   0.853   0.018  0.00  0.00    +0.018 C 
BRANCH  20  21
ATOM     21  C   UNL     1      -1.187   1.624   0.017  0.00  0.00    +0.213 C 
ATOM     22  O   UNL     1      -1.204   2.837   0.023  0.00  0.00    -0.276 OA
ATOM     23  N   UNL     1      -0.011   0.966   0.007  0.00  0.00    -0.225 N 
ATOM     24  H   UNL     1       0.004  -0.134   0.006  0.00  0.00    +0.173 HD
BRANCH  23  25
ATOM     25  N   UNL     1       1.193   1.683  -0.000  0.00  0.00    -0.137 N 
ATOM     26  C   UNL     1       2.002   1.817   1.071  0.00  0.00    +0.263 C 
ATOM     27  O   UNL     1       1.834   1.358   2.180  0.00  0.00    -0.271 OA
ATOM     28  C   UNL     1       3.163   2.660   0.596  0.00  0.00    +0.114 C 
ATOM     29  C   UNL     1       4.469   1.881   0.716  0.00  0.00    +0.035 C 
ATOM     30  C   UNL     1       5.628   2.741   0.204  0.00  0.00    +0.003 C 
ATOM     31  C   UNL     1       5.706   4.030   1.025  0.00  0.00    +0.000 C 
ATOM     32  C   UNL     1       4.399   4.811   0.874  0.00  0.00    +0.003 C 
ATOM     33  C   UNL     1       3.235   3.960   1.389  0.00  0.00    +0.035 C 
ATOM     34  N   UNL     1       2.854   2.932  -0.814  0.00  0.00    -0.284 N 
ATOM     35  C   UNL     1       1.685   2.315  -1.073  0.00  0.00    +0.326 C 
ATOM     36  O   UNL     1       1.137   2.333  -2.157  0.00  0.00    -0.251 OA
ATOM     37  H   UNL     1       3.540   3.541  -1.420  0.00  0.00    +0.151 HD
ENDBRANCH  23  25
ENDBRANCH  20  21
ENDBRANCH   1  20
TORSDOF 6
