REMARK  Name = ZINC09402671
REMARK  6 active torsions:
REMARK  status: ('A' for Active; 'I' for Inactive)
REMARK    1  A    between atoms: C_1  and  C_2
REMARK    2  A    between atoms: C_5  and  O_36
REMARK    3  A    between atoms: N_11  and  C_12
REMARK    4  A    between atoms: C_12  and  C_13
REMARK    5  A    between atoms: C_19  and  C_21
REMARK    6  A    between atoms: O_36  and  C_37
REMARK                            x       y       z     vdW  Elec       q    Type
REMARK                         _______ _______ _______ _____ _____    ______ ____
ROOT
ATOM      1  C   UNL     1      -1.574  -4.829   6.224  0.00  0.00    +0.045 C 
ATOM      2  C   UNL     1      -1.185  -5.113   4.796  0.00  0.00    -0.034 A 
ATOM      3  C   UNL     1      -0.670  -6.348   4.448  0.00  0.00    +0.008 A 
ATOM      4  C   UNL     1      -0.317  -6.591   3.129  0.00  0.00    +0.048 A 
ATOM      5  C   UNL     1      -0.469  -5.631   2.157  0.00  0.00    +0.147 A 
ATOM      6  C   UNL     1      -0.994  -4.354   2.480  0.00  0.00    +0.122 A 
ATOM      7  C   UNL     1      -1.341  -4.146   3.833  0.00  0.00    +0.047 A 
ATOM      8  S   UNL     1      -1.942  -2.474   3.817  0.00  0.00    -0.051 S 
ATOM      9  C   UNL     1      -1.703  -2.166   2.073  0.00  0.00    +0.169 A 
ATOM     10  N   UNL     1      -1.211  -3.308   1.652  0.00  0.00    -0.221 NA
ATOM     11  N   UNL     1      -1.973  -1.017   1.348  0.00  0.00    -0.240 N 
ATOM     12  C   UNL     1      -2.489   0.064   1.967  0.00  0.00    +0.260 C 
ATOM     13  O   UNL     1      -2.615   0.070   3.176  0.00  0.00    -0.269 OA
ENDROOT
BRANCH  12  14
ATOM     14  C   UNL     1      -2.898   1.236   1.179  0.00  0.00    +0.122 A 
ATOM     15  C   UNL     1      -3.780   1.103   0.113  0.00  0.00    +0.032 A 
ATOM     16  C   UNL     1      -4.148   2.254  -0.609  0.00  0.00    +0.026 A 
ATOM     17  C   UNL     1      -5.080   2.160  -1.736  0.00  0.00    -0.007 A 
ATOM     18  C   UNL     1      -5.633   0.939  -2.128  0.00  0.00    +0.009 A 
ATOM     19  C   UNL     1      -6.497   0.896  -3.184  0.00  0.00    +0.001 A 
ATOM     20  C   UNL     1      -6.833   2.055  -3.877  0.00  0.00    +0.001 A 
ATOM     21  C   UNL     1      -6.310   3.262  -3.520  0.00  0.00    +0.008 A 
ATOM     22  C   UNL     1      -5.419   3.340  -2.438  0.00  0.00    -0.017 A 
ATOM     23  C   UNL     1      -4.858   4.570  -2.040  0.00  0.00    +0.012 A 
ATOM     24  C   UNL     1      -3.997   4.642  -0.995  0.00  0.00    +0.047 A 
ATOM     25  C   UNL     1      -3.625   3.507  -0.264  0.00  0.00    +0.140 A 
ATOM     26  O   UNL     1      -2.764   3.632   0.769  0.00  0.00    -0.422 OA
ATOM     27  C   UNL     1      -2.381   2.571   1.497  0.00  0.00    +0.350 A 
ATOM     28  O   UNL     1      -1.604   2.716   2.422  0.00  0.00    -0.244 OA
ENDBRANCH  12  14
BRANCH   5  29
ATOM     29  O   UNL     1      -0.113  -5.908   0.875  0.00  0.00    -0.493 OA
ATOM     30  C   UNL     1       0.410  -7.212   0.614  0.00  0.00    +0.277 C 
ENDBRANCH   5  29
BRANCH  11  31
ATOM     31  C   UNL     1      -1.699  -0.976  -0.090  0.00  0.00    +0.171 C 
BRANCH  31  32
ATOM     32  C   UNL     1      -0.343  -0.364  -0.326  0.00  0.00    +0.059 A 
ATOM     33  C   UNL     1       0.761  -1.183  -0.472  0.00  0.00    +0.025 A 
ATOM     34  C   UNL     1       2.004  -0.609  -0.689  0.00  0.00    +0.003 A 
ATOM     35  C   UNL     1       2.091   0.773  -0.751  0.00  0.00    +0.020 A 
ATOM     36  C   UNL     1       0.944   1.528  -0.597  0.00  0.00    +0.111 A 
ATOM     37  N   UNL     1      -0.222   0.948  -0.392  0.00  0.00    -0.258 NA
ENDBRANCH  31  32
ENDBRANCH  11  31
TORSDOF 4
