REMARK  Name = ZINC59487928
REMARK  14 active torsions:
REMARK  status: ('A' for Active; 'I' for Inactive)
REMARK    1  A    between atoms: C_1  and  C_2
REMARK    2  A    between atoms: C_2  and  O_3
REMARK    3  A    between atoms: O_3  and  C_4
REMARK    4  A    between atoms: C_5  and  O_37
REMARK    5  A    between atoms: C_8  and  C_10
REMARK    6  A    between atoms: N_11  and  C_12
REMARK    7  A    between atoms: C_15  and  O_18
REMARK    8  A    between atoms: O_18  and  C_19
REMARK    9  A    between atoms: C_22  and  N_25
REMARK   10  A    between atoms: C_26  and  C_27
REMARK   11  A    between atoms: C_29  and  O_34
REMARK   12  A    between atoms: C_30  and  O_33
REMARK   13  A    between atoms: O_34  and  C_35
REMARK   14  A    between atoms: C_35  and  C_36
REMARK                            x       y       z     vdW  Elec       q    Type
REMARK                         _______ _______ _______ _____ _____    ______ ____
ROOT
ATOM      1  O   UNL     1      -2.220  -9.671   4.034  0.00  0.00    -0.456 OA
ENDROOT
BRANCH   1   5
ATOM      2  C   UNL     1      -0.691  -7.062   1.222  0.00  0.00    +0.064 A 
ATOM      3  C   UNL     1       0.162  -7.923   1.915  0.00  0.00    +0.031 A 
ATOM      4  C   UNL     1      -0.352  -8.793   2.853  0.00  0.00    +0.048 A 
ATOM      5  C   UNL     1      -1.717  -8.813   3.109  0.00  0.00    +0.129 A 
ATOM      6  C   UNL     1      -2.570  -7.958   2.422  0.00  0.00    +0.048 A 
ATOM      7  C   UNL     1      -2.063  -7.081   1.487  0.00  0.00    +0.031 A 
BRANCH   2   9
ATOM      8  C   UNL     1       0.893  -5.513   0.554  0.00  0.00    +0.119 C 
ATOM      9  N   UNL     1      -0.185  -6.197   0.290  0.00  0.00    -0.255 NA
BRANCH   8  14
ATOM     10  C   UNL     1       3.100  -2.975  -1.110  0.00  0.00    +0.162 A 
ATOM     11  C   UNL     1       2.459  -2.831  -2.341  0.00  0.00    +0.158 A 
ATOM     12  C   UNL     1       1.313  -3.561  -2.621  0.00  0.00    +0.050 A 
ATOM     13  C   UNL     1       0.801  -4.432  -1.684  0.00  0.00    +0.013 A 
ATOM     14  C   UNL     1       1.438  -4.583  -0.448  0.00  0.00    -0.003 A 
ATOM     15  C   UNL     1       2.597  -3.851  -0.169  0.00  0.00    +0.058 A 
BRANCH  11  16
ATOM     16  O   UNL     1       2.959  -1.972  -3.268  0.00  0.00    -0.503 OA
ATOM     17  H   UNL     1       3.600  -2.374  -3.870  0.00  0.00    +0.292 HD
ENDBRANCH  11  16
BRANCH  10  18
ATOM     18  O   UNL     1       4.223  -2.257  -0.840  0.00  0.00    -0.489 OA
BRANCH  18  20
ATOM     19  C   UNL     1       6.072  -1.573   0.558  0.00  0.00    +0.048 C 
ATOM     20  C   UNL     1       4.830  -2.460   0.438  0.00  0.00    +0.226 C 
ENDBRANCH  18  20
ENDBRANCH  10  18
ENDBRANCH   8  14
ENDBRANCH   2   9
ENDBRANCH   1   5
BRANCH   1  21
ATOM     21  C   UNL     1      -3.017 -10.682   3.599  0.00  0.00    +0.129 A 
ATOM     22  C   UNL     1      -3.660 -11.502   4.518  0.00  0.00    +0.048 A 
ATOM     23  C   UNL     1      -4.469 -12.528   4.081  0.00  0.00    +0.031 A 
ATOM     24  C   UNL     1      -4.643 -12.743   2.712  0.00  0.00    +0.064 A 
ATOM     25  C   UNL     1      -3.995 -11.916   1.791  0.00  0.00    +0.031 A 
ATOM     26  C   UNL     1      -3.192 -10.889   2.236  0.00  0.00    +0.048 A 
BRANCH  24  27
ATOM     27  N   UNL     1      -5.446 -13.762   2.273  0.00  0.00    -0.255 NA
ATOM     28  C   UNL     1      -6.299 -13.551   1.311  0.00  0.00    +0.119 C 
BRANCH  28  29
ATOM     29  C   UNL     1      -7.161 -14.646   0.840  0.00  0.00    -0.003 A 
ATOM     30  C   UNL     1      -8.074 -14.423  -0.197  0.00  0.00    +0.058 A 
ATOM     31  C   UNL     1      -8.881 -15.455  -0.635  0.00  0.00    +0.162 A 
ATOM     32  C   UNL     1      -8.786 -16.714  -0.044  0.00  0.00    +0.158 A 
ATOM     33  C   UNL     1      -7.881 -16.935   0.985  0.00  0.00    +0.050 A 
ATOM     34  C   UNL     1      -7.067 -15.913   1.423  0.00  0.00    +0.013 A 
BRANCH  32  35
ATOM     35  O   UNL     1      -9.582 -17.727  -0.476  0.00  0.00    -0.503 OA
ATOM     36  H   UNL     1      -9.197 -18.251  -1.192  0.00  0.00    +0.292 HD
ENDBRANCH  32  35
BRANCH  31  37
ATOM     37  O   UNL     1      -9.769 -15.242  -1.643  0.00  0.00    -0.489 OA
BRANCH  37  38
ATOM     38  C   UNL     1      -9.814 -13.928  -2.202  0.00  0.00    +0.226 C 
ATOM     39  C   UNL     1     -10.864 -13.882  -3.314  0.00  0.00    +0.048 C 
ENDBRANCH  37  38
ENDBRANCH  31  37
ENDBRANCH  28  29
ENDBRANCH  24  27
ENDBRANCH   1  21
TORSDOF 12
