REMARK  Name = ZINC20837882
REMARK  11 active torsions:
REMARK  status: ('A' for Active; 'I' for Inactive)
REMARK    1  A    between atoms: C_1  and  C_2
REMARK    2  A    between atoms: C_5  and  C_8
REMARK    3  A    between atoms: C_8  and  C_36
REMARK    4  A    between atoms: N_9  and  N_10
REMARK    5  A    between atoms: C_13  and  S_16
REMARK    6  A    between atoms: S_16  and  C_17
REMARK    7  A    between atoms: C_17  and  C_18
REMARK    8  A    between atoms: C_18  and  C_19
REMARK    9  A    between atoms: N_21  and  C_22
REMARK   10  A    between atoms: C_25  and  S_28
REMARK   11  A    between atoms: S_28  and  N_31
REMARK                            x       y       z     vdW  Elec       q    Type
REMARK                         _______ _______ _______ _____ _____    ______ ____
ROOT
ATOM      1  C   UNL     1      -3.019   5.950   7.186  0.00  0.00    +0.086 C 
ENDROOT
BRANCH   1   2
ATOM      2  S   UNL     1      -3.860   6.386   8.733  0.00  0.00    -0.084 S 
BRANCH   2   6
ATOM      3  N   UNL     1      -2.853  10.901  11.126  0.00  0.00    -0.205 N 
ATOM      4  C   UNL     1      -2.807   9.873  10.195  0.00  0.00    +0.232 A 
ATOM      5  N   UNL     1      -3.533   8.716  10.238  0.00  0.00    -0.186 NA
ATOM      6  C   UNL     1      -3.202   7.968   9.144  0.00  0.00    +0.210 A 
ATOM      7  N   UNL     1      -2.305   8.633   8.455  0.00  0.00    -0.144 NA
ATOM      8  N   UNL     1      -2.058   9.842   9.119  0.00  0.00    -0.245 N 
ATOM      9  H   UNL     1      -3.520  10.824  11.997  0.00  0.00    +0.177 HD
ATOM     10  H   UNL     1      -1.391  10.685   8.888  0.00  0.00    +0.192 HD
BRANCH   3  12
ATOM     11  C   UNL     1      -2.093  12.998  11.829  0.00  0.00    +0.063 C 
ATOM     12  N   UNL     1      -2.050  12.036  10.957  0.00  0.00    -0.184 NA
ATOM     13  C   UNL     1      -3.007  12.892  13.023  0.00  0.00    +0.068 C 
BRANCH  11  18
ATOM     14  C   UNL     1       1.205  17.658  11.136  0.00  0.00    +0.044 C 
ATOM     15  C   UNL     1       0.340  16.437  11.317  0.00  0.00    -0.050 A 
ATOM     16  C   UNL     1       0.389  15.415  10.386  0.00  0.00    +0.004 A 
ATOM     17  C   UNL     1      -0.399  14.294  10.546  0.00  0.00    +0.010 A 
ATOM     18  C   UNL     1      -1.248  14.193  11.651  0.00  0.00    -0.003 A 
ATOM     19  C   UNL     1      -1.296  15.232  12.584  0.00  0.00    +0.010 A 
ATOM     20  C   UNL     1      -0.497  16.343  12.415  0.00  0.00    +0.004 A 
ENDBRANCH  11  18
ENDBRANCH   3  12
ENDBRANCH   2   6
ENDBRANCH   1   2
BRANCH   1  21
ATOM     21  C   UNL     1      -3.504   4.578   6.712  0.00  0.00    +0.107 C 
BRANCH  21  22
ATOM     22  C   UNL     1      -2.806   4.216   5.426  0.00  0.00    +0.218 C 
ATOM     23  O   UNL     1      -2.000   4.979   4.938  0.00  0.00    -0.275 OA
ATOM     24  N   UNL     1      -3.077   3.043   4.819  0.00  0.00    -0.285 N 
ATOM     25  H   UNL     1      -3.870   2.390   5.214  0.00  0.00    +0.155 HD
BRANCH  24  26
ATOM     26  C   UNL     1      -2.351   2.656   3.688  0.00  0.00    +0.033 A 
ATOM     27  C   UNL     1      -1.014   3.011   3.565  0.00  0.00    +0.025 A 
ATOM     28  C   UNL     1      -0.299   2.627   2.447  0.00  0.00    +0.030 A 
ATOM     29  C   UNL     1      -0.914   1.891   1.451  0.00  0.00    +0.106 A 
ATOM     30  C   UNL     1      -2.247   1.541   1.568  0.00  0.00    +0.030 A 
ATOM     31  C   UNL     1      -2.965   1.917   2.686  0.00  0.00    +0.025 A 
BRANCH  29  32
ATOM     32  S   UNL     1       0.001   1.403   0.026  0.00  0.00    +0.061 S 
ATOM     33  O   UNL     1       1.076   2.324  -0.101  0.00  0.00    -0.153 OA
ATOM     34  O   UNL     1      -0.946   1.190  -1.011  0.00  0.00    -0.153 OA
BRANCH  32  35
ATOM     35  N   UNL     1       0.678  -0.071   0.360  0.00  0.00    -0.177 NA
ATOM     36  C   UNL     1       2.001  -0.290   0.963  0.00  0.00    +0.109 C 
ATOM     37  C   UNL     1       2.214  -1.815   1.060  0.00  0.00    +0.018 C 
ATOM     38  C   UNL     1       1.245  -2.368  -0.019  0.00  0.00    +0.018 C 
ATOM     39  C   UNL     1       0.057  -1.381   0.095  0.00  0.00    +0.109 C 
ENDBRANCH  32  35
ENDBRANCH  29  32
ENDBRANCH  24  26
ENDBRANCH  21  22
ENDBRANCH   1  21
TORSDOF 9
