REMARK  Name = ZINC02284378
REMARK  8 active torsions:
REMARK  status: ('A' for Active; 'I' for Inactive)
REMARK    1  A    between atoms: C_1  and  C_2
REMARK    2  A    between atoms: C_2  and  C_34
REMARK    3  A    between atoms: C_7  and  C_33
REMARK    4  A    between atoms: C_10  and  N_11
REMARK    5  A    between atoms: C_10  and  N_65
REMARK    6  A    between atoms: N_19  and  N_20
REMARK    7  A    between atoms: C_21  and  C_23
REMARK    8  A    between atoms: C_23  and  C_24
REMARK                            x       y       z     vdW  Elec       q    Type
REMARK                         _______ _______ _______ _____ _____    ______ ____
ROOT
ATOM      1  N   UNL     1       4.984   3.611  -0.026  0.00  0.00    -0.282 N 
ATOM      2  C   UNL     1       5.733   2.439  -0.040  0.00  0.00    +0.044 A 
ATOM      3  C   UNL     1       7.106   2.221  -0.054  0.00  0.00    +0.025 A 
ATOM      4  C   UNL     1       7.604   0.933  -0.067  0.00  0.00    +0.017 A 
ATOM      5  C   UNL     1       6.745  -0.154  -0.064  0.00  0.00    +0.019 A 
ATOM      6  C   UNL     1       5.378   0.043  -0.049  0.00  0.00    +0.027 A 
ATOM      7  C   UNL     1       4.869   1.337  -0.031  0.00  0.00    +0.029 A 
ATOM      8  C   UNL     1       3.492   1.885  -0.021  0.00  0.00    +0.153 C 
ATOM      9  N   UNL     1       2.366   1.214  -0.014  0.00  0.00    -0.175 NA
ATOM     10  C   UNL     1       3.666   3.352  -0.014  0.00  0.00    +0.270 C 
ATOM     11  O   UNL     1       2.773   4.178  -0.002  0.00  0.00    -0.268 OA
ATOM     12 BR   UNL     1       7.446  -1.911  -0.080  0.00  0.00    -0.050 Br
ENDROOT
BRANCH   9  13
ATOM     13  N   UNL     1       1.143   1.898   0.001  0.00  0.00    -0.206 N 
ATOM     14  C   UNL     1      -0.014   1.208   0.009  0.00  0.00    +0.237 C 
ATOM     15  O   UNL     1       0.002  -0.004   0.002  0.00  0.00    -0.274 OA
ATOM     16  H   UNL     1       1.130   2.868   0.007  0.00  0.00    +0.177 HD
BRANCH  14  17
ATOM     17  C   UNL     1      -1.330   1.944   0.019  0.00  0.00    +0.132 C 
BRANCH  17  18
ATOM     18  C   UNL     1      -2.462   0.949   0.019  0.00  0.00    -0.039 A 
ATOM     19  C   UNL     1      -2.990   0.504  -1.178  0.00  0.00    +0.004 A 
ATOM     20  C   UNL     1      -4.026  -0.412  -1.178  0.00  0.00    +0.000 A 
ATOM     21  C   UNL     1      -4.539  -0.875   0.019  0.00  0.00    +0.000 A 
ATOM     22  C   UNL     1      -4.013  -0.426   1.216  0.00  0.00    +0.000 A 
ATOM     23  C   UNL     1      -2.975   0.486   1.216  0.00  0.00    +0.004 A 
ENDBRANCH  17  18
ENDBRANCH  14  17
ENDBRANCH   9  13
BRANCH   1  24
ATOM     24  C   UNL     1       5.560   4.958  -0.024  0.00  0.00    +0.039 C 
BRANCH  24  35
ATOM     25  C   UNL     1       8.505   6.786  -0.545  0.00  0.00    +0.011 C 
ATOM     26  C   UNL     1       7.966   7.543   0.685  0.00  0.00    -0.036 C 
ATOM     27  C   UNL     1       6.461   7.649   0.579  0.00  0.00    -0.009 C 
ATOM     28  C   UNL     1       5.646   6.844   1.577  0.00  0.00    -0.065 C 
ATOM     29  C   UNL     1       6.307   7.032   2.972  0.00  0.00    -0.011 C 
ATOM     30  C   UNL     1       7.558   6.130   2.784  0.00  0.00    -0.048 C 
ATOM     31  C   UNL     1       8.552   6.922   1.936  0.00  0.00    +0.011 C 
ATOM     32  C   UNL     1       7.033   4.947   1.936  0.00  0.00    -0.070 C 
ATOM     33  C   UNL     1       8.153   5.669   4.123  0.00  0.00    +0.009 C 
ATOM     34  C   UNL     1       8.534   8.982   0.582  0.00  0.00    +0.011 C 
ATOM     35  N   UNL     1       5.738   5.377   1.408  0.00  0.00    +0.393 N 
ATOM     36  H   UNL     1       4.994   4.936   1.961  0.00  0.00    -0.079 HD
ENDBRANCH  24  35
ENDBRANCH   1  24
TORSDOF 5
