REMARK  Name = ZINC22241455
REMARK  8 active torsions:
REMARK  status: ('A' for Active; 'I' for Inactive)
REMARK    1  A    between atoms: C_1  and  C_2
REMARK    2  A    between atoms: C_2  and  N_3
REMARK    3  A    between atoms: N_3  and  S_4
REMARK    4  A    between atoms: S_4  and  C_7
REMARK    5  A    between atoms: C_11  and  C_13
REMARK    6  A    between atoms: C_13  and  O_15
REMARK    7  A    between atoms: O_15  and  C_16
REMARK    8  A    between atoms: C_16  and  C_17
REMARK                            x       y       z     vdW  Elec       q    Type
REMARK                         _______ _______ _______ _____ _____    ______ ____
ROOT
ATOM      1  C   UNL     1       1.740   2.697   6.262  0.00  0.00    +0.308 C 
ENDROOT
BRANCH   1   2
ATOM      2  C   UNL     1       1.112   2.305   4.949  0.00  0.00    +0.170 A 
ATOM      3  N   UNL     1       1.886   1.892   3.961  0.00  0.00    -0.214 NA
ATOM      4  C   UNL     1       1.396   1.534   2.785  0.00  0.00    +0.128 A 
ATOM      5  C   UNL     1      -0.010   1.594   2.575  0.00  0.00    +0.051 A 
ATOM      6  C   UNL     1      -0.770   1.245   1.366  0.00  0.00    -0.025 A 
ATOM      7  C   UNL     1      -2.105   1.409   1.425  0.00  0.00    -0.004 A 
ATOM      8  S   UNL     1      -2.433   1.999   3.066  0.00  0.00    -0.073 S 
ATOM      9  C   UNL     1      -0.768   2.046   3.672  0.00  0.00    +0.114 A 
ATOM     10  N   UNL     1      -0.197   2.383   4.812  0.00  0.00    -0.221 NA
ATOM     11  C   UNL     1      -3.107   1.153   0.342  0.00  0.00    +0.043 C 
ATOM     12  C   UNL     1      -2.857  -0.234  -0.264  0.00  0.00    +0.005 C 
ATOM     13  C   UNL     1      -1.871  -0.083  -1.419  0.00  0.00    +0.001 C 
ATOM     14  C   UNL     1      -0.888   1.047  -1.121  0.00  0.00    +0.005 C 
ATOM     15  C   UNL     1      -0.064   0.723   0.119  0.00  0.00    +0.037 C 
ATOM     16  N   UNL     1       2.239   1.106   1.775  0.00  0.00    -0.343 N 
ATOM     17  H   UNL     1       1.823   0.810   0.801  0.00  0.00    +0.144 HD
ATOM     18  H   UNL     1       3.325   1.063   1.946  0.00  0.00    +0.144 HD
ENDBRANCH   1   2
BRANCH   1  19
ATOM     19  O   UNL     1       1.819   1.534   7.127  0.00  0.00    -0.453 OA
BRANCH  19  20
ATOM     20  C   UNL     1       2.360   1.714   8.348  0.00  0.00    +0.340 C 
ATOM     21  O   UNL     1       2.755   2.814   8.680  0.00  0.00    -0.245 OA
BRANCH  20  26
ATOM     22  C   UNL     1       3.134  -0.308  11.415  0.00  0.00    +0.106 A 
ATOM     23  C   UNL     1       2.683  -1.559  11.033  0.00  0.00    +0.028 A 
ATOM     24  C   UNL     1       2.127  -1.749   9.781  0.00  0.00    +0.003 A 
ATOM     25  C   UNL     1       2.014  -0.688   8.905  0.00  0.00    +0.015 A 
ATOM     26  C   UNL     1       2.472   0.575   9.282  0.00  0.00    +0.061 A 
ATOM     27  C   UNL     1       3.032   0.759  10.548  0.00  0.00    +0.043 A 
BRANCH  22  28
ATOM     28  S   UNL     1       3.839  -0.078  13.013  0.00  0.00    +0.058 S 
ATOM     29  O   UNL     1       4.319  -1.349  13.432  0.00  0.00    -0.153 OA
ATOM     30  O   UNL     1       4.681   1.063  12.925  0.00  0.00    -0.153 OA
BRANCH  28  31
ATOM     31  N   UNL     1       2.604   0.323  14.040  0.00  0.00    -0.190 NA
ATOM     32  H   UNL     1       2.500   1.366  14.374  0.00  0.00    +0.148 HD
BRANCH  31  34
ATOM     33  C   UNL     1       0.753  -0.193  15.553  0.00  0.00    +0.022 C 
ATOM     34  C   UNL     1       1.542  -0.645  14.323  0.00  0.00    +0.102 C 
ENDBRANCH  31  34
ENDBRANCH  28  31
ENDBRANCH  22  28
ENDBRANCH  20  26
ENDBRANCH  19  20
ENDBRANCH   1  19
TORSDOF 7
