REMARK  Name = ZINC49597445
REMARK  10 active torsions:
REMARK  status: ('A' for Active; 'I' for Inactive)
REMARK    1  A    between atoms: C_1  and  C_2
REMARK    2  A    between atoms: C_3  and  C_8
REMARK    3  A    between atoms: C_5  and  C_7
REMARK    4  A    between atoms: C_8  and  N_9
REMARK    5  A    between atoms: N_9  and  C_10
REMARK    6  A    between atoms: C_11  and  C_13
REMARK    7  A    between atoms: C_26  and  C_29
REMARK    8  A    between atoms: C_29  and  C_30
REMARK    9  A    between atoms: C_30  and  C_31
REMARK   10  A    between atoms: C_30  and  C_32
REMARK                            x       y       z     vdW  Elec       q    Type
REMARK                         _______ _______ _______ _____ _____    ______ ____
ROOT
ATOM      1  C   UNL     1      -3.592   0.829  -3.542  0.00  0.00    +0.145 C 
ATOM      2  C   UNL     1      -2.414   0.249  -4.300  0.00  0.00    +0.065 C 
ATOM      3  C   UNL     1      -1.177   1.055  -3.990  0.00  0.00    -0.020 A 
ATOM      4  C   UNL     1      -0.043   0.776  -3.365  0.00  0.00    +0.087 A 
ATOM      5  N   UNL     1       0.789   1.875  -3.387  0.00  0.00    -0.360 N 
ATOM      6  H   UNL     1       1.665   1.917  -2.971  0.00  0.00    +0.165 HD
ATOM      7  C   UNL     1       0.200   2.903  -4.085  0.00  0.00    +0.047 A 
ATOM      8  C   UNL     1      -1.083   2.462  -4.416  0.00  0.00    +0.008 A 
ATOM      9  C   UNL     1      -2.031   3.254  -5.032  0.00  0.00    -0.021 A 
ATOM     10  C   UNL     1      -1.646   4.485  -5.484  0.00  0.00    +0.006 A 
ATOM     11  C   UNL     1      -0.353   4.932  -5.226  0.00  0.00    +0.002 A 
ATOM     12  C   UNL     1       0.561   4.174  -4.522  0.00  0.00    +0.026 A 
ATOM     13  C   UNL     1      -3.485   2.821  -5.053  0.00  0.00    +0.085 C 
ATOM     14  N   UNL     1      -3.813   2.271  -3.728  0.00  0.00    -0.299 NA
ATOM     15  H   UNL     1      -4.748   2.532  -3.453  0.00  0.00    +0.123 HD
ENDROOT
BRANCH   1  18
ATOM     16  N   UNL     1      -3.616  -0.658  -1.566  0.00  0.00    -0.297 N 
ATOM     17  C   UNL     1      -4.175  -1.710  -2.420  0.00  0.00    +0.132 C 
ATOM     18  C   UNL     1      -3.384   0.569  -2.073  0.00  0.00    +0.233 C 
ATOM     19  O   UNL     1      -3.007   1.463  -1.346  0.00  0.00    -0.274 OA
BRANCH  16  20
ATOM     20  C   UNL     1      -3.309  -0.941  -0.162  0.00  0.00    +0.164 C 
BRANCH  20  23
ATOM     21  C   UNL     1      -1.872  -1.839   2.467  0.00  0.00    +0.088 C 
ATOM     22  C   UNL     1      -1.317  -1.931   1.069  0.00  0.00    +0.125 A 
ATOM     23  C   UNL     1      -1.933  -1.547  -0.061  0.00  0.00    +0.074 A 
ATOM     24  N   UNL     1      -1.099  -1.799  -1.086  0.00  0.00    -0.329 N 
ATOM     25  C   UNL     1      -0.004  -2.322  -0.614  0.00  0.00    +0.171 A 
ATOM     26  O   UNL     1      -0.107  -2.411   0.719  0.00  0.00    -0.447 OA
ATOM     27  C   UNL     1       1.187  -2.751  -1.432  0.00  0.00    +0.107 C 
ATOM     28  H   UNL     1      -1.284  -1.621  -2.021  0.00  0.00    +0.168 HD
ENDBRANCH  20  23
ENDBRANCH  16  20
ENDBRANCH   1  18
BRANCH  13  29
ATOM     29  C   UNL     1      -4.379   4.026  -5.352  0.00  0.00    +0.026 C 
BRANCH  29  30
ATOM     30  C   UNL     1      -4.301   4.361  -6.843  0.00  0.00    -0.015 C 
ATOM     31  C   UNL     1      -4.938   3.231  -7.654  0.00  0.00    +0.007 C 
ATOM     32  C   UNL     1      -5.051   5.668  -7.112  0.00  0.00    +0.007 C 
ENDBRANCH  29  30
ENDBRANCH  13  29
TORSDOF 5
