REMARK  Name = ZINC63280133
REMARK  12 active torsions:
REMARK  status: ('A' for Active; 'I' for Inactive)
REMARK    1  A    between atoms: C_1  and  C_2
REMARK    2  A    between atoms: C_2  and  C_4
REMARK    3  A    between atoms: C_2  and  N_14
REMARK    4  A    between atoms: C_4  and  C_5
REMARK    5  A    between atoms: C_15  and  C_17
REMARK    6  A    between atoms: C_20  and  C_24
REMARK    7  A    between atoms: C_26  and  O_34
REMARK    8  A    between atoms: C_27  and  O_32
REMARK    9  A    between atoms: C_28  and  O_30
REMARK   10  A    between atoms: O_30  and  C_31
REMARK   11  A    between atoms: O_32  and  C_33
REMARK   12  A    between atoms: O_34  and  C_35
REMARK                            x       y       z     vdW  Elec       q    Type
REMARK                         _______ _______ _______ _____ _____    ______ ____
ROOT
ATOM      1  C   UNL     1      -3.378  -1.132  -1.135  0.00  0.00    +0.086 C 
ATOM      2  C   UNL     1      -4.092  -1.169  -2.279  0.00  0.00    +0.020 C 
ATOM      3  N   UNL     1      -3.554  -0.850  -3.474  0.00  0.00    -0.331 N 
ATOM      4  C   UNL     1      -4.187  -1.382  -4.695  0.00  0.00    +0.160 C 
ATOM      5  S   UNL     1      -5.659  -2.260  -4.019  0.00  0.00    -0.128 S 
ATOM      6  C   UNL     1      -5.559  -1.581  -2.309  0.00  0.00    +0.121 C 
ATOM      7  H   UNL     1      -2.769  -0.282  -3.529  0.00  0.00    +0.147 HD
ENDROOT
BRANCH   4   8
ATOM      8  C   UNL     1      -3.264  -2.339  -5.404  0.00  0.00    -0.010 A 
ATOM      9  C   UNL     1      -2.355  -3.086  -4.678  0.00  0.00    +0.056 A 
ATOM     10  C   UNL     1      -1.504  -3.968  -5.326  0.00  0.00    +0.166 A 
ATOM     11  C   UNL     1      -1.565  -4.100  -6.708  0.00  0.00    +0.204 A 
ATOM     12  C   UNL     1      -2.480  -3.348  -7.435  0.00  0.00    +0.166 A 
ATOM     13  C   UNL     1      -3.331  -2.472  -6.778  0.00  0.00    +0.056 A 
BRANCH  12  14
ATOM     14  O   UNL     1      -2.543  -3.474  -8.788  0.00  0.00    -0.491 OA
ATOM     15  C   UNL     1      -3.507  -2.669  -9.470  0.00  0.00    +0.277 C 
ENDBRANCH  12  14
BRANCH  11  16
ATOM     16  O   UNL     1      -0.731  -4.964  -7.349  0.00  0.00    -0.488 OA
ATOM     17  C   UNL     1      -1.196  -6.303  -7.527  0.00  0.00    +0.277 C 
ENDBRANCH  11  16
BRANCH  10  18
ATOM     18  O   UNL     1      -0.610  -4.702  -4.611  0.00  0.00    -0.491 OA
ATOM     19  C   UNL     1      -0.603  -4.514  -3.194  0.00  0.00    +0.277 C 
ENDBRANCH  10  18
ENDBRANCH   4   8
BRANCH   1  21
ATOM     20  N   UNL     1      -1.294  -0.727  -0.031  0.00  0.00    -0.309 N 
ATOM     21  C   UNL     1      -1.986  -0.881  -1.177  0.00  0.00    +0.239 C 
ATOM     22  O   UNL     1      -1.414  -0.803  -2.249  0.00  0.00    -0.271 OA
ATOM     23  H   UNL     1      -1.750  -0.789   0.823  0.00  0.00    +0.149 HD
BRANCH  20  25
ATOM     24  C   UNL     1       0.389   1.034  -0.250  0.00  0.00    +0.028 C 
ATOM     25  C   UNL     1       0.147  -0.467  -0.075  0.00  0.00    +0.074 C 
BRANCH  25  26
ATOM     26  C   UNL     1       0.790  -0.938   1.231  0.00  0.00    +0.055 C 
BRANCH  26  27
ATOM     27  C   UNL     1       0.659  -2.435   1.344  0.00  0.00    -0.040 C 
ATOM     28  C   UNL     1       1.577  -3.361   0.985  0.00  0.00    -0.001 A 
ATOM     29  C   UNL     1       2.920  -3.256   0.403  0.00  0.00    +0.010 A 
ATOM     30  C   UNL     1       3.615  -4.388   0.147  0.00  0.00    +0.001 A 
ATOM     31  C   UNL     1       3.084  -5.656   0.423  0.00  0.00    +0.002 A 
ATOM     32  C   UNL     1       1.858  -5.833   0.958  0.00  0.00    +0.026 A 
ATOM     33  C   UNL     1       1.040  -4.712   1.267  0.00  0.00    +0.043 A 
ATOM     34  N   UNL     1      -0.163  -4.624   1.781  0.00  0.00    -0.380 N 
ATOM     35  C   UNL     1      -0.523  -3.205   1.888  0.00  0.00    +0.144 C 
ATOM     36  H   UNL     1      -0.720  -5.371   2.049  0.00  0.00    +0.160 HD
ENDBRANCH  26  27
ENDBRANCH  25  26
ENDBRANCH  20  25
ENDBRANCH   1  21
TORSDOF 8
