REMARK  Name = ZINC33656920
REMARK  8 active torsions:
REMARK  status: ('A' for Active; 'I' for Inactive)
REMARK    1  A    between atoms: C_1  and  C_2
REMARK    2  A    between atoms: C_2  and  C_3
REMARK    3  A    between atoms: C_2  and  N_4
REMARK    4  A    between atoms: C_11  and  C_23
REMARK    5  A    between atoms: C_13  and  C_19
REMARK    6  A    between atoms: C_13  and  C_21
REMARK    7  A    between atoms: C_14  and  N_18
REMARK    8  A    between atoms: C_15  and  C_16
REMARK                            x       y       z     vdW  Elec       q    Type
REMARK                         _______ _______ _______ _____ _____    ______ ____
ROOT
ATOM      1  N   UNL     1      -0.018   1.093   2.457  0.00  0.00    -0.296 NA
ATOM      2  C   UNL     1       1.416   1.424   2.388  0.00  0.00    +0.112 C 
ATOM      3  C   UNL     1       2.098   0.753   3.555  0.00  0.00    -0.006 C 
ATOM      4  C   UNL     1       1.452   0.590   4.694  0.00  0.00    -0.026 C 
ATOM      5  C   UNL     1       0.056   1.092   4.924  0.00  0.00    +0.044 C 
ATOM      6  C   UNL     1      -0.607   1.643   3.681  0.00  0.00    +0.094 C 
ATOM      7  C   UNL     1      -0.760  -0.039   5.552  0.00  0.00    +0.071 C 
ATOM      8  C   UNL     1      -0.157  -0.391   6.912  0.00  0.00    +0.188 C 
ATOM      9  C   UNL     1       1.320  -0.627   6.820  0.00  0.00    +0.054 C 
ATOM     10  C   UNL     1       2.090  -0.168   5.800  0.00  0.00    +0.074 C 
ENDROOT
BRANCH   7  11
ATOM     11  C   UNL     1      -2.188   0.409   5.733  0.00  0.00    -0.003 A 
ATOM     12  C   UNL     1      -3.336  -0.185   5.161  0.00  0.00    +0.045 A 
ATOM     13  C   UNL     1      -4.395   0.529   5.584  0.00  0.00    +0.195 A 
ATOM     14  O   UNL     1      -3.951   1.517   6.378  0.00  0.00    -0.471 OA
ATOM     15  C   UNL     1      -2.614   1.446   6.476  0.00  0.00    +0.198 A 
ENDBRANCH   7  11
BRANCH   1  17
ATOM     16  C   UNL     1      -0.013   1.086   0.008  0.00  0.00    +0.024 C 
ATOM     17  C   UNL     1      -0.729   1.579   1.267  0.00  0.00    +0.051 C 
ATOM     18  C   UNL     1      -2.164   1.050   1.278  0.00  0.00    +0.024 C 
ENDBRANCH   1  17
BRANCH   9  19
ATOM     19  N   UNL     1       1.924  -1.343   7.815  0.00  0.00    -0.358 N 
ATOM     20  H   UNL     1       3.007  -1.533   7.777  0.00  0.00    +0.142 HD
ATOM     21  H   UNL     1       1.328  -1.729   8.655  0.00  0.00    +0.142 HD
ENDBRANCH   9  19
BRANCH  10  22
ATOM     22  C   UNL     1       3.501  -0.412   5.792  0.00  0.00    +0.101 C 
ATOM     23  N   UNL     1       4.620  -0.606   5.785  0.00  0.00    -0.191 NA
ENDBRANCH  10  22
BRANCH   8  24
ATOM     24  C   UNL     1      -0.807  -1.609   7.424  0.00  0.00    +0.091 C 
ATOM     25  N   UNL     1      -1.308  -2.549   7.820  0.00  0.00    -0.194 NA
ENDBRANCH   8  24
BRANCH   8  26
ATOM     26  C   UNL     1      -0.409   0.716   7.848  0.00  0.00    +0.091 C 
ATOM     27  N   UNL     1      -0.603   1.571   8.570  0.00  0.00    -0.194 NA
ENDBRANCH   8  26
TORSDOF 6
