REMARK  Name = ZINC24876445
REMARK  9 active torsions:
REMARK  status: ('A' for Active; 'I' for Inactive)
REMARK    1  A    between atoms: C_1  and  C_2
REMARK    2  A    between atoms: C_3  and  C_33
REMARK    3  A    between atoms: N_4  and  C_26
REMARK    4  A    between atoms: C_5  and  N_9
REMARK    5  A    between atoms: C_6  and  C_7
REMARK    6  A    between atoms: C_10  and  C_12
REMARK    7  A    between atoms: C_12  and  S_13
REMARK    8  A    between atoms: S_13  and  C_14
REMARK    9  A    between atoms: N_18  and  C_19
REMARK                            x       y       z     vdW  Elec       q    Type
REMARK                         _______ _______ _______ _____ _____    ______ ____
ROOT
ATOM      1  N   UNL     1      -3.544   2.726   3.234  0.00  0.00    -0.270 N 
ATOM      2  C   UNL     1      -3.735   2.647   4.566  0.00  0.00    +0.229 C 
ATOM      3  O   UNL     1      -2.825   2.301   5.290  0.00  0.00    -0.275 OA
ATOM      4  H   UNL     1      -4.335   3.134   2.588  0.00  0.00    +0.156 HD
ENDROOT
BRANCH   1   9
ATOM      5  C   UNL     1      -0.110   0.418   0.332  0.00  0.00    +0.047 C 
ATOM      6  C   UNL     1      -0.773   1.266   1.387  0.00  0.00    -0.010 A 
ATOM      7  C   UNL     1      -0.158   2.026   2.307  0.00  0.00    +0.027 A 
ATOM      8  N   UNL     1      -1.101   2.645   3.087  0.00  0.00    -0.300 N 
ATOM      9  C   UNL     1      -2.349   2.292   2.678  0.00  0.00    +0.128 A 
ATOM     10  C   UNL     1      -2.216   1.425   1.602  0.00  0.00    +0.095 A 
ATOM     11  C   UNL     1       1.334   2.175   2.460  0.00  0.00    +0.064 C 
BRANCH   8  12
ATOM     12  C   UNL     1      -0.819   3.515   4.150  0.00  0.00    +0.048 A 
ATOM     13  C   UNL     1      -0.224   3.029   5.306  0.00  0.00    +0.029 A 
ATOM     14  C   UNL     1       0.057   3.889   6.350  0.00  0.00    +0.040 A 
ATOM     15  C   UNL     1      -0.263   5.232   6.248  0.00  0.00    +0.124 A 
ATOM     16  C   UNL     1      -0.862   5.717   5.098  0.00  0.00    +0.040 A 
ATOM     17  C   UNL     1      -1.140   4.862   4.050  0.00  0.00    +0.029 A 
ATOM     18  F   UNL     1       0.008   6.070   7.272  0.00  0.00    -0.205 F 
ENDBRANCH   8  12
BRANCH  10  19
ATOM     19  C   UNL     1      -3.272   0.809   0.856  0.00  0.00    +0.103 C 
ATOM     20  N   UNL     1      -4.110   0.321   0.265  0.00  0.00    -0.191 NA
ENDBRANCH  10  19
ENDBRANCH   1   9
BRANCH   2  21
ATOM     21  C   UNL     1      -5.079   2.990   5.156  0.00  0.00    +0.173 C 
BRANCH  21  22
ATOM     22  S   UNL     1      -5.017   2.788   6.954  0.00  0.00    -0.075 S 
BRANCH  22  23
ATOM     23  C   UNL     1      -6.669   3.240   7.369  0.00  0.00    +0.214 A 
ATOM     24  N   UNL     1      -7.613   3.608   6.530  0.00  0.00    -0.101 NA
ATOM     25  N   UNL     1      -8.700   3.869   7.163  0.00  0.00    -0.022 NA
ATOM     26  N   UNL     1      -8.537   3.691   8.429  0.00  0.00    -0.038 NA
ATOM     27  N   UNL     1      -7.209   3.269   8.613  0.00  0.00    -0.187 N 
BRANCH  27  28
ATOM     28  C   UNL     1      -6.577   2.949   9.824  0.00  0.00    +0.071 A 
ATOM     29  C   UNL     1      -5.633   1.932   9.868  0.00  0.00    +0.028 A 
ATOM     30  C   UNL     1      -5.008   1.622  11.060  0.00  0.00    +0.003 A 
ATOM     31  C   UNL     1      -5.330   2.317  12.212  0.00  0.00    +0.020 A 
ATOM     32  C   UNL     1      -6.274   3.328  12.173  0.00  0.00    +0.043 A 
ATOM     33  C   UNL     1      -6.899   3.645  10.981  0.00  0.00    +0.048 A 
ATOM     34 CL   UNL     1      -6.676   4.197  13.621  0.00  0.00    -0.083 Cl
ENDBRANCH  27  28
ENDBRANCH  22  23
ENDBRANCH  21  22
ENDBRANCH   2  21
TORSDOF 7
