REMARK  Name = ZINC43880562
REMARK  4 active torsions:
REMARK  status: ('A' for Active; 'I' for Inactive)
REMARK    1  A    between atoms: C_1  and  C_2
REMARK    2  A    between atoms: C_5  and  C_22
REMARK    3  A    between atoms: N_12  and  C_13
REMARK    4  A    between atoms: C_19  and  C_21
REMARK                            x       y       z     vdW  Elec       q    Type
REMARK                         _______ _______ _______ _____ _____    ______ ____
ROOT
ATOM      1  C   UNL     1       0.015   1.549  -0.047  0.00  0.00    +0.009 C 
ATOM      2  C   UNL     1       0.026   0.019  -0.040  0.00  0.00    +0.004 C 
ATOM      3  C   UNL     1      -1.413  -0.502  -0.023  0.00  0.00    +0.009 C 
ATOM      4  C   UNL     1      -1.403  -2.032  -0.049  0.00  0.00    +0.004 C 
ATOM      5  C   UNL     1      -0.685  -2.555   1.199  0.00  0.00    +0.112 C 
ATOM      6  N   UNL     1       0.649  -1.944   1.268  0.00  0.00    -0.285 N 
ATOM      7  C   UNL     1       0.761  -0.480   1.208  0.00  0.00    +0.112 C 
ATOM      8  C   UNL     1       1.751  -2.712   1.384  0.00  0.00    +0.302 C 
ATOM      9  O   UNL     1       1.641  -3.915   1.525  0.00  0.00    -0.253 OA
ATOM     10  N   UNL     1       2.973  -2.147   1.345  0.00  0.00    -0.296 N 
ATOM     11  C   UNL     1      -0.670  -2.517  -1.301  0.00  0.00    +0.009 C 
ATOM     12  H   UNL     1       3.060  -1.181   1.306  0.00  0.00    +0.151 HD
ENDROOT
BRANCH  10  13
ATOM     13  C   UNL     1       4.171  -2.990   1.359  0.00  0.00    +0.077 C 
ATOM     14  C   UNL     1       4.536  -3.333   2.805  0.00  0.00    +0.041 C 
ATOM     15  C   UNL     1       5.768  -4.243   2.815  0.00  0.00    +0.109 C 
ATOM     16  N   UNL     1       6.845  -3.589   2.060  0.00  0.00    -0.302 N 
ATOM     17  C   UNL     1       6.573  -3.137   0.689  0.00  0.00    +0.109 C 
ATOM     18  C   UNL     1       5.332  -2.239   0.703  0.00  0.00    +0.041 C 
ATOM     19  C   UNL     1       8.060  -3.406   2.615  0.00  0.00    +0.212 C 
ATOM     20  O   UNL     1       8.909  -2.776   2.021  0.00  0.00    -0.276 OA
ATOM     21  C   UNL     1       8.363  -3.986   3.972  0.00  0.00    +0.109 C 
ENDBRANCH  10  13
TORSDOF 1
