REMARK  Name = ZINC43288367
REMARK  9 active torsions:
REMARK  status: ('A' for Active; 'I' for Inactive)
REMARK    1  A    between atoms: C_1  and  C_2
REMARK    2  A    between atoms: C_2  and  C_4
REMARK    3  A    between atoms: C_2  and  N_23
REMARK    4  A    between atoms: C_4  and  C_6
REMARK    5  A    between atoms: C_4  and  O_12
REMARK    6  A    between atoms: O_12  and  C_13
REMARK    7  A    between atoms: C_16  and  C_21
REMARK    8  A    between atoms: C_18  and  O_19
REMARK    9  A    between atoms: O_19  and  C_20
REMARK                            x       y       z     vdW  Elec       q    Type
REMARK                         _______ _______ _______ _____ _____    ______ ____
ROOT
ATOM      1  C   UNL     1       0.750  -0.511   1.253  0.00  0.00    +0.196 C 
ENDROOT
BRANCH   1   2
ATOM      2  C   UNL     1       2.167   0.002   1.299  0.00  0.00    +0.029 A 
ATOM      3  C   UNL     1       2.676   1.038   2.009  0.00  0.00    +0.030 A 
ATOM      4  C   UNL     1       4.023   1.331   1.895  0.00  0.00    +0.025 A 
ATOM      5  C   UNL     1       4.793   0.573   1.076  0.00  0.00    +0.060 A 
ATOM      6  S   UNL     1       3.610  -0.603   0.440  0.00  0.00    -0.097 S 
ATOM      7 BR   UNL     1       4.778   2.768   2.865  0.00  0.00    -0.050 Br
ENDBRANCH   1   2
BRANCH   1   9
ATOM      8  C   UNL     1       0.048   1.541   0.012  0.00  0.00    -0.010 C 
ATOM      9  C   UNL     1       0.060   0.011  -0.009  0.00  0.00    -0.032 C 
BRANCH   9  10
ATOM     10  N   UNL     1      -1.321  -0.489  -0.054  0.00  0.00    +0.382 N 
ATOM     11  H   UNL     1      -1.776  -0.145  -0.886  0.00  0.00    -0.089 HD
ATOM     12  H   UNL     1      -1.313  -1.498  -0.068  0.00  0.00    -0.089 HD
ATOM     13  H   UNL     1      -1.821  -0.168   0.761  0.00  0.00    -0.089 HD
ENDBRANCH   9  10
ENDBRANCH   1   9
BRANCH   1  14
ATOM     14  O   UNL     1       0.761  -1.940   1.234  0.00  0.00    -0.482 OA
BRANCH  14  15
ATOM     15  C   UNL     1      -0.215  -2.574   1.934  0.00  0.00    +0.163 A 
ATOM     16  C   UNL     1      -1.231  -1.837   2.528  0.00  0.00    +0.051 A 
ATOM     17  C   UNL     1      -2.224  -2.475   3.239  0.00  0.00    +0.022 A 
ATOM     18  C   UNL     1      -2.210  -3.867   3.363  0.00  0.00    +0.055 A 
ATOM     19  C   UNL     1      -1.187  -4.609   2.765  0.00  0.00    +0.068 A 
ATOM     20  C   UNL     1      -0.198  -3.962   2.050  0.00  0.00    +0.163 A 
BRANCH  20  21
ATOM     21  O   UNL     1       0.796  -4.681   1.462  0.00  0.00    -0.491 OA
ATOM     22  C   UNL     1       0.751  -6.101   1.621  0.00  0.00    +0.277 C 
ENDBRANCH  20  21
BRANCH  18  23
ATOM     23  C   UNL     1      -3.241  -4.532   4.102  0.00  0.00    +0.099 C 
ATOM     24  N   UNL     1      -4.058  -5.059   4.688  0.00  0.00    -0.191 NA
ENDBRANCH  18  23
ENDBRANCH  14  15
ENDBRANCH   1  14
TORSDOF 7
