REMARK  Name = ZINC12487990
REMARK  12 active torsions:
REMARK  status: ('A' for Active; 'I' for Inactive)
REMARK    1  A    between atoms: C_1  and  C_2
REMARK    2  A    between atoms: C_5  and  C_8
REMARK    3  A    between atoms: C_8  and  C_10
REMARK    4  A    between atoms: C_8  and  N_19
REMARK    5  A    between atoms: N_12  and  C_13
REMARK    6  A    between atoms: C_13  and  C_14
REMARK    7  A    between atoms: N_19  and  C_20
REMARK    8  A    between atoms: C_22  and  C_27
REMARK    9  A    between atoms: C_25  and  C_26
REMARK   10  A    between atoms: C_28  and  C_30
REMARK   11  A    between atoms: C_30  and  N_31
REMARK   12  A    between atoms: C_32  and  C_34
REMARK                            x       y       z     vdW  Elec       q    Type
REMARK                         _______ _______ _______ _____ _____    ______ ____
ROOT
ATOM      1  N   UNL     1       3.431   0.978  -0.740  0.00  0.00    -0.254 N 
ATOM      2  C   UNL     1       2.220   0.474  -0.430  0.00  0.00    +0.238 C 
ATOM      3  O   UNL     1       2.133  -0.612   0.103  0.00  0.00    -0.274 OA
ENDROOT
BRANCH   1   4
ATOM      4  C   UNL     1       3.531   2.232  -1.354  0.00  0.00    +0.041 A 
ATOM      5  C   UNL     1       3.359   3.389  -0.606  0.00  0.00    +0.027 A 
ATOM      6  C   UNL     1       3.459   4.624  -1.215  0.00  0.00    -0.049 A 
ATOM      7  C   UNL     1       3.729   4.710  -2.569  0.00  0.00    +0.004 A 
ATOM      8  C   UNL     1       3.900   3.559  -3.316  0.00  0.00    +0.005 A 
ATOM      9  C   UNL     1       3.808   2.321  -2.712  0.00  0.00    -0.029 A 
ATOM     10  C   UNL     1       4.001   1.067  -3.526  0.00  0.00    +0.045 C 
ATOM     11  C   UNL     1       3.273   5.881  -0.404  0.00  0.00    +0.044 C 
ENDBRANCH   1   4
BRANCH   1  12
ATOM     12  C   UNL     1       4.643   0.214  -0.433  0.00  0.00    +0.197 C 
BRANCH  12  17
ATOM     13  C   UNL     1       5.255  -0.209   5.298  0.00  0.00    +0.044 C 
ATOM     14  C   UNL     1       5.095  -0.099   3.803  0.00  0.00    -0.050 A 
ATOM     15  C   UNL     1       5.278  -1.212   3.005  0.00  0.00    +0.004 A 
ATOM     16  C   UNL     1       5.132  -1.111   1.634  0.00  0.00    +0.006 A 
ATOM     17  C   UNL     1       4.802   0.104   1.062  0.00  0.00    -0.018 A 
ATOM     18  C   UNL     1       4.625   1.218   1.860  0.00  0.00    +0.006 A 
ATOM     19  C   UNL     1       4.766   1.116   3.231  0.00  0.00    +0.004 A 
ENDBRANCH  12  17
BRANCH  12  20
ATOM     20  C   UNL     1       5.841   0.918  -1.015  0.00  0.00    +0.239 C 
ATOM     21  O   UNL     1       5.892   2.129  -1.016  0.00  0.00    -0.273 OA
ATOM     22  N   UNL     1       6.857   0.200  -1.536  0.00  0.00    -0.306 N 
ATOM     23  H   UNL     1       6.816  -0.769  -1.535  0.00  0.00    +0.149 HD
BRANCH  22  24
ATOM     24  C   UNL     1       8.022   0.884  -2.102  0.00  0.00    +0.178 C 
BRANCH  24  25
ATOM     25  C   UNL     1       9.005  -0.138  -2.612  0.00  0.00    +0.122 A 
ATOM     26  C   UNL     1       9.033  -0.651  -3.855  0.00  0.00    +0.046 A 
ATOM     27  C   UNL     1      10.110  -1.566  -3.897  0.00  0.00    +0.041 A 
ATOM     28  C   UNL     1      10.676  -1.557  -2.677  0.00  0.00    +0.195 A 
ATOM     29  O   UNL     1      10.007  -0.685  -1.904  0.00  0.00    -0.466 OA
ENDBRANCH  24  25
ENDBRANCH  22  24
ENDBRANCH  12  20
ENDBRANCH   1  12
BRANCH   2  30
ATOM     30  C   UNL     1       0.974   1.261  -0.745  0.00  0.00    +0.201 C 
BRANCH  30  31
ATOM     31  N   UNL     1      -0.204   0.503  -0.314  0.00  0.00    -0.302 N 
ATOM     32  C   UNL     1      -1.438   1.011  -0.502  0.00  0.00    +0.251 C 
ATOM     33  O   UNL     1      -1.574   2.102  -1.024  0.00  0.00    -0.270 OA
ATOM     34  H   UNL     1      -0.096  -0.366   0.102  0.00  0.00    +0.150 HD
BRANCH  32  35
ATOM     35  C   UNL     1      -2.616   0.251  -0.076  0.00  0.00    +0.074 A 
ATOM     36  C   UNL     1      -3.957   0.591  -0.170  0.00  0.00    +0.021 A 
ATOM     37  C   UNL     1      -4.867  -0.318   0.310  0.00  0.00    +0.008 A 
ATOM     38  C   UNL     1      -4.421  -1.480   0.853  0.00  0.00    +0.046 A 
ATOM     39  S   UNL     1      -2.699  -1.351   0.706  0.00  0.00    -0.092 S 
ENDBRANCH  32  35
ENDBRANCH  30  31
ENDBRANCH   2  30
TORSDOF 9
