REMARK  Name = ZINC08855476
REMARK  5 active torsions:
REMARK  status: ('A' for Active; 'I' for Inactive)
REMARK    1  A    between atoms: C_1  and  O_2
REMARK    2  A    between atoms: O_2  and  C_3
REMARK    3  A    between atoms: C_3  and  C_5
REMARK    4  A    between atoms: C_8  and  N_12
REMARK    5  A    between atoms: C_9  and  N_11
REMARK                            x       y       z     vdW  Elec       q    Type
REMARK                         _______ _______ _______ _____ _____    ______ ____
ROOT
ATOM      1  C   UNL     1      -1.238   3.144   0.031  0.00  0.00    +0.061 A 
ATOM      2  C   UNL     1      -1.216   1.746   0.017  0.00  0.00    +0.017 A 
ATOM      3  C   UNL     1      -0.013   1.076   0.008  0.00  0.00    +0.026 A 
ATOM      4  C   UNL     1       1.183   1.786   0.000  0.00  0.00    +0.051 A 
ATOM      5  C   UNL     1       1.168   3.183   0.008  0.00  0.00    +0.047 A 
ATOM      6  C   UNL     1      -0.036   3.861   0.023  0.00  0.00    +0.039 A 
ENDROOT
BRANCH   4   7
ATOM      7  N   UNL     1       2.397   1.103  -0.015  0.00  0.00    -0.327 N 
ATOM      8  C   UNL     1       2.570   0.370  -1.272  0.00  0.00    +0.116 C 
ATOM      9  C   UNL     1       4.050   0.019  -1.468  0.00  0.00    +0.088 C 
ATOM     10  S   UNL     1       4.573  -1.050  -0.092  0.00  0.00    -0.158 S 
ATOM     11  C   UNL     1       4.003  -0.129   1.370  0.00  0.00    +0.088 C 
ATOM     12  C   UNL     1       2.531   0.243   1.163  0.00  0.00    +0.116 C 
ENDBRANCH   4   7
BRANCH   5  13
ATOM     13  N   UNL     1       2.373   3.896   0.001  0.00  0.00    -0.357 N 
ATOM     14  H   UNL     1       3.218   3.421  -0.009  0.00  0.00    +0.142 HD
ATOM     15  H   UNL     1       2.363   4.866   0.006  0.00  0.00    +0.142 HD
ENDBRANCH   5  13
BRANCH   1  16
ATOM     16  C   UNL     1      -2.525   3.862   0.047  0.00  0.00    +0.339 C 
ATOM     17  O   UNL     1      -2.543   5.077   0.054  0.00  0.00    -0.245 OA
BRANCH  16  19
ATOM     18  C   UNL     1      -4.911   3.944   0.071  0.00  0.00    +0.280 C 
ATOM     19  O   UNL     1      -3.682   3.171   0.055  0.00  0.00    -0.464 OA
ENDBRANCH  16  19
ENDBRANCH   1  16
TORSDOF 4
