REMARK  Name = ZINC63634631
REMARK  9 active torsions:
REMARK  status: ('A' for Active; 'I' for Inactive)
REMARK    1  A    between atoms: C_1  and  C_2
REMARK    2  A    between atoms: C_7  and  C_12
REMARK    3  A    between atoms: C_12  and  C_13
REMARK    4  A    between atoms: C_13  and  N_14
REMARK    5  A    between atoms: C_15  and  C_17
REMARK    6  A    between atoms: C_17  and  C_18
REMARK    7  A    between atoms: C_18  and  S_19
REMARK    8  A    between atoms: S_19  and  C_22
REMARK    9  A    between atoms: N_31  and  C_32
REMARK                            x       y       z     vdW  Elec       q    Type
REMARK                         _______ _______ _______ _____ _____    ______ ____
ROOT
ATOM      1  N   UNL     1      -2.291  -7.292   1.789  0.00  0.00    -0.315 N 
ATOM      2  C   UNL     1      -2.444  -8.571   1.391  0.00  0.00    +0.215 C 
ATOM      3  O   UNL     1      -1.598  -9.097   0.699  0.00  0.00    -0.276 OA
ATOM      4  H   UNL     1      -2.967  -6.872   2.343  0.00  0.00    +0.149 HD
ENDROOT
BRANCH   1   5
ATOM      5  C   UNL     1      -1.102  -6.537   1.384  0.00  0.00    +0.108 C 
BRANCH   5   6
ATOM      6  C   UNL     1      -1.174  -5.123   1.965  0.00  0.00    +0.065 C 
BRANCH   6  13
ATOM      7  C   UNL     1      -0.018   1.503   0.010  0.00  0.00    +0.044 C 
ATOM      8  C   UNL     1       0.002  -0.004   0.002  0.00  0.00    -0.048 A 
ATOM      9  C   UNL     1       0.005  -0.672  -1.235  0.00  0.00    +0.005 A 
ATOM     10  C   UNL     1       0.022  -2.017  -1.335  0.00  0.00    +0.027 A 
ATOM     11  C   UNL     1       0.040  -2.834  -0.114  0.00  0.00    +0.060 A 
ATOM     12  N   UNL     1       0.057  -4.120   0.090  0.00  0.00    -0.363 N 
ATOM     13  C   UNL     1       0.067  -4.335   1.542  0.00  0.00    +0.175 C 
ATOM     14  N   UNL     1       0.053  -3.002   2.159  0.00  0.00    -0.363 N 
ATOM     15  C   UNL     1       0.037  -2.127   1.195  0.00  0.00    +0.060 A 
ATOM     16  C   UNL     1       0.022  -0.657   1.181  0.00  0.00    +0.030 A 
ATOM     17  H   UNL     1       0.062  -4.809  -0.593  0.00  0.00    +0.162 HD
ATOM     18  H   UNL     1       0.055  -2.810   3.109  0.00  0.00    +0.162 HD
ENDBRANCH   6  13
ENDBRANCH   5   6
ENDBRANCH   1   5
BRANCH   2  19
ATOM     19  C   UNL     1      -3.667  -9.348   1.808  0.00  0.00    +0.119 C 
BRANCH  19  20
ATOM     20  C   UNL     1      -3.595 -10.762   1.227  0.00  0.00    +0.181 C 
BRANCH  20  21
ATOM     21  S   UNL     1      -5.066 -11.697   1.728  0.00  0.00    -0.003 S 
ATOM     22  O   UNL     1      -5.043 -11.931   3.129  0.00  0.00    -0.169 OA
ATOM     23  O   UNL     1      -6.223 -11.160   1.102  0.00  0.00    -0.169 OA
BRANCH  21  24
ATOM     24  C   UNL     1      -4.860 -13.289   1.002  0.00  0.00    +0.089 A 
ATOM     25  C   UNL     1      -5.346 -13.539  -0.269  0.00  0.00    +0.029 A 
ATOM     26  C   UNL     1      -5.188 -14.784  -0.843  0.00  0.00    +0.025 A 
ATOM     27  C   UNL     1      -4.535 -15.798  -0.145  0.00  0.00    +0.040 A 
ATOM     28  C   UNL     1      -4.052 -15.534   1.130  0.00  0.00    -0.015 A 
ATOM     29  C   UNL     1      -4.207 -14.290   1.699  0.00  0.00    +0.033 A 
ATOM     30  C   UNL     1      -3.407 -16.812   1.614  0.00  0.00    +0.133 C 
ATOM     31  C   UNL     1      -3.600 -17.779   0.465  0.00  0.00    +0.224 C 
ATOM     32  O   UNL     1      -3.231 -18.934   0.426  0.00  0.00    -0.275 OA
ATOM     33  N   UNL     1      -4.255 -17.117  -0.503  0.00  0.00    -0.274 N 
ATOM     34  C   UNL     1      -4.633 -17.712  -1.788  0.00  0.00    +0.138 C 
ENDBRANCH  21  24
ENDBRANCH  20  21
ENDBRANCH  19  20
ENDBRANCH   2  19
TORSDOF 7
