REMARK  Name = ZINC34947641
REMARK  10 active torsions:
REMARK  status: ('A' for Active; 'I' for Inactive)
REMARK    1  A    between atoms: C_1  and  C_2
REMARK    2  A    between atoms: C_2  and  C_3
REMARK    3  A    between atoms: C_3  and  C_4
REMARK    4  A    between atoms: C_4  and  N_5
REMARK    5  A    between atoms: N_8  and  C_9
REMARK    6  A    between atoms: C_9  and  C_11
REMARK    7  A    between atoms: C_9  and  C_22
REMARK    8  A    between atoms: C_11  and  C_12
REMARK    9  A    between atoms: C_28  and  C_31
REMARK   10  A    between atoms: C_32  and  C_34
REMARK                            x       y       z     vdW  Elec       q    Type
REMARK                         _______ _______ _______ _____ _____    ______ ____
ROOT
ATOM      1  C   UNL     1       2.315  -5.749  -4.053  0.00  0.00    +0.165 C 
ENDROOT
BRANCH   1   2
ATOM      2  C   UNL     1       2.452  -6.081  -5.516  0.00  0.00    +0.236 C 
ATOM      3  O   UNL     1       3.017  -5.310  -6.263  0.00  0.00    -0.274 OA
ATOM      4  N   UNL     1       1.947  -7.235  -5.995  0.00  0.00    -0.297 N 
ATOM      5  C   UNL     1       1.165  -8.127  -5.128  0.00  0.00    +0.127 C 
ATOM      6  C   UNL     1       1.804  -9.521  -5.154  0.00  0.00    +0.127 C 
ATOM      7  N   UNL     1       2.025  -9.910  -6.555  0.00  0.00    -0.295 N 
ATOM      8  C   UNL     1       2.806  -9.018  -7.422  0.00  0.00    +0.090 C 
ATOM      9  C   UNL     1       2.163  -7.621  -7.397  0.00  0.00    +0.130 C 
ATOM     10  C   UNL     1       4.246  -8.936  -6.911  0.00  0.00    +0.029 C 
ATOM     11  C   UNL     1       1.519 -11.063  -7.034  0.00  0.00    +0.219 C 
ATOM     12  O   UNL     1       1.708 -11.374  -8.191  0.00  0.00    -0.275 OA
BRANCH  11  13
ATOM     13  C   UNL     1       0.720 -11.968  -6.132  0.00  0.00    +0.075 C 
ATOM     14  C   UNL     1       1.342 -13.313  -5.749  0.00  0.00    +0.013 C 
ATOM     15  C   UNL     1       0.173 -13.264  -6.736  0.00  0.00    +0.013 C 
ENDBRANCH  11  13
ENDBRANCH   1   2
BRANCH   1  19
ATOM     16  N   UNL     1       1.906  -2.383  -2.631  0.00  0.00    -0.299 N 
ATOM     17  C   UNL     1       1.827  -3.718  -2.798  0.00  0.00    +0.300 C 
ATOM     18  O   UNL     1       1.238  -4.399  -1.981  0.00  0.00    -0.253 OA
ATOM     19  N   UNL     1       2.401  -4.298  -3.871  0.00  0.00    -0.288 N 
ATOM     20  H   UNL     1       2.375  -1.839  -3.283  0.00  0.00    +0.150 HD
ATOM     21  H   UNL     1       2.870  -3.755  -4.523  0.00  0.00    +0.151 HD
BRANCH  16  22
ATOM     22  C   UNL     1       1.282  -1.752  -1.465  0.00  0.00    +0.106 C 
BRANCH  22  23
ATOM     23  C   UNL     1       1.517  -0.241  -1.516  0.00  0.00    +0.018 C 
BRANCH  23  25
ATOM     24  C   UNL     1       1.101   1.928  -0.348  0.00  0.00    +0.004 C 
ATOM     25  C   UNL     1       0.866   0.417  -0.298  0.00  0.00    -0.002 C 
ENDBRANCH  23  25
ENDBRANCH  22  23
ENDBRANCH  16  22
ENDBRANCH   1  19
BRANCH   1  26
ATOM     26  C   UNL     1       3.439  -6.429  -3.268  0.00  0.00    +0.069 C 
BRANCH  26  27
ATOM     27  C   UNL     1       3.218  -6.221  -1.792  0.00  0.00    -0.020 A 
ATOM     28  C   UNL     1       3.751  -5.250  -1.034  0.00  0.00    +0.087 A 
ATOM     29  N   UNL     1       3.323  -5.380   0.260  0.00  0.00    -0.360 N 
ATOM     30  H   UNL     1       3.575  -4.794   0.991  0.00  0.00    +0.165 HD
ATOM     31  C   UNL     1       2.483  -6.465   0.368  0.00  0.00    +0.047 A 
ATOM     32  C   UNL     1       2.375  -7.036  -0.913  0.00  0.00    +0.003 A 
ATOM     33  C   UNL     1       1.574  -8.162  -1.109  0.00  0.00    +0.010 A 
ATOM     34  C   UNL     1       0.894  -8.703  -0.054  0.00  0.00    +0.001 A 
ATOM     35  C   UNL     1       0.994  -8.141   1.211  0.00  0.00    +0.002 A 
ATOM     36  C   UNL     1       1.787  -7.035   1.429  0.00  0.00    +0.026 A 
ENDBRANCH  26  27
ENDBRANCH   1  26
TORSDOF 8
