REMARK  Name = ZINC39678283
REMARK  8 active torsions:
REMARK  status: ('A' for Active; 'I' for Inactive)
REMARK    1  A    between atoms: C_1  and  C_2
REMARK    2  A    between atoms: C_2  and  C_4
REMARK    3  A    between atoms: C_2  and  O_33
REMARK    4  A    between atoms: C_8  and  C_17
REMARK    5  A    between atoms: N_19  and  C_20
REMARK    6  A    between atoms: C_20  and  C_21
REMARK    7  A    between atoms: C_26  and  N_27
REMARK    8  A    between atoms: O_33  and  C_34
REMARK                            x       y       z     vdW  Elec       q    Type
REMARK                         _______ _______ _______ _____ _____    ______ ____
ROOT
ATOM      1  C   UNL     1       0.947   0.088   1.394  0.00  0.00    +0.256 C 
ATOM      2  O   UNL     1       2.047  -0.423   1.395  0.00  0.00    -0.272 OA
ATOM      3  N   UNL     1       0.252   0.194   2.543  0.00  0.00    -0.297 N 
ATOM      4  C   UNL     1      -1.097   0.776   2.739  0.00  0.00    +0.121 C 
ATOM      5  C   UNL     1      -1.780  -0.157   3.764  0.00  0.00    +0.100 C 
ATOM      6  C   UNL     1      -0.620  -0.822   4.523  0.00  0.00    -0.004 C 
ATOM      7  C   UNL     1       0.661  -0.251   3.897  0.00  0.00    +0.115 C 
ATOM      8  C   UNL     1      -0.662  -2.336   4.332  0.00  0.00    -0.010 C 
ATOM      9  C   UNL     1       0.467  -2.979   5.142  0.00  0.00    -0.082 C 
ATOM     10  N   UNL     1       0.308  -2.640   6.561  0.00  0.00    +0.379 N 
ATOM     11  C   UNL     1       0.443  -1.190   6.748  0.00  0.00    -0.082 C 
ATOM     12  C   UNL     1      -0.687  -0.471   6.006  0.00  0.00    -0.010 C 
ATOM     13  H   UNL     1      -0.604  -2.935   6.876  0.00  0.00    -0.086 HD
ATOM     14  H   UNL     1       1.017  -3.114   7.101  0.00  0.00    -0.086 HD
ENDROOT
BRANCH   5  15
ATOM     15  C   UNL     1      -2.639   0.642   4.710  0.00  0.00    +0.218 C 
ATOM     16  O   UNL     1      -2.225   1.685   5.171  0.00  0.00    -0.275 OA
ATOM     17  N   UNL     1      -3.867   0.198   5.043  0.00  0.00    -0.311 N 
ATOM     18  H   UNL     1      -4.198  -0.635   4.675  0.00  0.00    +0.149 HD
BRANCH  17  19
ATOM     19  C   UNL     1      -4.702   0.975   5.963  0.00  0.00    +0.141 C 
BRANCH  19  20
ATOM     20  C   UNL     1      -6.015   0.266   6.170  0.00  0.00    -0.009 A 
ATOM     21  C   UNL     1      -7.138   0.675   5.476  0.00  0.00    +0.007 A 
ATOM     22  C   UNL     1      -8.344   0.025   5.665  0.00  0.00    +0.000 A 
ATOM     23  C   UNL     1      -8.430  -1.036   6.549  0.00  0.00    +0.002 A 
ATOM     24  C   UNL     1      -7.312  -1.449   7.245  0.00  0.00    +0.023 A 
ATOM     25  C   UNL     1      -6.097  -0.802   7.053  0.00  0.00    +0.034 A 
BRANCH  25  26
ATOM     26  N   UNL     1      -4.963  -1.221   7.752  0.00  0.00    -0.330 N 
ATOM     27  C   UNL     1      -4.641  -0.652   9.068  0.00  0.00    +0.105 C 
ATOM     28  C   UNL     1      -4.460  -1.797  10.069  0.00  0.00    +0.019 C 
ATOM     29  C   UNL     1      -3.412  -2.776   9.535  0.00  0.00    +0.003 C 
ATOM     30  C   UNL     1      -3.894  -3.367   8.208  0.00  0.00    +0.019 C 
ATOM     31  C   UNL     1      -4.072  -2.244   7.188  0.00  0.00    +0.105 C 
ENDBRANCH  25  26
ENDBRANCH  19  20
ENDBRANCH  17  19
ENDBRANCH   5  15
BRANCH   1  33
ATOM     32  C   UNL     1       0.200   2.123   0.191  0.00  0.00    +0.062 C 
ATOM     33  C   UNL     1       0.358   0.604   0.106  0.00  0.00    +0.256 C 
BRANCH  33  34
ATOM     34  O   UNL     1       1.225   0.274  -0.981  0.00  0.00    -0.480 OA
BRANCH  34  35
ATOM     35  C   UNL     1       0.656   0.150  -2.208  0.00  0.00    +0.122 A 
ATOM     36  C   UNL     1       1.417  -0.279  -3.286  0.00  0.00    +0.045 A 
ATOM     37  C   UNL     1       0.836  -0.405  -4.533  0.00  0.00    +0.004 A 
ATOM     38  C   UNL     1      -0.502  -0.102  -4.708  0.00  0.00    +0.000 A 
ATOM     39  C   UNL     1      -1.262   0.327  -3.635  0.00  0.00    +0.004 A 
ATOM     40  C   UNL     1      -0.687   0.448  -2.385  0.00  0.00    +0.045 A 
ENDBRANCH  34  35
ENDBRANCH  33  34
ENDBRANCH   1  33
TORSDOF 7
