REMARK  Name = ZINC64653793
REMARK  10 active torsions:
REMARK  status: ('A' for Active; 'I' for Inactive)
REMARK    1  A    between atoms: C_1  and  O_2
REMARK    2  A    between atoms: O_2  and  C_3
REMARK    3  A    between atoms: C_3  and  C_4
REMARK    4  A    between atoms: C_4  and  N_5
REMARK    5  A    between atoms: C_6  and  S_21
REMARK    6  A    between atoms: C_11  and  C_17
REMARK    7  A    between atoms: C_17  and  O_19
REMARK    8  A    between atoms: O_19  and  C_20
REMARK    9  A    between atoms: S_21  and  C_22
REMARK   10  A    between atoms: C_22  and  C_23
REMARK                            x       y       z     vdW  Elec       q    Type
REMARK                         _______ _______ _______ _____ _____    ______ ____
ROOT
ATOM      1  N   UNL     1      -0.776  -2.556  -1.119  0.00  0.00    -0.268 N 
ATOM      2  C   UNL     1      -1.558  -2.693   0.110  0.00  0.00    +0.222 C 
ATOM      3  N   UNL     1      -2.970  -2.391  -0.148  0.00  0.00    -0.317 N 
ATOM      4  C   UNL     1      -3.566  -2.904  -1.296  0.00  0.00    +0.042 A 
ATOM      5  C   UNL     1      -4.919  -3.188  -1.346  0.00  0.00    +0.038 A 
ATOM      6  C   UNL     1      -5.473  -3.690  -2.523  0.00  0.00    +0.061 A 
ATOM      7  C   UNL     1      -4.667  -3.906  -3.644  0.00  0.00    +0.016 A 
ATOM      8  C   UNL     1      -3.318  -3.629  -3.596  0.00  0.00    +0.016 A 
ATOM      9  C   UNL     1      -2.756  -3.131  -2.422  0.00  0.00    +0.058 A 
ATOM     10  C   UNL     1      -1.313  -2.840  -2.322  0.00  0.00    +0.250 C 
ATOM     11  O   UNL     1      -0.614  -2.860  -3.316  0.00  0.00    -0.270 OA
ATOM     12  H   UNL     1      -3.479  -1.844   0.470  0.00  0.00    +0.149 HD
ENDROOT
BRANCH   6  13
ATOM     13  C   UNL     1      -6.920  -3.996  -2.585  0.00  0.00    +0.339 C 
ATOM     14  O   UNL     1      -7.622  -3.809  -1.612  0.00  0.00    -0.245 OA
BRANCH  13  15
ATOM     15  O   UNL     1      -7.457  -4.482  -3.720  0.00  0.00    -0.464 OA
ATOM     16  C   UNL     1      -8.860  -4.755  -3.709  0.00  0.00    +0.280 C 
ENDBRANCH  13  15
ENDBRANCH   6  13
BRANCH   1  17
ATOM     17  C   UNL     1       0.613  -2.097  -1.041  0.00  0.00    +0.138 C 
BRANCH  17  18
ATOM     18  C   UNL     1       0.652  -0.570  -1.138  0.00  0.00    +0.178 C 
BRANCH  18  20
ATOM     19  C   UNL     1      -0.017   1.425   0.010  0.00  0.00    +0.194 C 
ATOM     20  O   UNL     1       0.002  -0.004   0.002  0.00  0.00    -0.381 OA
ENDBRANCH  18  20
ENDBRANCH  17  18
ENDBRANCH   1  17
BRANCH   2  21
ATOM     21  S   UNL     1      -1.414  -4.392   0.728  0.00  0.00    -0.115 S 
BRANCH  21  22
ATOM     22  C   UNL     1      -2.077  -5.407  -0.622  0.00  0.00    +0.119 C 
BRANCH  22  23
ATOM     23  C   UNL     1      -2.014  -6.884  -0.228  0.00  0.00    +0.184 C 
ATOM     24  N   UNL     1      -0.633  -7.259   0.103  0.00  0.00    -0.363 N 
ATOM     25  C   UNL     1      -0.623  -7.657   1.342  0.00  0.00    +0.060 A 
ATOM     26  C   UNL     1       0.444  -8.147   2.226  0.00  0.00    +0.027 A 
ATOM     27  C   UNL     1       0.150  -8.495   3.494  0.00  0.00    +0.002 A 
ATOM     28  C   UNL     1      -1.151  -8.410   4.021  0.00  0.00    +0.002 A 
ATOM     29  C   UNL     1      -2.202  -7.973   3.298  0.00  0.00    +0.027 A 
ATOM     30  C   UNL     1      -2.000  -7.566   1.900  0.00  0.00    +0.060 A 
ATOM     31  N   UNL     1      -2.808  -7.116   0.985  0.00  0.00    -0.363 N 
ATOM     32  H   UNL     1       0.131  -7.218  -0.493  0.00  0.00    +0.162 HD
ATOM     33  H   UNL     1      -3.761  -6.962   1.085  0.00  0.00    +0.162 HD
ENDBRANCH  22  23
ENDBRANCH  21  22
ENDBRANCH   2  21
TORSDOF 8
