REMARK  Name = ZINC08790022
REMARK  6 active torsions:
REMARK  status: ('A' for Active; 'I' for Inactive)
REMARK    1  A    between atoms: C_4  and  C_7
REMARK    2  A    between atoms: C_7  and  C_8
REMARK    3  A    between atoms: C_8  and  N_9
REMARK    4  A    between atoms: C_14  and  C_30
REMARK    5  A    between atoms: C_30  and  C_31
REMARK    6  A    between atoms: C_34  and  O_37
REMARK                            x       y       z     vdW  Elec       q    Type
REMARK                         _______ _______ _______ _____ _____    ______ ____
ROOT
ATOM      1  N   UNL     1      -0.498  -7.594   1.609  0.00  0.00    -0.241 N 
ATOM      2  C   UNL     1      -0.136  -6.907   0.501  0.00  0.00    +0.224 C 
ATOM      3  O   UNL     1       0.995  -6.760   0.089  0.00  0.00    -0.275 OA
ATOM      4  C   UNL     1      -1.381  -6.344  -0.145  0.00  0.00    +0.073 C 
ATOM      5  C   UNL     1      -1.375  -4.807  -0.011  0.00  0.00    -0.053 C 
ATOM      6  C   UNL     1      -3.110  -5.531   1.376  0.00  0.00    +0.050 C 
ATOM      7  C   UNL     1      -2.533  -6.822   0.782  0.00  0.00    +0.088 C 
ATOM      8  C   UNL     1      -1.813  -7.612   1.852  0.00  0.00    +0.225 C 
ATOM      9  O   UNL     1      -2.346  -8.176   2.784  0.00  0.00    -0.275 OA
ATOM     10  C   UNL     1      -3.564  -5.729   2.794  0.00  0.00    -0.028 A 
ATOM     11  C   UNL     1      -2.924  -6.120   3.949  0.00  0.00    +0.004 A 
ATOM     12  C   UNL     1      -3.629  -6.209   5.136  0.00  0.00    +0.000 A 
ATOM     13  C   UNL     1      -4.978  -5.905   5.160  0.00  0.00    +0.002 A 
ATOM     14  C   UNL     1      -5.623  -5.511   4.006  0.00  0.00    +0.023 A 
ATOM     15  C   UNL     1      -4.920  -5.418   2.807  0.00  0.00    +0.036 A 
ATOM     16  N   UNL     1      -5.343  -5.047   1.528  0.00  0.00    -0.286 N 
ATOM     17  C   UNL     1      -4.339  -5.086   0.631  0.00  0.00    +0.211 C 
ATOM     18  O   UNL     1      -4.412  -4.816  -0.550  0.00  0.00    -0.277 OA
ATOM     19  H   UNL     1      -6.253  -4.791   1.312  0.00  0.00    +0.155 HD
ATOM     20  N   UNL     1      -2.026  -4.562   1.277  0.00  0.00    +0.394 N 
ATOM     21  H   UNL     1      -2.400  -3.606   1.310  0.00  0.00    -0.083 HD
ATOM     22  H   UNL     1      -1.358  -4.696   2.045  0.00  0.00    -0.083 HD
ENDROOT
BRANCH   1  23
ATOM     23  C   UNL     1       0.476  -8.269   2.470  0.00  0.00    +0.121 C 
BRANCH  23  24
ATOM     24  C   UNL     1       0.686  -9.702   1.977  0.00  0.00    +0.054 C 
BRANCH  24  28
ATOM     25  C   UNL     1       3.526 -11.672   4.487  0.00  0.00    +0.000 A 
ATOM     26  C   UNL     1       2.179 -11.727   4.792  0.00  0.00    +0.000 A 
ATOM     27  C   UNL     1       1.260 -11.090   3.980  0.00  0.00    +0.004 A 
ATOM     28  C   UNL     1       1.688 -10.397   2.863  0.00  0.00    -0.046 A 
ATOM     29  C   UNL     1       3.035 -10.346   2.555  0.00  0.00    +0.004 A 
ATOM     30  C   UNL     1       3.954 -10.979   3.371  0.00  0.00    +0.000 A 
ENDBRANCH  24  28
ENDBRANCH  23  24
ENDBRANCH   1  23
BRANCH   5  31
ATOM     31  C   UNL     1       0.060  -4.277  -0.021  0.00  0.00    +0.020 C 
BRANCH  31  32
ATOM     32  C   UNL     1       0.040  -2.770  -0.013  0.00  0.00    -0.049 A 
ATOM     33  C   UNL     1       0.042  -2.087   1.189  0.00  0.00    +0.007 A 
ATOM     34  C   UNL     1       0.023  -0.705   1.199  0.00  0.00    +0.045 A 
ATOM     35  C   UNL     1       0.002  -0.004   0.002  0.00  0.00    +0.117 A 
ATOM     36  C   UNL     1      -0.006  -0.692  -1.202  0.00  0.00    +0.045 A 
ATOM     37  C   UNL     1       0.019  -2.074  -1.207  0.00  0.00    +0.007 A 
BRANCH  35  38
ATOM     38  O   UNL     1      -0.016   1.355   0.009  0.00  0.00    -0.507 OA
ATOM     39  H   UNL     1       0.862   1.760   0.003  0.00  0.00    +0.292 HD
ENDBRANCH  35  38
ENDBRANCH  31  32
ENDBRANCH   5  31
TORSDOF 6
