REMARK  Name = ZINC63012598
REMARK  3 active torsions:
REMARK  status: ('A' for Active; 'I' for Inactive)
REMARK    1  A    between atoms: N_8  and  C_12
REMARK    2  A    between atoms: C_15  and  C_19
REMARK    3  A    between atoms: C_17  and  N_18
REMARK                            x       y       z     vdW  Elec       q    Type
REMARK                         _______ _______ _______ _____ _____    ______ ____
ROOT
ATOM      1  C   UNL     1      -0.017   1.377   0.010  0.00  0.00    +0.001 A 
ATOM      2  C   UNL     1       1.176   2.077   0.002  0.00  0.00    +0.004 A 
ATOM      3  C   UNL     1       2.375   1.400   0.003  0.00  0.00    +0.046 A 
ATOM      4  C   UNL     1       2.404   0.004   0.002  0.00  0.00    +0.125 A 
ATOM      5  C   UNL     1       1.205  -0.688  -0.018  0.00  0.00    +0.011 A 
ATOM      6  C   UNL     1       0.002  -0.004   0.002  0.00  0.00    +0.009 A 
ATOM      7  C   UNL     1       1.188  -2.189  -0.101  0.00  0.00    +0.144 C 
ATOM      8  N   UNL     1       2.119  -2.749   0.880  0.00  0.00    -0.321 N 
ATOM      9  C   UNL     1       3.504  -2.954   0.469  0.00  0.00    +0.146 C 
ATOM     10  C   UNL     1       3.836  -1.855  -0.562  0.00  0.00    +0.248 C 
ATOM     11  O   UNL     1       3.633  -0.580   0.046  0.00  0.00    -0.490 OA
ENDROOT
BRANCH   8  12
ATOM     12  C   UNL     1       1.695  -3.077   2.168  0.00  0.00    +0.051 A 
ATOM     13  C   UNL     1       1.214  -4.353   2.436  0.00  0.00    +0.026 A 
ATOM     14  C   UNL     1       0.794  -4.681   3.707  0.00  0.00    +0.021 A 
ATOM     15  C   UNL     1       0.851  -3.731   4.730  0.00  0.00    +0.054 A 
ATOM     16  C   UNL     1       1.334  -2.447   4.462  0.00  0.00    +0.043 A 
ATOM     17  C   UNL     1       1.759  -2.124   3.187  0.00  0.00    +0.047 A 
BRANCH  17  18
ATOM     18  N   UNL     1       2.250  -0.840   2.916  0.00  0.00    -0.357 N 
ATOM     19  H   UNL     1       2.545  -0.613   2.021  0.00  0.00    +0.142 HD
ATOM     20  H   UNL     1       2.294  -0.179   3.624  0.00  0.00    +0.142 HD
ENDBRANCH  17  18
BRANCH  15  21
ATOM     21  C   UNL     1       0.413  -4.072   6.050  0.00  0.00    +0.099 C 
ATOM     22  N   UNL     1       0.067  -4.343   7.098  0.00  0.00    -0.191 NA
ENDBRANCH  15  21
ENDBRANCH   8  12
TORSDOF 3
