REMARK  Name = ZINC62425412
REMARK  3 active torsions:
REMARK  status: ('A' for Active; 'I' for Inactive)
REMARK    1  A    between atoms: C_7  and  C_13
REMARK    2  A    between atoms: C_8  and  C_11
REMARK    3  A    between atoms: C_11  and  O_12
REMARK                            x       y       z     vdW  Elec       q    Type
REMARK                         _______ _______ _______ _____ _____    ______ ____
ROOT
ATOM      1  C   UNL     1       0.302   1.401   0.236  0.00  0.00    +0.121 A 
ATOM      2  C   UNL     1       0.958   1.861  -0.859  0.00  0.00    +0.068 A 
ATOM      3  S   UNL     1       1.702   0.352  -1.458  0.00  0.00    -0.056 S 
ATOM      4  C   UNL     1       1.110  -0.685  -0.272  0.00  0.00    +0.195 A 
ATOM      5  N   UNL     1       0.404   0.113   0.498  0.00  0.00    -0.230 NA
ATOM      6  N   UNL     1       1.319  -2.058  -0.139  0.00  0.00    -0.188 N 
ATOM      7  C   UNL     1       0.368  -3.013   0.072  0.00  0.00    +0.123 A 
ATOM      8  C   UNL     1       1.014  -4.196   0.137  0.00  0.00    +0.116 A 
ATOM      9  N   UNL     1       2.321  -3.988  -0.027  0.00  0.00    -0.131 NA
ATOM     10  N   UNL     1       2.547  -2.733  -0.200  0.00  0.00    -0.058 NA
ENDROOT
BRANCH   7  11
ATOM     11  C   UNL     1      -1.116  -2.790   0.206  0.00  0.00    +0.234 C 
ATOM     12 CL   UNL     1      -1.592  -1.330  -0.738  0.00  0.00    -0.077 Cl
ATOM     13 CL   UNL     1      -1.999  -4.229  -0.425  0.00  0.00    -0.077 Cl
ATOM     14 CL   UNL     1      -1.532  -2.544   1.944  0.00  0.00    -0.077 Cl
ENDBRANCH   7  11
BRANCH   8  15
ATOM     15  C   UNL     1       0.363  -5.537   0.360  0.00  0.00    +0.215 C 
BRANCH  15  16
ATOM     16  O   UNL     1       0.013  -6.112  -0.900  0.00  0.00    -0.389 OA
ATOM     17  H   UNL     1      -0.412  -6.979  -0.833  0.00  0.00    +0.210 HD
ENDBRANCH  15  16
ENDBRANCH   8  15
TORSDOF 3
