REMARK  Name = ZINC39566688
REMARK  8 active torsions:
REMARK  status: ('A' for Active; 'I' for Inactive)
REMARK    1  A    between atoms: C_1  and  C_2
REMARK    2  A    between atoms: C_2  and  C_4
REMARK    3  A    between atoms: C_2  and  N_11
REMARK    4  A    between atoms: C_12  and  C_14
REMARK    5  A    between atoms: C_14  and  C_16
REMARK    6  A    between atoms: C_14  and  O_17
REMARK    7  A    between atoms: O_17  and  C_18
REMARK    8  A    between atoms: C_18  and  C_20
REMARK                            x       y       z     vdW  Elec       q    Type
REMARK                         _______ _______ _______ _____ _____    ______ ____
ROOT
ATOM      1  C   UNL     1      -4.777  -2.323   2.776  0.00  0.00    +0.340 C 
ATOM      2  O   UNL     1      -5.184  -3.008   1.858  0.00  0.00    -0.245 OA
ENDROOT
BRANCH   1   3
ATOM      3  C   UNL     1      -5.271  -2.558   4.145  0.00  0.00    +0.060 A 
ATOM      4  C   UNL     1      -4.816  -1.774   5.210  0.00  0.00    +0.017 A 
ATOM      5  C   UNL     1      -5.268  -1.983   6.487  0.00  0.00    +0.025 A 
ATOM      6  C   UNL     1      -6.206  -2.996   6.767  0.00  0.00    +0.050 A 
ATOM      7  C   UNL     1      -6.645  -3.768   5.685  0.00  0.00    +0.038 A 
ATOM      8  C   UNL     1      -6.207  -3.568   4.402  0.00  0.00    +0.032 A 
ATOM      9  S   UNL     1      -7.789  -4.906   6.429  0.00  0.00    -0.051 S 
ATOM     10  C   UNL     1      -7.641  -4.332   8.106  0.00  0.00    +0.186 C 
ATOM     11  N   UNL     1      -8.262  -4.813   9.139  0.00  0.00    -0.110 NA
ATOM     12  S   UNL     1      -7.982  -4.134  10.631  0.00  0.00    +0.073 S 
ATOM     13  O   UNL     1      -7.943  -5.230  11.534  0.00  0.00    -0.151 OA
ATOM     14  O   UNL     1      -8.963  -3.115  10.762  0.00  0.00    -0.151 OA
ATOM     15  C   UNL     1      -6.326  -3.402  10.450  0.00  0.00    +0.212 C 
ATOM     16  C   UNL     1      -6.323  -2.505   9.211  0.00  0.00    +0.137 C 
ATOM     17  N   UNL     1      -6.737  -3.297   8.025  0.00  0.00    -0.276 N 
ENDBRANCH   1   3
BRANCH   1  18
ATOM     18  O   UNL     1      -3.877  -1.349   2.542  0.00  0.00    -0.449 OA
BRANCH  18  19
ATOM     19  C   UNL     1      -3.442  -1.177   1.191  0.00  0.00    +0.259 C 
ATOM     20  C   UNL     1      -4.360  -0.177   0.484  0.00  0.00    +0.062 C 
BRANCH  19  22
ATOM     21  N   UNL     1      -1.372  -0.511   0.012  0.00  0.00    -0.306 N 
ATOM     22  C   UNL     1      -2.029  -0.655   1.181  0.00  0.00    +0.254 C 
ATOM     23  O   UNL     1      -1.481  -0.365   2.224  0.00  0.00    -0.272 OA
ATOM     24  H   UNL     1      -1.810  -0.743  -0.822  0.00  0.00    +0.149 HD
BRANCH  21  26
ATOM     25  C   UNL     1      -0.019   1.526   0.010  0.00  0.00    +0.033 C 
ATOM     26  C   UNL     1       0.002  -0.004   0.002  0.00  0.00    +0.100 C 
BRANCH  26  27
ATOM     27  C   UNL     1       0.707  -0.490  -1.238  0.00  0.00    -0.027 A 
ATOM     28  C   UNL     1       0.037  -0.521  -2.446  0.00  0.00    +0.008 A 
ATOM     29  C   UNL     1       0.683  -0.966  -3.584  0.00  0.00    +0.038 A 
ATOM     30  C   UNL     1       2.002  -1.381  -3.513  0.00  0.00    +0.123 A 
ATOM     31  C   UNL     1       2.673  -1.349  -2.302  0.00  0.00    +0.038 A 
ATOM     32  C   UNL     1       2.026  -0.899  -1.167  0.00  0.00    +0.008 A 
ATOM     33  F   UNL     1       2.635  -1.817  -4.625  0.00  0.00    -0.205 F 
ENDBRANCH  26  27
ENDBRANCH  21  26
ENDBRANCH  19  22
ENDBRANCH  18  19
ENDBRANCH   1  18
TORSDOF 6
