REMARK  Name = ZINC63128363
REMARK  5 active torsions:
REMARK  status: ('A' for Active; 'I' for Inactive)
REMARK    1  A    between atoms: C_7  and  C_20
REMARK    2  A    between atoms: N_10  and  S_11
REMARK    3  A    between atoms: S_11  and  C_14
REMARK    4  A    between atoms: C_20  and  C_21
REMARK    5  A    between atoms: C_21  and  N_22
REMARK                            x       y       z     vdW  Elec       q    Type
REMARK                         _______ _______ _______ _____ _____    ______ ____
ROOT
ATOM      1  C   UNL     1      -0.540   1.187   0.124  0.00  0.00    +0.000 A 
ATOM      2  C   UNL     1       0.575   1.982   0.319  0.00  0.00    +0.002 A 
ATOM      3  C   UNL     1       1.825   1.411   0.424  0.00  0.00    +0.025 A 
ATOM      4  C   UNL     1       1.976   0.025   0.335  0.00  0.00    +0.055 A 
ATOM      5  C   UNL     1       0.852  -0.763   0.140  0.00  0.00    -0.020 A 
ATOM      6  C   UNL     1      -0.399  -0.185   0.035  0.00  0.00    +0.006 A 
ATOM      7  C   UNL     1       1.284  -2.211   0.081  0.00  0.00    +0.038 C 
ATOM      8  C   UNL     1       2.810  -2.166   0.267  0.00  0.00    +0.139 C 
ATOM      9  N   UNL     1       3.137  -0.745   0.415  0.00  0.00    -0.202 N 
ENDROOT
BRANCH   9  10
ATOM     10  S   UNL     1       4.662  -0.141   0.643  0.00  0.00    +0.081 S 
ATOM     11  O   UNL     1       5.564  -1.107   0.121  0.00  0.00    -0.149 OA
ATOM     12  O   UNL     1       4.638   1.204   0.187  0.00  0.00    -0.149 OA
BRANCH  10  13
ATOM     13  C   UNL     1       4.943  -0.079   2.382  0.00  0.00    +0.147 A 
ATOM     14  C   UNL     1       5.475  -1.023   3.195  0.00  0.00    +0.038 A 
ATOM     15  C   UNL     1       5.602  -0.753   4.544  0.00  0.00    +0.025 A 
ATOM     16  C   UNL     1       5.190   0.451   5.015  0.00  0.00    +0.057 A 
ATOM     17  S   UNL     1       4.608   1.249   3.528  0.00  0.00    -0.061 S 
ATOM     18 BR   UNL     1       5.228   1.114   6.785  0.00  0.00    -0.043 Br
ENDBRANCH  10  13
ENDBRANCH   9  10
BRANCH   7  19
ATOM     19  C   UNL     1       0.927  -2.819  -1.276  0.00  0.00    -0.010 C 
BRANCH  19  20
ATOM     20  C   UNL     1       1.248  -4.315  -1.264  0.00  0.00    -0.086 C 
BRANCH  20  21
ATOM     21  N   UNL     1       0.793  -4.923  -2.522  0.00  0.00    +0.378 N 
ATOM     22  H   UNL     1      -0.203  -4.793  -2.618  0.00  0.00    -0.090 HD
ATOM     23  H   UNL     1       1.266  -4.484  -3.298  0.00  0.00    -0.090 HD
ATOM     24  H   UNL     1       1.004  -5.910  -2.514  0.00  0.00    -0.090 HD
ENDBRANCH  20  21
ENDBRANCH  19  20
ENDBRANCH   7  19
TORSDOF 5
