REMARK  Name = ZINC39711487
REMARK  11 active torsions:
REMARK  status: ('A' for Active; 'I' for Inactive)
REMARK    1  A    between atoms: C_1  and  C_2
REMARK    2  A    between atoms: C_2  and  O_3
REMARK    3  A    between atoms: O_3  and  C_4
REMARK    4  A    between atoms: C_11  and  C_16
REMARK    5  A    between atoms: C_16  and  C_18
REMARK    6  A    between atoms: C_16  and  N_28
REMARK    7  A    between atoms: N_23  and  C_24
REMARK    8  A    between atoms: C_24  and  C_25
REMARK    9  A    between atoms: C_24  and  C_26
REMARK   10  A    between atoms: C_24  and  C_27
REMARK   11  A    between atoms: N_31  and  C_34
REMARK                            x       y       z     vdW  Elec       q    Type
REMARK                         _______ _______ _______ _____ _____    ______ ____
ROOT
ATOM      1  C   UNL     1       3.677  -6.238   3.686  0.00  0.00    -0.009 C 
ENDROOT
BRANCH   1   9
ATOM      2  C   UNL     1       1.402  -1.342   1.462  0.00  0.00    +0.121 A 
ATOM      3  C   UNL     1       0.601  -2.065   0.570  0.00  0.00    +0.047 A 
ATOM      4  C   UNL     1       0.420  -3.407   0.671  0.00  0.00    +0.027 A 
ATOM      5  C   UNL     1       1.044  -4.138   1.699  0.00  0.00    +0.041 A 
ATOM      6  N   UNL     1       0.858  -5.455   1.787  0.00  0.00    -0.285 N 
ATOM      7  C   UNL     1       1.413  -6.202   2.726  0.00  0.00    +0.223 C 
ATOM      8  O   UNL     1       1.206  -7.401   2.754  0.00  0.00    -0.275 OA
ATOM      9  C   UNL     1       2.307  -5.561   3.764  0.00  0.00    +0.088 C 
ATOM     10  C   UNL     1       2.522  -4.064   3.669  0.00  0.00    -0.006 C 
ATOM     11  C   UNL     1       1.894  -3.405   2.654  0.00  0.00    -0.004 A 
ATOM     12  C   UNL     1       2.053  -1.960   2.487  0.00  0.00    +0.055 A 
ATOM     13  H   UNL     1       0.288  -5.885   1.130  0.00  0.00    +0.155 HD
BRANCH   2  14
ATOM     14  O   UNL     1       1.537   0.000   1.299  0.00  0.00    -0.492 OA
BRANCH  14  16
ATOM     15  C   UNL     1       1.105   2.101   0.186  0.00  0.00    +0.048 C 
ATOM     16  C   UNL     1       0.832   0.596   0.208  0.00  0.00    +0.225 C 
ENDBRANCH  14  16
ENDBRANCH   2  14
ENDBRANCH   1   9
BRANCH   1  17
ATOM     17  N   UNL     1       3.527  -7.677   3.937  0.00  0.00    +0.387 N 
ATOM     18  C   UNL     1       2.746  -7.880   5.164  0.00  0.00    -0.059 C 
ATOM     19  C   UNL     1       2.491  -9.377   5.365  0.00  0.00    +0.086 C 
ATOM     20  N   UNL     1       3.785 -10.077   5.347  0.00  0.00    -0.331 N 
ATOM     21  C   UNL     1       4.705  -9.805   4.231  0.00  0.00    +0.086 C 
ATOM     22  C   UNL     1       4.855  -8.287   4.083  0.00  0.00    -0.059 C 
ATOM     23  H   UNL     1       3.046  -8.105   3.160  0.00  0.00    -0.081 HD
BRANCH  20  24
ATOM     24  C   UNL     1       4.132 -10.974   6.362  0.00  0.00    +0.065 A 
ATOM     25  C   UNL     1       3.815 -12.320   6.239  0.00  0.00    +0.026 A 
ATOM     26  C   UNL     1       4.159 -13.204   7.243  0.00  0.00    +0.002 A 
ATOM     27  C   UNL     1       4.818 -12.750   8.371  0.00  0.00    +0.003 A 
ATOM     28  C   UNL     1       5.136 -11.410   8.498  0.00  0.00    +0.040 A 
ATOM     29  C   UNL     1       4.800 -10.521   7.494  0.00  0.00    +0.144 A 
ATOM     30  F   UNL     1       5.115  -9.213   7.616  0.00  0.00    -0.204 F 
ENDBRANCH  20  24
ENDBRANCH   1  17
BRANCH   1  31
ATOM     31  C   UNL     1       4.273  -6.022   2.294  0.00  0.00    +0.205 C 
ATOM     32  N   UNL     1       3.566  -6.841   1.300  0.00  0.00    -0.152 NA
ATOM     33  N   UNL     1       4.365  -7.628   0.790  0.00  0.00    -0.070 NA
ATOM     34  N   UNL     1       5.656  -7.499   1.302  0.00  0.00    -0.179 N 
ATOM     35  N   UNL     1       5.669  -6.506   2.250  0.00  0.00    -0.183 NA
ATOM     36  H   UNL     1       6.424  -8.026   1.031  0.00  0.00    +0.191 HD
BRANCH  35  37
ATOM     37  C   UNL     1       6.590  -5.425   1.871  0.00  0.00    +0.035 C 
ATOM     38  C   UNL     1       6.474  -4.280   2.880  0.00  0.00    +0.029 C 
ATOM     39  C   UNL     1       8.024  -5.956   1.865  0.00  0.00    +0.029 C 
ATOM     40  C   UNL     1       6.229  -4.914   0.475  0.00  0.00    +0.029 C 
ENDBRANCH  35  37
ENDBRANCH   1  31
TORSDOF 7
