REMARK  Name = ZINC05336361
REMARK  5 active torsions:
REMARK  status: ('A' for Active; 'I' for Inactive)
REMARK    1  A    between atoms: C_1  and  C_2
REMARK    2  A    between atoms: C_7  and  N_12
REMARK    3  A    between atoms: N_12  and  C_13
REMARK    4  A    between atoms: C_15  and  C_30
REMARK    5  A    between atoms: N_17  and  C_20
REMARK                            x       y       z     vdW  Elec       q    Type
REMARK                         _______ _______ _______ _____ _____    ______ ____
ROOT
ATOM      1  C   UNL     1       0.094  -6.870  -0.598  0.00  0.00    +0.087 C 
ATOM      2  C   UNL     1       0.107  -8.089  -1.256  0.00  0.00    +0.075 C 
ATOM      3  C   UNL     1       0.123  -9.431  -0.655  0.00  0.00    +0.070 C 
ATOM      4  N   UNL     1       0.132 -10.294  -1.625  0.00  0.00    -0.176 NA
ATOM      5  N   UNL     1       0.124  -9.661  -2.867  0.00  0.00    -0.156 N 
ATOM      6  C   UNL     1       0.103  -8.322  -2.705  0.00  0.00    +0.273 C 
ATOM      7  O   UNL     1       0.086  -7.477  -3.584  0.00  0.00    -0.268 OA
ATOM      8  C   UNL     1       0.128  -9.747   0.819  0.00  0.00    +0.068 C 
ENDROOT
BRANCH   5   9
ATOM      9  C   UNL     1       0.131 -10.318  -4.100  0.00  0.00    +0.068 A 
ATOM     10  C   UNL     1      -0.844 -10.049  -5.037  0.00  0.00    +0.026 A 
ATOM     11  C   UNL     1      -0.846 -10.697  -6.268  0.00  0.00    +0.002 A 
ATOM     12  C   UNL     1       0.111 -11.613  -6.582  0.00  0.00    +0.008 A 
ATOM     13  C   UNL     1       1.123 -11.916  -5.655  0.00  0.00    -0.016 A 
ATOM     14  C   UNL     1       1.139 -11.258  -4.401  0.00  0.00    +0.005 A 
ATOM     15  C   UNL     1       2.153 -11.558  -3.478  0.00  0.00    +0.010 A 
ATOM     16  C   UNL     1       3.110 -12.472  -3.801  0.00  0.00    +0.001 A 
ATOM     17  C   UNL     1       3.098 -13.115  -5.037  0.00  0.00    +0.001 A 
ATOM     18  C   UNL     1       2.124 -12.857  -5.952  0.00  0.00    +0.008 A 
ENDBRANCH   5   9
BRANCH   1  19
ATOM     19  N   UNL     1       0.075  -5.721  -1.305  0.00  0.00    -0.320 N 
ATOM     20  H   UNL     1       0.070  -5.749  -2.275  0.00  0.00    +0.152 HD
BRANCH  19  27
ATOM     21  C   UNL     1      -0.018   1.503   0.010  0.00  0.00    +0.086 C 
ATOM     22  C   UNL     1       0.002  -0.004   0.002  0.00  0.00    +0.105 A 
ATOM     23  N   UNL     1       0.007  -0.778  -1.118  0.00  0.00    -0.342 N 
ATOM     24  H   UNL     1      -0.001  -0.462  -2.035  0.00  0.00    +0.167 HD
ATOM     25  C   UNL     1       0.028  -2.096  -0.706  0.00  0.00    +0.068 A 
ATOM     26  C   UNL     1       0.042  -3.314  -1.370  0.00  0.00    +0.051 A 
ATOM     27  C   UNL     1       0.061  -4.491  -0.641  0.00  0.00    +0.033 A 
ATOM     28  C   UNL     1       0.068  -4.455   0.753  0.00  0.00    +0.025 A 
ATOM     29  C   UNL     1       0.054  -3.263   1.417  0.00  0.00    +0.032 A 
ATOM     30  C   UNL     1       0.034  -2.063   0.699  0.00  0.00    +0.089 A 
ATOM     31  N   UNL     1       0.023  -0.755   1.064  0.00  0.00    -0.233 NA
ENDBRANCH  19  27
ENDBRANCH   1  19
TORSDOF 3
