REMARK  Name = ZINC67301194
REMARK  4 active torsions:
REMARK  status: ('A' for Active; 'I' for Inactive)
REMARK    1  A    between atoms: C_1  and  C_2
REMARK    2  A    between atoms: C_5  and  N_8
REMARK    3  A    between atoms: C_11  and  N_14
REMARK    4  A    between atoms: C_15  and  C_17
REMARK                            x       y       z     vdW  Elec       q    Type
REMARK                         _______ _______ _______ _____ _____    ______ ____
ROOT
ATOM      1  N   UNL     1      -4.172   0.124   7.383  0.00  0.00    -0.312 N 
ATOM      2  C   UNL     1      -4.084  -0.476   8.586  0.00  0.00    +0.216 C 
ATOM      3  O   UNL     1      -3.455  -1.507   8.705  0.00  0.00    -0.276 OA
ATOM      4  H   UNL     1      -4.675   0.948   7.288  0.00  0.00    +0.149 HD
ENDROOT
BRANCH   2   5
ATOM      5  C   UNL     1      -4.766   0.132   9.784  0.00  0.00    +0.075 C 
ATOM      6  C   UNL     1      -4.210   1.536  10.029  0.00  0.00    +0.015 C 
ATOM      7  C   UNL     1      -4.912   2.159  11.239  0.00  0.00    +0.036 C 
ATOM      8  C   UNL     1      -4.688   1.283  12.466  0.00  0.00    +0.112 C 
ATOM      9  C   UNL     1      -5.215  -0.128  12.228  0.00  0.00    +0.036 C 
ATOM     10  C   UNL     1      -4.511  -0.740  11.015  0.00  0.00    +0.015 C 
ATOM     11  C   UNL     1      -3.220   1.245  12.826  0.00  0.00    +0.244 C 
ATOM     12  O   UNL     1      -2.308   0.829  12.144  0.00  0.00    -0.273 OA
ATOM     13  N   UNL     1      -3.139   1.771  14.066  0.00  0.00    -0.238 N 
ATOM     14  C   UNL     1      -4.343   2.130  14.529  0.00  0.00    +0.307 C 
ATOM     15  O   UNL     1      -4.525   2.628  15.622  0.00  0.00    -0.252 OA
ATOM     16  N   UNL     1      -5.328   1.879  13.646  0.00  0.00    -0.285 N 
ATOM     17  H   UNL     1      -2.311   1.875  14.561  0.00  0.00    +0.159 HD
ATOM     18  H   UNL     1      -6.274   2.056  13.766  0.00  0.00    +0.151 HD
ENDBRANCH   2   5
BRANCH   1  22
ATOM     19  N   UNL     1      -2.097  -0.073   3.720  0.00  0.00    +0.382 N 
ATOM     20  C   UNL     1      -3.477  -0.575   3.724  0.00  0.00    -0.077 C 
ATOM     21  C   UNL     1      -4.221  -0.018   4.940  0.00  0.00    +0.003 C 
ATOM     22  C   UNL     1      -3.509  -0.468   6.218  0.00  0.00    +0.069 C 
ATOM     23  C   UNL     1      -2.051  -0.003   6.169  0.00  0.00    +0.003 C 
ATOM     24  C   UNL     1      -1.386  -0.560   4.908  0.00  0.00    -0.077 C 
ATOM     25  H   UNL     1      -2.108   0.936   3.726  0.00  0.00    -0.081 HD
BRANCH  19  30
ATOM     26  C   UNL     1      -0.019   1.526   0.010  0.00  0.00    +0.007 C 
ATOM     27  C   UNL     1       0.002  -0.004   0.002  0.00  0.00    -0.014 C 
ATOM     28  C   UNL     1      -1.433  -0.534   0.013  0.00  0.00    +0.002 C 
ATOM     29  C   UNL     1      -2.149  -0.040   1.272  0.00  0.00    -0.015 C 
ATOM     30  C   UNL     1      -1.409  -0.547   2.511  0.00  0.00    -0.069 C 
ATOM     31  C   UNL     1       0.026  -0.018   2.500  0.00  0.00    -0.015 C 
ATOM     32  C   UNL     1       0.742  -0.511   1.242  0.00  0.00    +0.002 C 
ENDBRANCH  19  30
ENDBRANCH   1  22
TORSDOF 3
