REMARK  Name = ZINC04944216
REMARK  4 active torsions:
REMARK  status: ('A' for Active; 'I' for Inactive)
REMARK    1  A    between atoms: C_1  and  C_2
REMARK    2  A    between atoms: C_2  and  S_3
REMARK    3  A    between atoms: S_3  and  C_4
REMARK    4  A    between atoms: C_16  and  C_18
REMARK                            x       y       z     vdW  Elec       q    Type
REMARK                         _______ _______ _______ _____ _____    ______ ____
ROOT
ATOM      1  C   UNL     1       0.792  -2.345  -1.354  0.00  0.00    +0.171 A 
ATOM      2  N   UNL     1       1.358  -3.108  -2.330  0.00  0.00    -0.302 N 
ATOM      3  H   UNL     1       1.787  -2.683  -3.089  0.00  0.00    +0.171 HD
ATOM      4  C   UNL     1       1.323  -4.455  -2.241  0.00  0.00    +0.258 A 
ATOM      5  O   UNL     1       1.826  -5.150  -3.109  0.00  0.00    -0.267 OA
ATOM      6  C   UNL     1       0.698  -5.037  -1.135  0.00  0.00    +0.065 A 
ATOM      7  C   UNL     1       0.137  -4.218  -0.169  0.00  0.00    +0.137 A 
ATOM      8  N   UNL     1       0.207  -2.890  -0.307  0.00  0.00    -0.208 NA
ATOM      9  N   UNL     1      -0.485  -4.777   0.935  0.00  0.00    -0.270 N 
ATOM     10  C   UNL     1      -0.881  -6.062   0.921  0.00  0.00    +0.219 C 
ATOM     11  O   UNL     1      -1.410  -6.536   1.905  0.00  0.00    -0.275 OA
ATOM     12  C   UNL     1      -0.676  -6.921  -0.298  0.00  0.00    +0.109 C 
ATOM     13  C   UNL     1       0.631  -6.533  -0.991  0.00  0.00    +0.068 C 
ATOM     14  H   UNL     1      -0.638  -4.235   1.725  0.00  0.00    +0.156 HD
ENDROOT
BRANCH  13  15
ATOM     15  C   UNL     1       1.798  -7.010  -0.165  0.00  0.00    -0.021 A 
ATOM     16  C   UNL     1       1.955  -6.561   1.133  0.00  0.00    +0.005 A 
ATOM     17  C   UNL     1       3.025  -6.999   1.891  0.00  0.00    +0.000 A 
ATOM     18  C   UNL     1       3.938  -7.886   1.352  0.00  0.00    +0.001 A 
ATOM     19  C   UNL     1       3.782  -8.336   0.054  0.00  0.00    +0.020 A 
ATOM     20  C   UNL     1       2.708  -7.902  -0.703  0.00  0.00    +0.045 A 
ATOM     21 CL   UNL     1       2.507  -8.472  -2.330  0.00  0.00    -0.083 Cl
ENDBRANCH  13  15
BRANCH   1  22
ATOM     22  S   UNL     1       0.851  -0.589  -1.490  0.00  0.00    -0.088 S 
BRANCH  22  24
ATOM     23  C   UNL     1      -0.019   1.526   0.010  0.00  0.00    +0.016 C 
ATOM     24  C   UNL     1       0.002  -0.004   0.002  0.00  0.00    +0.074 C 
ENDBRANCH  22  24
ENDBRANCH   1  22
TORSDOF 3
