REMARK  Name = ZINC63707981
REMARK  7 active torsions:
REMARK  status: ('A' for Active; 'I' for Inactive)
REMARK    1  A    between atoms: C_1  and  C_2
REMARK    2  A    between atoms: C_5  and  C_39
REMARK    3  A    between atoms: C_10  and  C_12
REMARK    4  A    between atoms: C_12  and  S_13
REMARK    5  A    between atoms: S_13  and  C_14
REMARK    6  A    between atoms: C_24  and  C_29
REMARK    7  A    between atoms: C_29  and  C_30
REMARK                            x       y       z     vdW  Elec       q    Type
REMARK                         _______ _______ _______ _____ _____    ______ ____
ROOT
ATOM      1  C   UNL     1       5.888  -2.465   1.683  0.00  0.00    +0.169 C 
ATOM      2  N   UNL     1       5.833  -1.161   1.638  0.00  0.00    -0.225 NA
ATOM      3  C   UNL     1       6.947  -0.388   1.691  0.00  0.00    +0.077 A 
ATOM      4  C   UNL     1       6.866   1.006   1.642  0.00  0.00    +0.028 A 
ATOM      5  C   UNL     1       8.018   1.758   1.698  0.00  0.00    +0.002 A 
ATOM      6  C   UNL     1       9.261   1.149   1.804  0.00  0.00    +0.001 A 
ATOM      7  C   UNL     1       9.364  -0.225   1.854  0.00  0.00    +0.013 A 
ATOM      8  C   UNL     1       8.212  -1.002   1.798  0.00  0.00    +0.041 A 
ATOM      9  C   UNL     1       8.273  -2.479   1.849  0.00  0.00    +0.139 C 
ATOM     10  N   UNL     1       9.297  -3.279   1.945  0.00  0.00    -0.255 NA
ATOM     11  C   UNL     1       8.792  -4.659   1.953  0.00  0.00    +0.198 C 
ATOM     12  C   UNL     1       7.291  -4.499   1.844  0.00  0.00    +0.252 C 
ATOM     13  O   UNL     1       6.459  -5.381   1.813  0.00  0.00    -0.272 OA
ATOM     14  N   UNL     1       7.072  -3.165   1.793  0.00  0.00    -0.200 N 
ENDROOT
BRANCH   1  15
ATOM     15  S   UNL     1       4.380  -3.372   1.607  0.00  0.00    -0.080 S 
BRANCH  15  16
ATOM     16  C   UNL     1       3.103  -2.090   1.470  0.00  0.00    +0.173 C 
BRANCH  16  24
ATOM     17  C   UNL     1      -0.019   1.526   0.010  0.00  0.00    +0.009 C 
ATOM     18  C   UNL     1       0.002  -0.004   0.002  0.00  0.00    +0.004 C 
ATOM     19  C   UNL     1      -1.433  -0.534   0.015  0.00  0.00    +0.009 C 
ATOM     20  C   UNL     1      -1.414  -2.064  -0.027  0.00  0.00    +0.004 C 
ATOM     21  C   UNL     1      -0.692  -2.596   1.215  0.00  0.00    +0.111 C 
ATOM     22  N   UNL     1       0.639  -1.977   1.288  0.00  0.00    -0.300 N 
ATOM     23  C   UNL     1       0.742  -0.512   1.244  0.00  0.00    +0.111 C 
ATOM     24  C   UNL     1       1.746  -2.740   1.395  0.00  0.00    +0.226 C 
ATOM     25  O   UNL     1       1.648  -3.948   1.431  0.00  0.00    -0.275 OA
ATOM     26  C   UNL     1      -2.850  -2.592  -0.049  0.00  0.00    +0.009 C 
ENDBRANCH  16  24
ENDBRANCH  15  16
ENDBRANCH   1  15
BRANCH  11  27
ATOM     27  C   UNL     1       9.341  -5.438   0.757  0.00  0.00    +0.069 C 
BRANCH  27  28
ATOM     28  C   UNL     1      10.831  -5.605   0.906  0.00  0.00    -0.039 C 
ATOM     29  C   UNL     1      11.482  -6.668   1.430  0.00  0.00    -0.001 A 
ATOM     30  C   UNL     1      11.015  -7.939   1.998  0.00  0.00    +0.010 A 
ATOM     31  C   UNL     1      11.926  -8.828   2.454  0.00  0.00    +0.001 A 
ATOM     32  C   UNL     1      13.302  -8.566   2.400  0.00  0.00    +0.002 A 
ATOM     33  C   UNL     1      13.808  -7.421   1.893  0.00  0.00    +0.026 A 
ATOM     34  C   UNL     1      12.940  -6.416   1.384  0.00  0.00    +0.043 A 
ATOM     35  N   UNL     1      13.181  -5.243   0.851  0.00  0.00    -0.380 N 
ATOM     36  C   UNL     1      11.902  -4.619   0.494  0.00  0.00    +0.144 C 
ATOM     37  H   UNL     1      14.059  -4.853   0.713  0.00  0.00    +0.160 HD
ENDBRANCH  27  28
ENDBRANCH  11  27
TORSDOF 5
