REMARK  Name = ZINC14459003
REMARK  8 active torsions:
REMARK  status: ('A' for Active; 'I' for Inactive)
REMARK    1  A    between atoms: C_1  and  O_2
REMARK    2  A    between atoms: O_2  and  C_3
REMARK    3  A    between atoms: C_6  and  O_28
REMARK    4  A    between atoms: C_16  and  C_19
REMARK    5  A    between atoms: C_22  and  O_27
REMARK    6  A    between atoms: C_23  and  O_25
REMARK    7  A    between atoms: O_25  and  C_26
REMARK    8  A    between atoms: O_28  and  C_29
REMARK                            x       y       z     vdW  Elec       q    Type
REMARK                         _______ _______ _______ _____ _____    ______ ____
ROOT
ATOM      1  C   UNL     1       8.807   4.921  -0.902  0.00  0.00    +0.126 A 
ATOM      2  C   UNL     1       8.884   6.202  -1.421  0.00  0.00    +0.049 A 
ATOM      3  C   UNL     1       7.734   6.855  -1.823  0.00  0.00    +0.051 A 
ATOM      4  C   UNL     1       6.509   6.224  -1.705  0.00  0.00    +0.141 A 
ATOM      5  C   UNL     1       6.428   4.930  -1.181  0.00  0.00    +0.077 A 
ATOM      6  C   UNL     1       7.577   4.278  -0.778  0.00  0.00    +0.026 A 
ATOM      7  C   UNL     1       7.563   2.892  -0.204  0.00  0.00    +0.052 C 
ATOM      8  C   UNL     1       7.849   2.926   1.280  0.00  0.00    -0.022 C 
ATOM      9  C   UNL     1       7.100   2.057   1.911  0.00  0.00    -0.030 C 
ATOM     10  C   UNL     1       6.212   1.311   0.934  0.00  0.00    +0.033 C 
ATOM     11  C   UNL     1       6.162   2.251  -0.303  0.00  0.00    +0.029 C 
ATOM     12  C   UNL     1       5.106   3.326  -0.034  0.00  0.00    +0.105 C 
ATOM     13  N   UNL     1       5.165   4.340  -1.087  0.00  0.00    -0.334 N 
ATOM     14  H   UNL     1       4.877   3.957  -1.975  0.00  0.00    +0.147 HD
ENDROOT
BRANCH  12  15
ATOM     15  C   UNL     1       3.738   2.693  -0.020  0.00  0.00    -0.023 A 
ATOM     16  C   UNL     1       3.098   2.410  -1.212  0.00  0.00    +0.009 A 
ATOM     17  C   UNL     1       1.843   1.830  -1.205  0.00  0.00    +0.049 A 
ATOM     18  C   UNL     1       1.224   1.533  -0.001  0.00  0.00    +0.158 A 
ATOM     19  C   UNL     1       1.866   1.824   1.198  0.00  0.00    +0.162 A 
ATOM     20  C   UNL     1       3.126   2.399   1.184  0.00  0.00    +0.054 A 
BRANCH  19  21
ATOM     21  O   UNL     1       1.260   1.539   2.382  0.00  0.00    -0.491 OA
ATOM     22  C   UNL     1       1.978   1.865   3.574  0.00  0.00    +0.277 C 
ENDBRANCH  19  21
BRANCH  18  23
ATOM     23  O   UNL     1      -0.011   0.963   0.007  0.00  0.00    -0.503 OA
ATOM     24  H   UNL     1       0.002  -0.004   0.002  0.00  0.00    +0.292 HD
ENDBRANCH  18  23
ENDBRANCH  12  15
BRANCH   1  26
ATOM     25  C   UNL     1      11.172   4.998  -0.660  0.00  0.00    +0.277 C 
ATOM     26  O   UNL     1       9.943   4.285  -0.508  0.00  0.00    -0.495 OA
ENDBRANCH   1  26
BRANCH   4  27
ATOM     27  O   UNL     1       5.377   6.866  -2.101  0.00  0.00    -0.493 OA
ATOM     28  C   UNL     1       5.529   8.186  -2.627  0.00  0.00    +0.277 C 
ENDBRANCH   4  27
TORSDOF 5
