REMARK  Name = ZINC39530667
REMARK  9 active torsions:
REMARK  status: ('A' for Active; 'I' for Inactive)
REMARK    1  A    between atoms: C_1  and  C_2
REMARK    2  A    between atoms: C_2  and  C_3
REMARK    3  A    between atoms: C_2  and  S_4
REMARK    4  A    between atoms: S_4  and  C_7
REMARK    5  A    between atoms: C_9  and  C_27
REMARK    6  A    between atoms: C_12  and  N_13
REMARK    7  A    between atoms: C_17  and  C_20
REMARK    8  A    between atoms: C_20  and  C_21
REMARK    9  A    between atoms: C_32  and  O_33
REMARK                            x       y       z     vdW  Elec       q    Type
REMARK                         _______ _______ _______ _____ _____    ______ ____
ROOT
ATOM      1  C   UNL     1      -0.090   0.028   2.628  0.00  0.00    +0.110 A 
ATOM      2  C   UNL     1      -0.663  -0.762   3.602  0.00  0.00    +0.037 A 
ATOM      3  C   UNL     1      -1.425  -0.178   4.613  0.00  0.00    -0.012 A 
ATOM      4  C   UNL     1      -1.605   1.204   4.636  0.00  0.00    +0.010 A 
ATOM      5  C   UNL     1      -1.030   1.990   3.661  0.00  0.00    +0.025 A 
ATOM      6  C   UNL     1      -0.267   1.406   2.657  0.00  0.00    +0.055 A 
ENDROOT
BRANCH   6   7
ATOM      7  N   UNL     1       0.319   2.204   1.673  0.00  0.00    -0.332 N 
ATOM      8  C   UNL     1      -0.350   2.426   0.381  0.00  0.00    +0.086 C 
ATOM      9  C   UNL     1      -0.383   3.932   0.103  0.00  0.00    -0.063 C 
ATOM     10  N   UNL     1       0.980   4.473   0.181  0.00  0.00    +0.383 N 
ATOM     11  C   UNL     1       1.496   4.335   1.548  0.00  0.00    -0.050 C 
ATOM     12  C   UNL     1       1.619   2.853   1.900  0.00  0.00    +0.089 C 
ATOM     13  H   UNL     1       1.578   3.968  -0.456  0.00  0.00    -0.085 HD
ATOM     14  H   UNL     1       0.968   5.449  -0.076  0.00  0.00    -0.085 HD
BRANCH  11  15
ATOM     15  C   UNL     1       2.870   5.001   1.645  0.00  0.00    +0.021 C 
BRANCH  15  16
ATOM     16  C   UNL     1       2.727   6.484   1.421  0.00  0.00    -0.049 A 
ATOM     17  C   UNL     1       2.817   7.002   0.142  0.00  0.00    +0.003 A 
ATOM     18  C   UNL     1       2.685   8.362  -0.063  0.00  0.00    +0.000 A 
ATOM     19  C   UNL     1       2.464   9.205   1.010  0.00  0.00    +0.000 A 
ATOM     20  C   UNL     1       2.373   8.688   2.288  0.00  0.00    +0.000 A 
ATOM     21  C   UNL     1       2.501   7.326   2.493  0.00  0.00    +0.003 A 
ENDBRANCH  15  16
ENDBRANCH  11  15
ENDBRANCH   6   7
BRANCH   3  22
ATOM     22  C   UNL     1      -2.043  -1.026   5.661  0.00  0.00    +0.024 A 
ATOM     23  C   UNL     1      -2.785  -2.150   5.304  0.00  0.00    +0.012 A 
ATOM     24  C   UNL     1      -3.359  -2.935   6.284  0.00  0.00    +0.001 A 
ATOM     25  C   UNL     1      -3.199  -2.611   7.620  0.00  0.00    +0.004 A 
ATOM     26  C   UNL     1      -2.464  -1.498   7.984  0.00  0.00    +0.046 A 
ATOM     27  C   UNL     1      -1.878  -0.704   7.011  0.00  0.00    +0.125 A 
BRANCH  27  28
ATOM     28  O   UNL     1      -1.151   0.386   7.369  0.00  0.00    -0.506 OA
ATOM     29  H   UNL     1      -1.671   1.198   7.443  0.00  0.00    +0.292 HD
ENDBRANCH  27  28
ENDBRANCH   3  22
BRANCH   1  30
ATOM     30  S   UNL     1       0.873  -0.710   1.350  0.00  0.00    +0.001 S 
ATOM     31  O   UNL     1       0.441  -0.072   0.156  0.00  0.00    -0.169 OA
ATOM     32  O   UNL     1       0.700  -2.109   1.527  0.00  0.00    -0.169 OA
BRANCH  30  34
ATOM     33  C   UNL     1       2.999  -0.851   3.065  0.00  0.00    +0.032 C 
ATOM     34  C   UNL     1       2.584  -0.239   1.725  0.00  0.00    +0.130 C 
ATOM     35  C   UNL     1       3.509  -0.755   0.621  0.00  0.00    +0.032 C 
ENDBRANCH  30  34
ENDBRANCH   1  30
TORSDOF 7
