REMARK  Name = ZINC66080005
REMARK  7 active torsions:
REMARK  status: ('A' for Active; 'I' for Inactive)
REMARK    1  A    between atoms: C_1  and  C_2
REMARK    2  A    between atoms: C_5  and  C_7
REMARK    3  A    between atoms: N_12  and  C_14
REMARK    4  A    between atoms: C_14  and  N_15
REMARK    5  A    between atoms: C_19  and  C_22
REMARK    6  A    between atoms: C_22  and  C_23
REMARK    7  A    between atoms: C_23  and  C_24
REMARK                            x       y       z     vdW  Elec       q    Type
REMARK                         _______ _______ _______ _____ _____    ______ ____
ROOT
ATOM      1  C   UNL     1      -0.371  -7.351  -0.048  0.00  0.00    +0.073 C 
ENDROOT
BRANCH   1   7
ATOM      2  C   UNL     1       1.039  -4.033  -0.024  0.00  0.00    +0.098 A 
ATOM      3  C   UNL     1       2.438  -4.255  -0.026  0.00  0.00    +0.036 A 
ATOM      4  C   UNL     1       2.887  -5.542  -0.035  0.00  0.00    +0.074 A 
ATOM      5  C   UNL     1       1.926  -6.578  -0.042  0.00  0.00    +0.266 A 
ATOM      6  O   UNL     1       2.282  -7.745  -0.050  0.00  0.00    -0.266 OA
ATOM      7  N   UNL     1       0.616  -6.269  -0.040  0.00  0.00    -0.246 N 
ATOM      8  N   UNL     1       0.208  -5.052  -0.026  0.00  0.00    -0.169 NA
BRANCH   2  13
ATOM      9  C   UNL     1      -0.018   1.503   0.010  0.00  0.00    +0.051 C 
ATOM     10  C   UNL     1       0.002  -0.004   0.002  0.00  0.00    -0.013 A 
ATOM     11  C   UNL     1      -1.042  -0.872   0.002  0.00  0.00    +0.011 A 
ATOM     12  C   UNL     1      -0.790  -2.226  -0.007  0.00  0.00    +0.018 A 
ATOM     13  C   UNL     1       0.512  -2.653  -0.015  0.00  0.00    +0.039 A 
ATOM     14  S   UNL     1       1.405  -1.107  -0.018  0.00  0.00    -0.092 S 
ENDBRANCH   2  13
ENDBRANCH   1   7
BRANCH   1  15
ATOM     15  N   UNL     1      -0.966  -7.481   1.289  0.00  0.00    +0.393 N 
ATOM     16  C   UNL     1       0.068  -7.894   2.245  0.00  0.00    -0.076 C 
ATOM     17  C   UNL     1      -0.528  -7.952   3.653  0.00  0.00    -0.018 C 
ATOM     18  C   UNL     1      -1.678  -8.963   3.674  0.00  0.00    -0.000 C 
ATOM     19  C   UNL     1      -2.715  -8.564   2.620  0.00  0.00    -0.027 C 
ATOM     20  C   UNL     1      -2.038  -8.483   1.250  0.00  0.00    -0.073 C 
ATOM     21  H   UNL     1      -1.349  -6.591   1.573  0.00  0.00    -0.079 HD
BRANCH  19  22
ATOM     22  C   UNL     1      -3.831  -9.610   2.579  0.00  0.00    +0.011 C 
BRANCH  22  23
ATOM     23  C   UNL     1      -4.584  -9.605   3.911  0.00  0.00    +0.096 C 
BRANCH  23  24
ATOM     24  C   UNL     1      -5.683 -10.635   3.870  0.00  0.00    +0.210 C 
ATOM     25  O   UNL     1      -5.848 -11.307   2.874  0.00  0.00    -0.276 OA
ATOM     26  N   UNL     1      -6.483 -10.810   4.941  0.00  0.00    -0.329 N 
ATOM     27  H   UNL     1      -6.352 -10.273   5.737  0.00  0.00    +0.145 HD
ATOM     28  H   UNL     1      -7.191 -11.473   4.914  0.00  0.00    +0.145 HD
ENDBRANCH  23  24
ENDBRANCH  22  23
ENDBRANCH  19  22
ENDBRANCH   1  15
TORSDOF 6
