REMARK  Name = ZINC08924259
REMARK  7 active torsions:
REMARK  status: ('A' for Active; 'I' for Inactive)
REMARK    1  A    between atoms: C_7  and  S_18
REMARK    2  A    between atoms: C_8  and  C_11
REMARK    3  A    between atoms: S_18  and  C_19
REMARK    4  A    between atoms: C_19  and  C_20
REMARK    5  A    between atoms: C_20  and  N_21
REMARK    6  A    between atoms: C_22  and  C_24
REMARK    7  A    between atoms: C_28  and  N_30
REMARK                            x       y       z     vdW  Elec       q    Type
REMARK                         _______ _______ _______ _____ _____    ______ ____
ROOT
ATOM      1  C   UNL     1       5.784  10.721  -3.422  0.00  0.00    +0.001 A 
ATOM      2  C   UNL     1       7.050  11.052  -2.959  0.00  0.00    +0.002 A 
ATOM      3  C   UNL     1       7.311  11.110  -1.607  0.00  0.00    +0.026 A 
ATOM      4  C   UNL     1       6.297  10.835  -0.695  0.00  0.00    +0.048 A 
ATOM      5  C   UNL     1       5.016  10.500  -1.169  0.00  0.00    +0.014 A 
ATOM      6  C   UNL     1       4.774  10.447  -2.545  0.00  0.00    +0.011 A 
ATOM      7  C   UNL     1       4.182  10.270   0.015  0.00  0.00    +0.041 A 
ATOM      8  C   UNL     1       4.976  10.477   1.102  0.00  0.00    +0.061 A 
ATOM      9  N   UNL     1       6.251  10.812   0.682  0.00  0.00    -0.353 N 
ATOM     10  H   UNL     1       6.998  11.005   1.269  0.00  0.00    +0.166 HD
ENDROOT
BRANCH   8  11
ATOM     11  C   UNL     1       4.543  10.359   2.509  0.00  0.00    -0.001 A 
ATOM     12  C   UNL     1       3.336  10.927   2.921  0.00  0.00    +0.011 A 
ATOM     13  C   UNL     1       2.935  10.808   4.236  0.00  0.00    +0.016 A 
ATOM     14  C   UNL     1       3.733  10.138   5.148  0.00  0.00    +0.018 A 
ATOM     15  C   UNL     1       4.934   9.578   4.747  0.00  0.00    +0.016 A 
ATOM     16  C   UNL     1       5.343   9.685   3.434  0.00  0.00    +0.011 A 
ATOM     17 BR   UNL     1       3.179   9.987   6.950  0.00  0.00    -0.050 Br
ENDBRANCH   8  11
BRANCH   7  18
ATOM     18  S   UNL     1       2.479   9.821   0.028  0.00  0.00    -0.121 S 
BRANCH  18  19
ATOM     19  C   UNL     1       2.503   8.007   0.019  0.00  0.00    +0.093 C 
BRANCH  19  20
ATOM     20  C   UNL     1       1.068   7.478   0.030  0.00  0.00    +0.115 C 
BRANCH  20  21
ATOM     21  N   UNL     1       1.088   6.013   0.022  0.00  0.00    -0.311 N 
ATOM     22  C   UNL     1      -0.070   5.323   0.029  0.00  0.00    +0.244 C 
ATOM     23  O   UNL     1      -1.131   5.916   0.042  0.00  0.00    -0.270 OA
ATOM     24  H   UNL     1       1.934   5.539   0.012  0.00  0.00    +0.149 HD
BRANCH  22  25
ATOM     25  C   UNL     1      -0.050   3.845   0.022  0.00  0.00    +0.039 A 
ATOM     26  C   UNL     1       1.166   3.160   0.007  0.00  0.00    +0.013 A 
ATOM     27  C   UNL     1       1.178   1.781   0.000  0.00  0.00    +0.003 A 
ATOM     28  C   UNL     1      -0.013   1.076   0.008  0.00  0.00    +0.033 A 
ATOM     29  C   UNL     1      -1.222   1.748   0.017  0.00  0.00    +0.127 A 
ATOM     30  C   UNL     1      -1.247   3.128   0.030  0.00  0.00    +0.045 A 
BRANCH  29  31
ATOM     31  N   UNL     1      -2.490   0.986   0.020  0.00  0.00    +0.056 N 
ATOM     32  O   UNL     1      -2.469  -0.232   0.013  0.00  0.00    -0.126 OA
ATOM     33  O   UNL     1      -3.556   1.576   0.028  0.00  0.00    -0.126 OA
ENDBRANCH  29  31
ENDBRANCH  22  25
ENDBRANCH  20  21
ENDBRANCH  19  20
ENDBRANCH  18  19
ENDBRANCH   7  18
TORSDOF 7
