REMARK  Name = ZINC22110971
REMARK  12 active torsions:
REMARK  status: ('A' for Active; 'I' for Inactive)
REMARK    1  A    between atoms: C_1  and  C_2
REMARK    2  A    between atoms: C_2  and  O_3
REMARK    3  A    between atoms: O_3  and  C_4
REMARK    4  A    between atoms: C_6  and  C_20
REMARK    5  A    between atoms: C_9  and  O_10
REMARK    6  A    between atoms: O_10  and  C_11
REMARK    7  A    between atoms: C_11  and  C_12
REMARK    8  A    between atoms: C_20  and  N_21
REMARK    9  A    between atoms: N_21  and  N_22
REMARK   10  A    between atoms: C_23  and  C_28
REMARK   11  A    between atoms: C_33  and  O_34
REMARK   12  A    between atoms: O_34  and  C_35
REMARK                            x       y       z     vdW  Elec       q    Type
REMARK                         _______ _______ _______ _____ _____    ______ ____
ROOT
ATOM      1  C   UNL     1       5.069  -4.728  -0.617  0.00  0.00    +0.164 A 
ATOM      2  C   UNL     1       4.547  -3.443  -0.604  0.00  0.00    +0.054 A 
ATOM      3  C   UNL     1       3.364  -3.171  -1.265  0.00  0.00    -0.024 A 
ATOM      4  C   UNL     1       2.703  -4.174  -1.949  0.00  0.00    +0.029 A 
ATOM      5  C   UNL     1       3.221  -5.457  -1.970  0.00  0.00    +0.086 A 
ATOM      6  C   UNL     1       4.404  -5.738  -1.305  0.00  0.00    +0.181 A 
ATOM      7 CL   UNL     1       2.388  -6.715  -2.829  0.00  0.00    -0.080 Cl
ENDROOT
BRANCH   1   8
ATOM      8  O   UNL     1       6.230  -4.998   0.037  0.00  0.00    -0.489 OA
BRANCH   8  10
ATOM      9  C   UNL     1       8.141  -4.405   1.393  0.00  0.00    +0.048 C 
ATOM     10  C   UNL     1       6.857  -3.912   0.722  0.00  0.00    +0.226 C 
ENDBRANCH   8  10
ENDBRANCH   1   8
BRANCH   6  11
ATOM     11  O   UNL     1       4.915  -6.998  -1.325  0.00  0.00    -0.482 OA
BRANCH  11  12
ATOM     12  C   UNL     1       5.817  -7.316  -2.387  0.00  0.00    +0.264 C 
BRANCH  12  13
ATOM     13  C   UNL     1       6.276  -8.745  -2.245  0.00  0.00    -0.010 A 
ATOM     14  C   UNL     1       7.410  -9.037  -1.511  0.00  0.00    +0.010 A 
ATOM     15  C   UNL     1       7.829 -10.347  -1.377  0.00  0.00    +0.039 A 
ATOM     16  C   UNL     1       7.118 -11.366  -1.987  0.00  0.00    +0.123 A 
ATOM     17  C   UNL     1       5.985 -11.072  -2.727  0.00  0.00    +0.039 A 
ATOM     18  C   UNL     1       5.565  -9.762  -2.855  0.00  0.00    +0.010 A 
ATOM     19  F   UNL     1       7.529 -12.647  -1.861  0.00  0.00    -0.205 F 
ENDBRANCH  12  13
ENDBRANCH  11  12
ENDBRANCH   6  11
BRANCH   3  20
ATOM     20  C   UNL     1       2.796  -1.775  -1.244  0.00  0.00    +0.156 C 
BRANCH  20  21
ATOM     21  N   UNL     1       1.895  -1.630  -0.093  0.00  0.00    -0.277 N 
ATOM     22  H   UNL     1       1.732  -2.478   0.588  0.00  0.00    +0.167 HD
BRANCH  21  23
ATOM     23  N   UNL     1       1.362  -0.373  -0.044  0.00  0.00    -0.222 N 
ATOM     24  C   UNL     1       0.107   0.014  -0.455  0.00  0.00    +0.183 A 
ATOM     25  N   UNL     1       0.009   1.304  -0.230  0.00  0.00    -0.152 NA
ATOM     26  N   UNL     1       1.100   1.743   0.287  0.00  0.00    -0.253 N 
ATOM     27  C   UNL     1       1.963   0.761   0.423  0.00  0.00    +0.193 A 
ATOM     28  S   UNL     1       3.591   0.885   1.085  0.00  0.00    -0.010 S 
ATOM     29  H   UNL     1       1.198   2.808   0.543  0.00  0.00    +0.191 HD
BRANCH  24  30
ATOM     30  C   UNL     1      -0.933  -0.857  -1.040  0.00  0.00    +0.062 A 
ATOM     31  C   UNL     1      -0.609  -1.744  -2.067  0.00  0.00    +0.015 A 
ATOM     32  C   UNL     1      -1.585  -2.555  -2.609  0.00  0.00    +0.001 A 
ATOM     33  C   UNL     1      -2.885  -2.493  -2.138  0.00  0.00    +0.004 A 
ATOM     34  C   UNL     1      -3.218  -1.619  -1.120  0.00  0.00    +0.046 A 
ATOM     35  C   UNL     1      -2.248  -0.801  -0.562  0.00  0.00    +0.131 A 
BRANCH  35  36
ATOM     36  O   UNL     1      -2.573   0.054   0.442  0.00  0.00    -0.494 OA
ATOM     37  C   UNL     1      -3.934   0.056   0.877  0.00  0.00    +0.277 C 
ENDBRANCH  35  36
ENDBRANCH  24  30
ENDBRANCH  21  23
ENDBRANCH  20  21
ENDBRANCH   3  20
TORSDOF 10
