REMARK  Name = ZINC06022899
REMARK  11 active torsions:
REMARK  status: ('A' for Active; 'I' for Inactive)
REMARK    1  A    between atoms: C_1  and  C_2
REMARK    2  A    between atoms: C_2  and  C_3
REMARK    3  A    between atoms: C_2  and  C_4
REMARK    4  A    between atoms: C_2  and  C_5
REMARK    5  A    between atoms: C_12  and  N_16
REMARK    6  A    between atoms: C_13  and  C_14
REMARK    7  A    between atoms: C_17  and  C_19
REMARK    8  A    between atoms: C_19  and  O_20
REMARK    9  A    between atoms: O_20  and  C_21
REMARK   10  A    between atoms: C_21  and  C_23
REMARK   11  A    between atoms: C_28  and  N_29
REMARK                            x       y       z     vdW  Elec       q    Type
REMARK                         _______ _______ _______ _____ _____    ______ ____
ROOT
ATOM      1  N   UNL     1       1.524  -1.985   0.100  0.00  0.00    -0.276 N 
ATOM      2  C   UNL     1       2.803  -2.411   0.070  0.00  0.00    +0.255 C 
ATOM      3  O   UNL     1       3.710  -1.606   0.078  0.00  0.00    -0.272 OA
ATOM      4  H   UNL     1       0.799  -2.629   0.093  0.00  0.00    +0.155 HD
ENDROOT
BRANCH   1  11
ATOM      5  C   UNL     1       0.205   4.268  -0.089  0.00  0.00    -0.000 C 
ATOM      6  C   UNL     1      -0.939   3.690   0.750  0.00  0.00    +0.009 C 
ATOM      7  C   UNL     1      -1.285   2.283   0.265  0.00  0.00    +0.037 C 
ATOM      8  C   UNL     1      -0.009   1.452   0.217  0.00  0.00    -0.018 A 
ATOM      9  C   UNL     1       1.207   2.042   0.215  0.00  0.00    -0.004 A 
ATOM     10  S   UNL     1       2.361   0.701   0.162  0.00  0.00    -0.077 S 
ATOM     11  C   UNL     1       1.246  -0.626   0.141  0.00  0.00    +0.090 A 
ATOM     12  C   UNL     1       0.009  -0.000   0.176  0.00  0.00    +0.084 A 
ATOM     13  C   UNL     1       1.497   3.511   0.250  0.00  0.00    +0.047 C 
BRANCH   5  15
ATOM     14  C   UNL     1       1.534   6.323  -0.591  0.00  0.00    +0.011 C 
ATOM     15  C   UNL     1       0.380   5.753   0.235  0.00  0.00    -0.035 C 
ATOM     16  C   UNL     1      -0.909   6.504  -0.103  0.00  0.00    +0.011 C 
ATOM     17  C   UNL     1       0.690   5.916   1.725  0.00  0.00    +0.011 C 
ENDBRANCH   5  15
BRANCH  12  18
ATOM     18  C   UNL     1      -1.206  -0.758   0.172  0.00  0.00    +0.102 C 
ATOM     19  N   UNL     1      -2.170  -1.359   0.169  0.00  0.00    -0.191 NA
ENDBRANCH  12  18
ENDBRANCH   1  11
BRANCH   2  20
ATOM     20  C   UNL     1       3.105  -3.887   0.025  0.00  0.00    +0.328 C 
BRANCH  20  21
ATOM     21  O   UNL     1       4.543  -4.086  -0.002  0.00  0.00    -0.452 OA
BRANCH  21  22
ATOM     22  C   UNL     1       4.983  -5.359  -0.043  0.00  0.00    +0.341 C 
ATOM     23  O   UNL     1       4.188  -6.277  -0.056  0.00  0.00    -0.245 OA
BRANCH  22  24
ATOM     24  C   UNL     1       6.429  -5.637  -0.072  0.00  0.00    +0.080 A 
ATOM     25  C   UNL     1       7.346  -4.587  -0.181  0.00  0.00    +0.017 A 
ATOM     26  C   UNL     1       8.697  -4.854  -0.201  0.00  0.00    +0.001 A 
ATOM     27  C   UNL     1       9.155  -6.160  -0.126  0.00  0.00    +0.002 A 
ATOM     28  C   UNL     1       8.263  -7.208  -0.024  0.00  0.00    +0.023 A 
ATOM     29  C   UNL     1       6.896  -6.959   0.004  0.00  0.00    +0.039 A 
BRANCH  29  30
ATOM     30  N   UNL     1       5.997  -8.012   0.106  0.00  0.00    -0.357 N 
ATOM     31  H   UNL     1       5.044  -7.844   0.043  0.00  0.00    +0.142 HD
ATOM     32  H   UNL     1       6.322  -8.916   0.240  0.00  0.00    +0.142 HD
ENDBRANCH  29  30
ENDBRANCH  22  24
ENDBRANCH  21  22
ENDBRANCH  20  21
ENDBRANCH   2  20
TORSDOF 8
