REMARK  Name = ZINC28632086
REMARK  10 active torsions:
REMARK  status: ('A' for Active; 'I' for Inactive)
REMARK    1  A    between atoms: C_1  and  C_2
REMARK    2  A    between atoms: C_2  and  O_3
REMARK    3  A    between atoms: O_3  and  C_4
REMARK    4  A    between atoms: C_4  and  C_6
REMARK    5  A    between atoms: C_7  and  C_22
REMARK    6  A    between atoms: C_12  and  C_14
REMARK    7  A    between atoms: C_17  and  C_21
REMARK    8  A    between atoms: C_19  and  C_20
REMARK    9  A    between atoms: C_22  and  N_23
REMARK   10  A    between atoms: C_26  and  C_29
REMARK                            x       y       z     vdW  Elec       q    Type
REMARK                         _______ _______ _______ _____ _____    ______ ____
ROOT
ATOM      1  C   UNL     1      -1.493   4.169   2.250  0.00  0.00    +0.076 C 
ATOM      2  C   UNL     1      -1.568   5.508   2.408  0.00  0.00    +0.008 C 
ATOM      3  N   UNL     1      -2.091   6.055   3.545  0.00  0.00    -0.274 N 
ATOM      4  C   UNL     1      -2.549   5.332   4.574  0.00  0.00    +0.304 C 
ATOM      5  O   UNL     1      -2.993   5.909   5.548  0.00  0.00    -0.252 OA
ATOM      6  N   UNL     1      -2.536   3.984   4.566  0.00  0.00    -0.288 N 
ATOM      7  C   UNL     1      -1.996   3.296   3.381  0.00  0.00    +0.144 C 
ATOM      8  H   UNL     1      -2.152   7.148   3.652  0.00  0.00    +0.156 HD
ATOM      9  H   UNL     1      -2.915   3.399   5.417  0.00  0.00    +0.151 HD
ENDROOT
BRANCH   7  10
ATOM     10  C   UNL     1      -0.858   2.418   3.833  0.00  0.00    -0.020 A 
ATOM     11  C   UNL     1      -0.042   2.824   4.873  0.00  0.00    +0.006 A 
ATOM     12  C   UNL     1       1.002   2.019   5.287  0.00  0.00    +0.004 A 
ATOM     13  C   UNL     1       1.232   0.808   4.661  0.00  0.00    -0.050 A 
ATOM     14  C   UNL     1       0.416   0.402   3.622  0.00  0.00    +0.007 A 
ATOM     15  C   UNL     1      -0.631   1.205   3.211  0.00  0.00    -0.045 A 
ATOM     16  C   UNL     1      -1.524   0.760   2.081  0.00  0.00    +0.044 C 
ATOM     17  C   UNL     1       2.371  -0.069   5.112  0.00  0.00    +0.044 C 
ENDBRANCH   7  10
BRANCH   1  18
ATOM     18  C   UNL     1      -0.956   3.601   1.071  0.00  0.00    +0.339 C 
ATOM     19  O   UNL     1      -1.701   3.186   0.202  0.00  0.00    -0.245 OA
BRANCH  18  20
ATOM     20  O   UNL     1       0.381   3.520   0.908  0.00  0.00    -0.462 OA
BRANCH  20  22
ATOM     21  C   UNL     1       2.380   3.128  -0.391  0.00  0.00    +0.048 C 
ATOM     22  C   UNL     1       0.854   3.036  -0.350  0.00  0.00    +0.229 C 
ENDBRANCH  20  22
ENDBRANCH  18  20
ENDBRANCH   1  18
BRANCH   2  23
ATOM     23  C   UNL     1      -1.073   6.414   1.310  0.00  0.00    -0.026 C 
BRANCH  23  24
ATOM     24  N   UNL     1      -2.201   7.179   0.761  0.00  0.00    +0.383 N 
ATOM     25  C   UNL     1      -3.159   6.294   0.086  0.00  0.00    -0.078 C 
ATOM     26  C   UNL     1      -4.385   7.101  -0.344  0.00  0.00    -0.016 C 
ATOM     27  C   UNL     1      -3.946   8.223  -1.289  0.00  0.00    -0.018 C 
ATOM     28  C   UNL     1      -2.913   9.102  -0.579  0.00  0.00    -0.016 C 
ATOM     29  C   UNL     1      -1.729   8.237  -0.142  0.00  0.00    -0.078 C 
ATOM     30  C   UNL     1      -5.160   9.071  -1.675  0.00  0.00    +0.007 C 
ATOM     31  H   UNL     1      -2.724   7.662   1.599  0.00  0.00    -0.081 HD
ENDBRANCH  23  24
ENDBRANCH   2  23
TORSDOF 6
