REMARK  Name = ZINC35577714
REMARK  8 active torsions:
REMARK  status: ('A' for Active; 'I' for Inactive)
REMARK    1  A    between atoms: C_1  and  N_2
REMARK    2  A    between atoms: N_2  and  C_3
REMARK    3  A    between atoms: N_2  and  C_4
REMARK    4  A    between atoms: C_4  and  C_5
REMARK    5  A    between atoms: C_5  and  N_6
REMARK    6  A    between atoms: C_9  and  C_24
REMARK    7  A    between atoms: C_11  and  N_23
REMARK    8  A    between atoms: N_12  and  C_16
REMARK                            x       y       z     vdW  Elec       q    Type
REMARK                         _______ _______ _______ _____ _____    ______ ____
ROOT
ATOM      1  N   UNL     1      -3.322  -0.899  -1.405  0.00  0.00    -0.315 N 
ATOM      2  C   UNL     1      -4.244  -0.441  -2.329  0.00  0.00    +0.218 A 
ATOM      3  N   UNL     1      -5.498  -0.871  -2.232  0.00  0.00    -0.214 NA
ATOM      4  C   UNL     1      -6.445  -0.481  -3.076  0.00  0.00    +0.091 A 
ATOM      5  C   UNL     1      -6.094   0.420  -4.106  0.00  0.00    +0.086 A 
ATOM      6  C   UNL     1      -6.762   1.046  -5.152  0.00  0.00    +0.131 A 
ATOM      7  N   UNL     1      -5.865   1.809  -5.807  0.00  0.00    -0.216 N 
ATOM      8  N   UNL     1      -4.609   1.693  -5.201  0.00  0.00    -0.144 NA
ATOM      9  C   UNL     1      -4.692   0.872  -4.177  0.00  0.00    +0.189 A 
ATOM     10  N   UNL     1      -3.832   0.403  -3.253  0.00  0.00    -0.193 NA
ATOM     11  H   UNL     1      -3.598  -1.521  -0.713  0.00  0.00    +0.149 HD
ENDROOT
BRANCH   7  12
ATOM     12  C   UNL     1      -6.148   2.601  -6.927  0.00  0.00    +0.068 A 
ATOM     13  C   UNL     1      -7.083   2.175  -7.861  0.00  0.00    +0.030 A 
ATOM     14  C   UNL     1      -7.360   2.957  -8.965  0.00  0.00    +0.040 A 
ATOM     15  C   UNL     1      -6.708   4.166  -9.140  0.00  0.00    +0.124 A 
ATOM     16  C   UNL     1      -5.775   4.592  -8.210  0.00  0.00    +0.040 A 
ATOM     17  C   UNL     1      -5.499   3.816  -7.101  0.00  0.00    +0.030 A 
ATOM     18  F   UNL     1      -6.981   4.929 -10.221  0.00  0.00    -0.205 F 
ENDBRANCH   7  12
BRANCH   4  19
ATOM     19  C   UNL     1      -7.832  -0.979  -2.943  0.00  0.00    +0.036 A 
ATOM     20  C   UNL     1      -8.443  -1.647  -4.005  0.00  0.00    +0.013 A 
ATOM     21  C   UNL     1      -9.736  -2.108  -3.875  0.00  0.00    +0.001 A 
ATOM     22  C   UNL     1     -10.430  -1.911  -2.694  0.00  0.00    +0.003 A 
ATOM     23  C   UNL     1      -9.833  -1.250  -1.636  0.00  0.00    +0.039 A 
ATOM     24  C   UNL     1      -8.535  -0.787  -1.751  0.00  0.00    +0.133 A 
ATOM     25  F   UNL     1      -7.951  -0.146  -0.715  0.00  0.00    -0.205 F 
ENDBRANCH   4  19
BRANCH   6  26
ATOM     26  N   UNL     1      -8.101   0.908  -5.465  0.00  0.00    -0.342 N 
ATOM     27  H   UNL     1      -8.664   0.319  -4.939  0.00  0.00    +0.144 HD
ATOM     28  H   UNL     1      -8.479   1.402  -6.209  0.00  0.00    +0.144 HD
ENDBRANCH   6  26
BRANCH   1  29
ATOM     29  C   UNL     1      -1.931  -0.446  -1.471  0.00  0.00    +0.086 C 
BRANCH  29  30
ATOM     30  C   UNL     1      -1.128  -1.098  -0.343  0.00  0.00    -0.061 C 
BRANCH  30  32
ATOM     31  C   UNL     1       0.325   0.800  -0.144  0.00  0.00    -0.097 C 
ATOM     32  N   UNL     1       0.268  -0.643  -0.410  0.00  0.00    +0.377 N 
ATOM     33  C   UNL     1       1.064  -1.359   0.596  0.00  0.00    -0.097 C 
ATOM     34  H   UNL     1       0.639  -0.831  -1.329  0.00  0.00    -0.083 HD
ENDBRANCH  30  32
ENDBRANCH  29  30
ENDBRANCH   1  29
TORSDOF 6
