REMARK  Name = ZINC37503318
REMARK  5 active torsions:
REMARK  status: ('A' for Active; 'I' for Inactive)
REMARK    1  A    between atoms: C_1  and  C_2
REMARK    2  A    between atoms: C_2  and  C_4
REMARK    3  A    between atoms: C_2  and  N_14
REMARK    4  A    between atoms: C_7  and  N_10
REMARK    5  A    between atoms: C_15  and  C_17
REMARK                            x       y       z     vdW  Elec       q    Type
REMARK                         _______ _______ _______ _____ _____    ______ ____
ROOT
ATOM      1  C   UNL     1       0.738  -0.518   1.212  0.00  0.00    -0.027 A 
ATOM      2  C   UNL     1       2.110  -0.692   1.178  0.00  0.00    +0.007 A 
ATOM      3  C   UNL     1       2.778  -1.144   2.299  0.00  0.00    +0.023 A 
ATOM      4  C   UNL     1       2.072  -1.425   3.461  0.00  0.00    +0.035 A 
ATOM      5  C   UNL     1       0.694  -1.250   3.492  0.00  0.00    +0.023 A 
ATOM      6  C   UNL     1       0.032  -0.792   2.370  0.00  0.00    +0.007 A 
ENDROOT
BRANCH   4   7
ATOM      7  N   UNL     1       2.746  -1.884   4.598  0.00  0.00    -0.270 N 
ATOM      8  C   UNL     1       3.998  -1.458   4.857  0.00  0.00    +0.301 C 
ATOM      9  O   UNL     1       4.506  -0.603   4.157  0.00  0.00    -0.253 OA
ATOM     10  N   UNL     1       4.688  -1.980   5.891  0.00  0.00    -0.313 N 
ATOM     11  H   UNL     1       2.312  -2.509   5.200  0.00  0.00    +0.156 HD
ATOM     12  H   UNL     1       4.282  -2.662   6.449  0.00  0.00    +0.146 HD
ATOM     13  H   UNL     1       5.589  -1.673   6.077  0.00  0.00    +0.146 HD
ENDBRANCH   4   7
BRANCH   1  15
ATOM     14  C   UNL     1       0.169   1.493  -0.121  0.00  0.00    +0.033 C 
ATOM     15  C   UNL     1       0.012  -0.025  -0.012  0.00  0.00    +0.100 C 
BRANCH  15  16
ATOM     16  N   UNL     1       0.577  -0.661  -1.205  0.00  0.00    -0.305 N 
ATOM     17  C   UNL     1      -0.172  -0.793  -2.317  0.00  0.00    +0.245 C 
ATOM     18  O   UNL     1      -1.318  -0.384  -2.331  0.00  0.00    -0.270 OA
ATOM     19  H   UNL     1       1.490  -0.988  -1.194  0.00  0.00    +0.150 HD
BRANCH  17  20
ATOM     20  C   UNL     1       0.395  -1.432  -3.515  0.00  0.00    +0.045 A 
ATOM     21  C   UNL     1      -0.375  -1.586  -4.726  0.00  0.00    +0.036 A 
ATOM     22  C   UNL     1       0.261  -2.188  -5.752  0.00  0.00    +0.056 A 
ATOM     23  S   UNL     1       1.872  -2.536  -5.079  0.00  0.00    -0.089 S 
ATOM     24  C   UNL     1       1.687  -1.906  -3.535  0.00  0.00    +0.059 A 
ATOM     25 BR   UNL     1      -0.398  -2.571  -7.482  0.00  0.00    -0.043 Br
ENDBRANCH  17  20
ENDBRANCH  15  16
ENDBRANCH   1  15
TORSDOF 4
