REMARK  Name = ZINC01509118
REMARK  5 active torsions:
REMARK  status: ('A' for Active; 'I' for Inactive)
REMARK    1  A    between atoms: C_1  and  C_2
REMARK    2  A    between atoms: C_5  and  S_8
REMARK    3  A    between atoms: S_8  and  N_11
REMARK    4  A    between atoms: N_11  and  C_12
REMARK    5  A    between atoms: C_15  and  C_18
REMARK                            x       y       z     vdW  Elec       q    Type
REMARK                         _______ _______ _______ _____ _____    ______ ____
ROOT
ATOM      1  C   UNL     1       6.007   3.550  -0.012  0.00  0.00    +0.048 A 
ATOM      2  C   UNL     1       5.992   2.160   0.054  0.00  0.00    +0.025 A 
ATOM      3  C   UNL     1       4.792   1.484   0.085  0.00  0.00    +0.013 A 
ATOM      4  C   UNL     1       3.590   2.196   0.050  0.00  0.00    +0.017 A 
ATOM      5  C   UNL     1       3.609   3.591  -0.022  0.00  0.00    +0.013 A 
ATOM      6  C   UNL     1       4.812   4.261  -0.048  0.00  0.00    +0.025 A 
ENDROOT
BRANCH   4   7
ATOM      7  C   UNL     1       2.303   1.474   0.083  0.00  0.00    +0.141 A 
ATOM      8  N   UNL     1       1.145   2.204   0.048  0.00  0.00    -0.306 N 
ATOM      9  H   UNL     1       1.188   3.202   0.000  0.00  0.00    +0.170 HD
ATOM     10  C   UNL     1      -0.057   1.583   0.076  0.00  0.00    +0.259 A 
ATOM     11  O   UNL     1      -1.096   2.215   0.041  0.00  0.00    -0.267 OA
ATOM     12  C   UNL     1      -0.060   0.114   0.146  0.00  0.00    +0.065 A 
ATOM     13  C   UNL     1      -1.246  -0.618   0.179  0.00  0.00    +0.015 A 
ATOM     14  C   UNL     1      -1.190  -1.993   0.244  0.00  0.00    +0.001 A 
ATOM     15  C   UNL     1       0.033  -2.650   0.276  0.00  0.00    +0.002 A 
ATOM     16  C   UNL     1       1.207  -1.952   0.244  0.00  0.00    +0.028 A 
ATOM     17  C   UNL     1       1.184  -0.556   0.178  0.00  0.00    +0.078 A 
ATOM     18  N   UNL     1       2.321   0.167   0.145  0.00  0.00    -0.229 NA
ENDBRANCH   4   7
BRANCH   1  19
ATOM     19  N   UNL     1       7.221   4.230  -0.044  0.00  0.00    -0.216 N 
ATOM     20  H   UNL     1       7.928   3.989   0.576  0.00  0.00    +0.174 HD
BRANCH  19  21
ATOM     21  S   UNL     1       7.459   5.449  -1.139  0.00  0.00    +0.072 S 
ATOM     22  O   UNL     1       6.366   6.345  -0.993  0.00  0.00    -0.150 OA
ATOM     23  O   UNL     1       8.810   5.866  -0.995  0.00  0.00    -0.150 OA
BRANCH  21  28
ATOM     24  C   UNL     1       6.979   3.025  -6.643  0.00  0.00    +0.044 C 
ATOM     25  C   UNL     1       7.099   3.631  -5.268  0.00  0.00    -0.050 A 
ATOM     26  C   UNL     1       6.003   4.233  -4.680  0.00  0.00    +0.005 A 
ATOM     27  C   UNL     1       6.113   4.789  -3.419  0.00  0.00    +0.029 A 
ATOM     28  C   UNL     1       7.319   4.741  -2.746  0.00  0.00    +0.109 A 
ATOM     29  C   UNL     1       8.417   4.143  -3.336  0.00  0.00    +0.029 A 
ATOM     30  C   UNL     1       8.306   3.583  -4.595  0.00  0.00    +0.005 A 
ENDBRANCH  21  28
ENDBRANCH  19  21
ENDBRANCH   1  19
TORSDOF 4
