REMARK  Name = ZINC15770393
REMARK  6 active torsions:
REMARK  status: ('A' for Active; 'I' for Inactive)
REMARK    1  A    between atoms: N_9  and  C_10
REMARK    2  A    between atoms: C_10  and  C_12
REMARK    3  A    between atoms: C_10  and  N_73
REMARK    4  A    between atoms: C_15  and  C_18
REMARK    5  A    between atoms: C_18  and  N_20
REMARK    6  A    between atoms: C_18  and  N_71
REMARK                            x       y       z     vdW  Elec       q    Type
REMARK                         _______ _______ _______ _____ _____    ______ ____
ROOT
ATOM      1  C   UNL     1      -1.934   2.681   5.886  0.00  0.00    -0.040 A 
ATOM      2  C   UNL     1      -1.536   1.358   5.896  0.00  0.00    +0.004 A 
ATOM      3  C   UNL     1      -0.942   0.807   4.776  0.00  0.00    +0.004 A 
ATOM      4  C   UNL     1      -0.747   1.579   3.646  0.00  0.00    -0.040 A 
ATOM      5  C   UNL     1      -1.141   2.904   3.638  0.00  0.00    +0.004 A 
ATOM      6  C   UNL     1      -1.739   3.454   4.757  0.00  0.00    +0.004 A 
ENDROOT
BRANCH   1   7
ATOM      7  C   UNL     1      -2.582   3.282   7.107  0.00  0.00    +0.087 C 
BRANCH   7  16
ATOM      8  C   UNL     1      -7.252   1.183   8.343  0.00  0.00    +0.002 A 
ATOM      9  C   UNL     1      -6.007   0.780   8.811  0.00  0.00    +0.002 A 
ATOM     10  C   UNL     1      -4.871   1.421   8.404  0.00  0.00    +0.029 A 
ATOM     11  C   UNL     1      -4.958   2.484   7.512  0.00  0.00    +0.087 A 
ATOM     12  C   UNL     1      -6.214   2.897   7.035  0.00  0.00    +0.113 A 
ATOM     13  C   UNL     1      -7.364   2.224   7.468  0.00  0.00    +0.032 A 
ATOM     14  N   UNL     1      -6.013   3.933   6.197  0.00  0.00    -0.130 NA
ATOM     15  N   UNL     1      -4.758   4.205   6.115  0.00  0.00    -0.066 NA
ATOM     16  N   UNL     1      -4.035   3.315   6.923  0.00  0.00    -0.253 N 
ENDBRANCH   7  16
BRANCH   7  22
ATOM     17  C   UNL     1      -0.616   4.666   7.393  0.00  0.00    -0.075 C 
ATOM     18  C   UNL     1      -0.124   6.114   7.452  0.00  0.00    -0.019 C 
ATOM     19  C   UNL     1      -0.736   6.807   8.672  0.00  0.00    -0.004 C 
ATOM     20  C   UNL     1      -2.262   6.733   8.579  0.00  0.00    -0.019 C 
ATOM     21  C   UNL     1      -2.693   5.267   8.488  0.00  0.00    -0.075 C 
ATOM     22  N   UNL     1      -2.090   4.664   7.280  0.00  0.00    +0.397 N 
ATOM     23  H   UNL     1      -2.361   5.220   6.460  0.00  0.00    -0.078 HD
ENDBRANCH   7  22
ENDBRANCH   1   7
BRANCH   4  24
ATOM     24  C   UNL     1      -0.099   0.979   2.425  0.00  0.00    +0.087 C 
BRANCH  24  25
ATOM     25  N   UNL     1       1.270   1.484   2.300  0.00  0.00    -0.253 N 
ATOM     26  C   UNL     1       2.429   0.798   2.582  0.00  0.00    +0.087 A 
ATOM     27  C   UNL     1       2.705  -0.486   3.038  0.00  0.00    +0.029 A 
ATOM     28  C   UNL     1       4.001  -0.877   3.222  0.00  0.00    +0.002 A 
ATOM     29  C   UNL     1       5.048  -0.003   2.957  0.00  0.00    +0.002 A 
ATOM     30  C   UNL     1       4.803   1.262   2.509  0.00  0.00    +0.032 A 
ATOM     31  C   UNL     1       3.483   1.688   2.312  0.00  0.00    +0.113 A 
ATOM     32  N   UNL     1       2.942   2.848   1.888  0.00  0.00    -0.130 NA
ATOM     33  N   UNL     1       1.659   2.759   1.865  0.00  0.00    -0.066 NA
ENDBRANCH  24  25
BRANCH  24  39
ATOM     34  C   UNL     1      -2.212   0.757   1.263  0.00  0.00    -0.075 C 
ATOM     35  C   UNL     1      -3.031   1.280   0.082  0.00  0.00    -0.019 C 
ATOM     36  C   UNL     1      -2.324   0.914  -1.226  0.00  0.00    -0.004 C 
ATOM     37  C   UNL     1      -0.910   1.503  -1.214  0.00  0.00    -0.019 C 
ATOM     38  C   UNL     1      -0.152   0.973   0.005  0.00  0.00    -0.075 C 
ATOM     39  N   UNL     1      -0.871   1.380   1.231  0.00  0.00    +0.397 N 
ATOM     40  H   UNL     1      -0.978   2.401   1.230  0.00  0.00    -0.078 HD
ENDBRANCH  24  39
ENDBRANCH   4  24
TORSDOF 6
