REMARK  Name = ZINC12879087
REMARK  4 active torsions:
REMARK  status: ('A' for Active; 'I' for Inactive)
REMARK    1  A    between atoms: C_1  and  C_2
REMARK    2  A    between atoms: C_12  and  C_14
REMARK    3  A    between atoms: C_14  and  C_15
REMARK    4  A    between atoms: C_21  and  C_23
REMARK                            x       y       z     vdW  Elec       q    Type
REMARK                         _______ _______ _______ _____ _____    ______ ____
ROOT
ATOM      1  C   UNL     1       1.337  -0.238  -0.012  0.00  0.00    +0.059 A 
ATOM      2  C   UNL     1       0.002  -0.004   0.002  0.00  0.00    +0.072 A 
ATOM      3  S   UNL     1      -0.022   1.783   0.012  0.00  0.00    -0.060 S 
ATOM      4  C   UNL     1       1.696   2.032  -0.003  0.00  0.00    +0.165 A 
ATOM      5  N   UNL     1       2.156   0.796  -0.014  0.00  0.00    -0.229 NA
ATOM      6  N   UNL     1       2.405   3.228  -0.004  0.00  0.00    -0.263 N 
ATOM      7  C   UNL     1       1.745   4.402   0.009  0.00  0.00    +0.239 C 
ATOM      8  O   UNL     1       0.533   4.417   0.022  0.00  0.00    -0.273 OA
ATOM      9  H   UNL     1       3.375   3.216  -0.013  0.00  0.00    +0.157 HD
ENDROOT
BRANCH   7  10
ATOM     10  C   UNL     1       2.514   5.699   0.009  0.00  0.00    +0.160 C 
ATOM     11  C   UNL     1       2.989   6.038  -1.421  0.00  0.00    +0.041 C 
ATOM     12  C   UNL     1       1.844   6.947  -1.926  0.00  0.00    +0.098 C 
ATOM     13  C   UNL     1       1.243   7.523  -0.663  0.00  0.00    +0.214 C 
ATOM     14  O   UNL     1       0.511   8.489  -0.620  0.00  0.00    -0.276 OA
ATOM     15  N   UNL     1       1.639   6.808   0.405  0.00  0.00    -0.304 N 
ATOM     16  H   UNL     1       1.379   7.001   1.319  0.00  0.00    +0.149 HD
ENDBRANCH   7  10
BRANCH   1  17
ATOM     17  C   UNL     1       1.873  -1.646  -0.025  0.00  0.00    +0.152 C 
BRANCH  17  28
ATOM     18  C   UNL     1       3.606  -3.115  -3.861  0.00  0.00    +0.029 C 
ATOM     19  C   UNL     1       4.320  -3.296  -2.520  0.00  0.00    +0.083 C 
ATOM     20  C   UNL     1       4.734  -4.763  -2.326  0.00  0.00    +0.059 C 
ATOM     21  C   UNL     1       3.988  -5.209  -1.088  0.00  0.00    -0.024 A 
ATOM     22  C   UNL     1       3.962  -6.427  -0.436  0.00  0.00    +0.005 A 
ATOM     23  C   UNL     1       3.188  -6.591   0.698  0.00  0.00    +0.000 A 
ATOM     24  C   UNL     1       2.439  -5.532   1.178  0.00  0.00    +0.002 A 
ATOM     25  C   UNL     1       2.461  -4.316   0.530  0.00  0.00    +0.024 A 
ATOM     26  C   UNL     1       3.241  -4.143  -0.616  0.00  0.00    +0.040 A 
ATOM     27  N   UNL     1       3.404  -3.006  -1.413  0.00  0.00    -0.268 N 
ATOM     28  C   UNL     1       2.803  -1.819  -1.199  0.00  0.00    +0.226 C 
ATOM     29  O   UNL     1       3.009  -0.890  -1.951  0.00  0.00    -0.275 OA
ENDBRANCH  17  28
ENDBRANCH   1  17
TORSDOF 3
