REMARK  Name = ZINC40826640
REMARK  10 active torsions:
REMARK  status: ('A' for Active; 'I' for Inactive)
REMARK    1  A    between atoms: C_1  and  C_2
REMARK    2  A    between atoms: C_2  and  C_3
REMARK    3  A    between atoms: C_8  and  N_9
REMARK    4  A    between atoms: C_10  and  C_12
REMARK    5  A    between atoms: C_13  and  C_37
REMARK    6  A    between atoms: N_21  and  N_22
REMARK    7  A    between atoms: C_23  and  C_25
REMARK    8  A    between atoms: C_25  and  C_26
REMARK    9  A    between atoms: C_33  and  C_36
REMARK   10  A    between atoms: C_34  and  C_35
REMARK                            x       y       z     vdW  Elec       q    Type
REMARK                         _______ _______ _______ _____ _____    ______ ____
ROOT
ATOM      1  C   UNL     1      -1.470  -0.281  -4.829  0.00  0.00    +0.193 A 
ATOM      2  C   UNL     1      -2.009  -0.463  -6.072  0.00  0.00    +0.009 A 
ATOM      3  C   UNL     1      -1.017  -0.091  -6.987  0.00  0.00    +0.042 A 
ATOM      4  C   UNL     1       0.086   0.300  -6.264  0.00  0.00    +0.115 A 
ATOM      5  O   UNL     1      -0.208   0.186  -4.971  0.00  0.00    -0.454 OA
ATOM      6  C   UNL     1       1.366   0.767  -6.910  0.00  0.00    +0.075 C 
ATOM      7  C   UNL     1       1.423   0.259  -8.353  0.00  0.00    +0.014 C 
ATOM      8  C   UNL     1       0.149   0.645  -9.112  0.00  0.00    +0.058 C 
ATOM      9  C   UNL     1      -1.027  -0.074  -8.467  0.00  0.00    +0.070 C 
ATOM     10  N   UNL     1      -1.969  -0.632  -9.163  0.00  0.00    -0.184 NA
ATOM     11  C   UNL     1      -3.394  -0.963  -6.392  0.00  0.00    +0.048 C 
ENDROOT
BRANCH   1  13
ATOM     12  N   UNL     1      -1.506  -0.315  -2.391  0.00  0.00    -0.279 N 
ATOM     13  C   UNL     1      -2.148  -0.542  -3.554  0.00  0.00    +0.284 C 
ATOM     14  O   UNL     1      -3.290  -0.962  -3.547  0.00  0.00    -0.266 OA
ATOM     15  H   UNL     1      -0.621   0.081  -2.394  0.00  0.00    +0.155 HD
BRANCH  12  21
ATOM     16  C   UNL     1      -1.349  -1.121  -0.120  0.00  0.00    -0.026 A 
ATOM     17  C   UNL     1      -1.954  -1.447   1.078  0.00  0.00    +0.005 A 
ATOM     18  C   UNL     1      -3.323  -1.314   1.222  0.00  0.00    +0.000 A 
ATOM     19  C   UNL     1      -4.090  -0.853   0.168  0.00  0.00    +0.002 A 
ATOM     20  C   UNL     1      -3.491  -0.524  -1.032  0.00  0.00    +0.023 A 
ATOM     21  C   UNL     1      -2.116  -0.652  -1.179  0.00  0.00    +0.037 A 
BRANCH  16  23
ATOM     22  C   UNL     1       0.820   0.074   0.019  0.00  0.00    +0.009 C 
ATOM     23  C   UNL     1       0.143  -1.266  -0.276  0.00  0.00    +0.033 C 
ENDBRANCH  16  23
ENDBRANCH  12  21
ENDBRANCH   1  13
BRANCH  10  24
ATOM     24  N   UNL     1      -1.927  -0.585 -10.563  0.00  0.00    -0.206 N 
ATOM     25  C   UNL     1      -2.905  -1.165 -11.286  0.00  0.00    +0.237 C 
ATOM     26  O   UNL     1      -3.822  -1.727 -10.725  0.00  0.00    -0.274 OA
ATOM     27  H   UNL     1      -1.194  -0.136 -11.011  0.00  0.00    +0.177 HD
BRANCH  25  28
ATOM     28  C   UNL     1      -2.860  -1.114 -12.791  0.00  0.00    +0.136 C 
BRANCH  28  29
ATOM     29  C   UNL     1      -4.061  -1.830 -13.354  0.00  0.00    +0.007 A 
ATOM     30  C   UNL     1      -4.122  -3.109 -13.750  0.00  0.00    +0.200 A 
ATOM     31  O   UNL     1      -5.358  -3.397 -14.196  0.00  0.00    -0.462 OA
ATOM     32  C   UNL     1      -6.163  -2.318 -14.112  0.00  0.00    +0.138 A 
ATOM     33  C   UNL     1      -5.399  -1.269 -13.573  0.00  0.00    +0.024 A 
ATOM     34  C   UNL     1      -5.977  -0.018 -13.365  0.00  0.00    +0.012 A 
ATOM     35  C   UNL     1      -7.301   0.182 -13.688  0.00  0.00    +0.004 A 
ATOM     36  C   UNL     1      -8.056  -0.854 -14.217  0.00  0.00    -0.044 A 
ATOM     37  C   UNL     1      -7.495  -2.094 -14.435  0.00  0.00    -0.005 A 
ATOM     38  C   UNL     1      -8.330  -3.210 -15.009  0.00  0.00    +0.048 C 
ATOM     39  C   UNL     1      -9.504  -0.620 -14.566  0.00  0.00    +0.044 C 
ENDBRANCH  28  29
ENDBRANCH  25  28
ENDBRANCH  10  24
TORSDOF 6
