REMARK  Name = ZINC20758678
REMARK  7 active torsions:
REMARK  status: ('A' for Active; 'I' for Inactive)
REMARK    1  A    between atoms: C_1  and  C_2
REMARK    2  A    between atoms: C_2  and  C_3
REMARK    3  A    between atoms: C_3  and  C_5
REMARK    4  A    between atoms: C_3  and  S_12
REMARK    5  A    between atoms: S_12  and  C_13
REMARK    6  A    between atoms: C_17  and  C_21
REMARK    7  A    between atoms: N_24  and  C_25
REMARK                            x       y       z     vdW  Elec       q    Type
REMARK                         _______ _______ _______ _____ _____    ______ ____
ROOT
ATOM      1  C   UNL     1      -4.579   2.421   2.280  0.00  0.00    +0.178 A 
ATOM      2  N   UNL     1      -3.555   2.610   3.076  0.00  0.00    -0.201 NA
ATOM      3  C   UNL     1      -2.296   2.334   2.704  0.00  0.00    +0.187 A 
ATOM      4  C   UNL     1      -2.047   1.820   1.424  0.00  0.00    +0.082 A 
ATOM      5  C   UNL     1      -0.660   1.619   1.315  0.00  0.00    +0.046 A 
ATOM      6  N   UNL     1      -0.101   1.994   2.432  0.00  0.00    -0.279 N 
ATOM      7  N   UNL     1      -1.087   2.439   3.321  0.00  0.00    -0.153 NA
ATOM      8  H   UNL     1       0.991   1.929   2.550  0.00  0.00    +0.189 HD
ATOM      9  C   UNL     1       0.061   1.094   0.100  0.00  0.00    +0.066 C 
ATOM     10  C   UNL     1      -3.189   1.610   0.524  0.00  0.00    +0.124 A 
ATOM     11  N   UNL     1      -3.024   1.147  -0.690  0.00  0.00    -0.384 N 
ATOM     12  N   UNL     1      -4.449   1.919   1.014  0.00  0.00    -0.275 N 
ATOM     13  H   UNL     1      -3.895   0.998  -1.345  0.00  0.00    +0.157 HD
ATOM     14  H   UNL     1      -2.014   0.906  -1.054  0.00  0.00    +0.157 HD
ENDROOT
BRANCH  12  15
ATOM     15  C   UNL     1      -5.582   1.733   0.210  0.00  0.00    +0.050 A 
ATOM     16  C   UNL     1      -5.957   0.454  -0.178  0.00  0.00    +0.027 A 
ATOM     17  C   UNL     1      -7.076   0.273  -0.966  0.00  0.00    +0.017 A 
ATOM     18  C   UNL     1      -7.818   1.366  -1.378  0.00  0.00    +0.018 A 
ATOM     19  C   UNL     1      -7.444   2.642  -0.996  0.00  0.00    +0.017 A 
ATOM     20  C   UNL     1      -6.328   2.828  -0.204  0.00  0.00    +0.027 A 
ATOM     21 BR   UNL     1      -9.346   1.115  -2.463  0.00  0.00    -0.050 Br
ENDBRANCH  12  15
BRANCH   1  22
ATOM     22  S   UNL     1      -6.191   2.823   2.868  0.00  0.00    -0.075 S 
BRANCH  22  23
ATOM     23  C   UNL     1      -5.798   3.283   4.573  0.00  0.00    +0.140 C 
BRANCH  23  24
ATOM     24  C   UNL     1      -5.025   4.577   4.579  0.00  0.00    +0.229 C 
ATOM     25  O   UNL     1      -5.142   5.357   3.658  0.00  0.00    -0.274 OA
ATOM     26  N   UNL     1      -4.205   4.868   5.608  0.00  0.00    -0.301 N 
ATOM     27  C   UNL     1      -3.975   4.020   6.787  0.00  0.00    +0.108 C 
ATOM     28  C   UNL     1      -2.984   4.768   7.703  0.00  0.00    +0.020 C 
ATOM     29  C   UNL     1      -3.155   6.246   7.264  0.00  0.00    +0.020 C 
ATOM     30  C   UNL     1      -3.394   6.092   5.741  0.00  0.00    +0.108 C 
ENDBRANCH  23  24
BRANCH  23  32
ATOM     31  C   UNL     1      -7.810   2.112   5.480  0.00  0.00    +0.005 C 
ATOM     32  C   UNL     1      -7.094   3.460   5.366  0.00  0.00    +0.020 C 
ENDBRANCH  23  32
ENDBRANCH  22  23
ENDBRANCH   1  22
TORSDOF 5
