REMARK  Name = ZINC02851770
REMARK  14 active torsions:
REMARK  status: ('A' for Active; 'I' for Inactive)
REMARK    1  A    between atoms: C_1  and  C_2
REMARK    2  A    between atoms: C_2  and  O_3
REMARK    3  A    between atoms: O_3  and  C_4
REMARK    4  A    between atoms: C_4  and  C_6
REMARK    5  A    between atoms: C_10  and  N_11
REMARK    6  A    between atoms: N_11  and  C_12
REMARK    7  A    between atoms: C_12  and  N_14
REMARK    8  A    between atoms: N_14  and  N_15
REMARK    9  A    between atoms: C_16  and  C_18
REMARK   10  A    between atoms: C_18  and  C_20
REMARK   11  A    between atoms: C_18  and  O_21
REMARK   12  A    between atoms: O_21  and  C_22
REMARK   13  A    between atoms: C_25  and  C_31
REMARK   14  A    between atoms: C_27  and  N_28
REMARK                            x       y       z     vdW  Elec       q    Type
REMARK                         _______ _______ _______ _____ _____    ______ ____
ROOT
ATOM      1  C   UNL     1       4.407  -6.630  -2.213  0.00  0.00    +0.151 C 
ATOM      2  S   UNL     1       4.249  -8.064  -3.134  0.00  0.00    -0.017 S 
ENDROOT
BRANCH   1   3
ATOM      3  N   UNL     1       5.614  -6.264  -1.738  0.00  0.00    -0.290 N 
ATOM      4  H   UNL     1       5.704  -5.451  -1.216  0.00  0.00    +0.154 HD
BRANCH   3   9
ATOM      5  C   UNL     1       8.040  -6.838  -1.601  0.00  0.00    +0.091 A 
ATOM      6  C   UNL     1       9.033  -7.827  -2.000  0.00  0.00    -0.021 A 
ATOM      7  C   UNL     1       8.553  -8.850  -2.738  0.00  0.00    -0.004 A 
ATOM      8  S   UNL     1       6.817  -8.527  -2.892  0.00  0.00    -0.077 S 
ATOM      9  C   UNL     1       6.726  -7.048  -1.995  0.00  0.00    +0.086 A 
ATOM     10  C   UNL     1       9.318 -10.000  -3.314  0.00  0.00    +0.043 C 
ATOM     11  C   UNL     1      10.207 -10.615  -2.225  0.00  0.00    +0.005 C 
ATOM     12  C   UNL     1      11.555  -9.900  -2.243  0.00  0.00    +0.001 C 
ATOM     13  C   UNL     1      11.368  -8.437  -2.638  0.00  0.00    +0.005 C 
ATOM     14  C   UNL     1      10.502  -7.715  -1.612  0.00  0.00    +0.037 C 
BRANCH   5  15
ATOM     15  C   UNL     1       8.415  -5.665  -0.809  0.00  0.00    +0.342 C 
ATOM     16  O   UNL     1       8.392  -5.719   0.406  0.00  0.00    -0.245 OA
BRANCH  15  17
ATOM     17  O   UNL     1       8.785  -4.524  -1.427  0.00  0.00    -0.461 OA
BRANCH  17  19
ATOM     18  C   UNL     1       9.533  -2.207  -1.452  0.00  0.00    +0.048 C 
ATOM     19  C   UNL     1       9.143  -3.402  -0.579  0.00  0.00    +0.229 C 
ENDBRANCH  17  19
ENDBRANCH  15  17
ENDBRANCH   5  15
ENDBRANCH   3   9
ENDBRANCH   1   3
BRANCH   1  20
ATOM     20  N   UNL     1       3.325  -5.867  -1.962  0.00  0.00    -0.245 N 
ATOM     21  H   UNL     1       2.456  -6.130  -2.304  0.00  0.00    +0.172 HD
BRANCH  20  22
ATOM     22  N   UNL     1       3.454  -4.693  -1.209  0.00  0.00    -0.232 N 
ATOM     23  C   UNL     1       2.372  -3.930  -0.959  0.00  0.00    +0.270 C 
ATOM     24  O   UNL     1       1.286  -4.259  -1.386  0.00  0.00    -0.270 OA
ATOM     25  H   UNL     1       4.323  -4.429  -0.867  0.00  0.00    +0.173 HD
BRANCH  23  26
ATOM     26  C   UNL     1       2.511  -2.667  -0.148  0.00  0.00    +0.257 C 
ATOM     27  C   UNL     1       3.051  -3.010   1.242  0.00  0.00    +0.062 C 
BRANCH  26  28
ATOM     28  O   UNL     1       1.234  -2.039  -0.021  0.00  0.00    -0.478 OA
BRANCH  28  29
ATOM     29  C   UNL     1       1.226  -0.698   0.200  0.00  0.00    +0.152 A 
ATOM     30  C   UNL     1       2.418  -0.020   0.405  0.00  0.00    +0.048 A 
ATOM     31  C   UNL     1       2.407   1.343   0.629  0.00  0.00    +0.007 A 
ATOM     32  C   UNL     1       1.208   2.032   0.649  0.00  0.00    -0.048 A 
ATOM     33  C   UNL     1       0.018   1.358   0.445  0.00  0.00    +0.039 A 
ATOM     34  C   UNL     1       0.024  -0.005   0.220  0.00  0.00    +0.168 A 
ATOM     35  C   UNL     1       1.198   3.519   0.893  0.00  0.00    +0.044 C 
BRANCH  34  36
ATOM     36  N   UNL     1      -1.250  -0.726   0.003  0.00  0.00    +0.060 N 
ATOM     37  O   UNL     1      -2.305  -0.117   0.021  0.00  0.00    -0.126 OA
ATOM     38  O   UNL     1      -1.244  -1.927  -0.195  0.00  0.00    -0.126 OA
ENDBRANCH  34  36
ENDBRANCH  28  29
ENDBRANCH  26  28
ENDBRANCH  23  26
ENDBRANCH  20  22
ENDBRANCH   1  20
TORSDOF 11
