REMARK  Name = ZINC12483046
REMARK  7 active torsions:
REMARK  status: ('A' for Active; 'I' for Inactive)
REMARK    1  A    between atoms: C_4  and  N_7
REMARK    2  A    between atoms: N_10  and  C_13
REMARK    3  A    between atoms: C_13  and  C_14
REMARK    4  A    between atoms: C_16  and  C_19
REMARK    5  A    between atoms: C_19  and  C_20
REMARK    6  A    between atoms: C_26  and  C_28
REMARK    7  A    between atoms: C_28  and  C_29
REMARK                            x       y       z     vdW  Elec       q    Type
REMARK                         _______ _______ _______ _____ _____    ______ ____
ROOT
ATOM      1  C   UNL     1       7.713  -8.504  -2.038  0.00  0.00    -0.019 C 
ATOM      2  C   UNL     1       8.810  -8.533  -0.972  0.00  0.00    -0.079 C 
ATOM      3  N   UNL     1       9.935  -9.350  -1.444  0.00  0.00    +0.379 N 
ATOM      4  C   UNL     1       9.497 -10.738  -1.635  0.00  0.00    -0.082 C 
ATOM      5  C   UNL     1       8.427 -10.793  -2.728  0.00  0.00    -0.015 C 
ATOM      6  C   UNL     1       7.232  -9.932  -2.308  0.00  0.00    -0.002 C 
ATOM      7  H   UNL     1      10.273  -8.980  -2.320  0.00  0.00    -0.086 HD
ATOM      8  H   UNL     1      10.678  -9.323  -0.761  0.00  0.00    -0.086 HD
ENDROOT
BRANCH   1   9
ATOM      9  C   UNL     1       6.541  -7.654  -1.543  0.00  0.00    +0.061 C 
BRANCH   9  12
ATOM     10  C   UNL     1       7.068  -4.006  -1.615  0.00  0.00    +0.151 A 
ATOM     11  C   UNL     1       6.382  -5.103  -1.991  0.00  0.00    +0.072 A 
ATOM     12  C   UNL     1       6.987  -6.223  -1.392  0.00  0.00    +0.084 A 
ATOM     13  N   UNL     1       7.998  -5.806  -0.685  0.00  0.00    -0.083 NA
ATOM     14  O   UNL     1       8.073  -4.398  -0.817  0.00  0.00    -0.358 OA
BRANCH  10  15
ATOM     15  C   UNL     1       6.766  -2.588  -2.026  0.00  0.00    +0.161 C 
BRANCH  15  19
ATOM     16  N   UNL     1       3.620  -0.649  -0.036  0.00  0.00    -0.327 N 
ATOM     17  C   UNL     1       4.891   0.083  -0.149  0.00  0.00    +0.120 C 
ATOM     18  C   UNL     1       5.711  -0.538  -1.285  0.00  0.00    +0.104 C 
ATOM     19  N   UNL     1       5.844  -1.983  -1.055  0.00  0.00    -0.292 NA
ATOM     20  C   UNL     1       4.536  -2.651  -1.085  0.00  0.00    +0.104 C 
ATOM     21  C   UNL     1       3.668  -2.116   0.065  0.00  0.00    +0.120 C 
BRANCH  16  25
ATOM     22  C   UNL     1      -0.017   1.379   0.011  0.00  0.00    +0.000 A 
ATOM     23  C   UNL     1       0.002  -0.004  -0.011  0.00  0.00    +0.002 A 
ATOM     24  C   UNL     1       1.206  -0.680  -0.027  0.00  0.00    +0.023 A 
ATOM     25  C   UNL     1       2.400   0.031  -0.021  0.00  0.00    +0.030 A 
ATOM     26  C   UNL     1       2.377   1.420   0.002  0.00  0.00    +0.023 A 
ATOM     27  C   UNL     1       1.170   2.089   0.018  0.00  0.00    +0.002 A 
ENDBRANCH  16  25
ENDBRANCH  15  19
ENDBRANCH  10  15
ENDBRANCH   9  12
ENDBRANCH   1   9
BRANCH   6  28
ATOM     28  C   UNL     1       6.607 -10.510  -1.037  0.00  0.00    +0.099 C 
BRANCH  28  29
ATOM     29  C   UNL     1       6.024 -11.867  -1.337  0.00  0.00    +0.216 C 
ATOM     30  O   UNL     1       6.101 -12.327  -2.456  0.00  0.00    -0.276 OA
ATOM     31  N   UNL     1       5.417 -12.570  -0.360  0.00  0.00    -0.297 N 
ATOM     32  C   UNL     1       4.843 -13.901  -0.618  0.00  0.00    +0.113 C 
ATOM     33  C   UNL     1       5.621 -14.918   0.215  0.00  0.00    +0.054 C 
ATOM     34  C   UNL     1       5.775 -14.442   1.636  0.00  0.00    -0.041 A 
ATOM     35  C   UNL     1       6.063 -15.393   2.607  0.00  0.00    +0.004 A 
ATOM     36  C   UNL     1       6.226 -15.023   3.925  0.00  0.00    +0.000 A 
ATOM     37  C   UNL     1       6.104 -13.694   4.287  0.00  0.00    +0.000 A 
ATOM     38  C   UNL     1       5.814 -12.748   3.325  0.00  0.00    +0.005 A 
ATOM     39  C   UNL     1       5.644 -13.120   1.999  0.00  0.00    -0.027 A 
ATOM     40  C   UNL     1       5.308 -12.043   1.004  0.00  0.00    +0.143 C 
ENDBRANCH  28  29
ENDBRANCH   6  28
TORSDOF 7
