REMARK  Name = ZINC39678055
REMARK  7 active torsions:
REMARK  status: ('A' for Active; 'I' for Inactive)
REMARK    1  A    between atoms: C_1  and  O_2
REMARK    2  A    between atoms: O_2  and  C_3
REMARK    3  A    between atoms: C_8  and  C_9
REMARK    4  A    between atoms: C_13  and  C_22
REMARK    5  A    between atoms: N_24  and  C_25
REMARK    6  A    between atoms: C_25  and  C_26
REMARK    7  A    between atoms: C_29  and  N_32
REMARK                            x       y       z     vdW  Elec       q    Type
REMARK                         _______ _______ _______ _____ _____    ______ ____
ROOT
ATOM      1  C   UNL     1       0.013  -2.900   0.213  0.00  0.00    +0.250 C 
ATOM      2  O   UNL     1      -0.457  -2.470   1.249  0.00  0.00    -0.270 OA
ATOM      3  N   UNL     1       0.004  -4.225  -0.033  0.00  0.00    -0.296 N 
ATOM      4  C   UNL     1       0.619  -4.941  -1.175  0.00  0.00    +0.121 C 
ATOM      5  C   UNL     1       1.202  -6.232  -0.559  0.00  0.00    +0.100 C 
ATOM      6  C   UNL     1       0.383  -6.460   0.722  0.00  0.00    -0.004 C 
ATOM      7  C   UNL     1      -0.617  -5.296   0.782  0.00  0.00    +0.115 C 
ATOM      8  C   UNL     1      -0.359  -7.791   0.645  0.00  0.00    -0.010 C 
ATOM      9  C   UNL     1      -1.120  -8.023   1.953  0.00  0.00    -0.082 C 
ATOM     10  N   UNL     1      -0.175  -8.031   3.076  0.00  0.00    +0.379 N 
ATOM     11  C   UNL     1       0.466  -6.716   3.201  0.00  0.00    -0.082 C 
ATOM     12  C   UNL     1       1.294  -6.429   1.945  0.00  0.00    -0.010 C 
ATOM     13  H   UNL     1      -0.671  -8.244   3.929  0.00  0.00    -0.086 HD
ATOM     14  H   UNL     1       0.530  -8.734   2.916  0.00  0.00    -0.086 HD
ENDROOT
BRANCH   1  20
ATOM     15  C   UNL     1       1.254  -0.810  -0.348  0.00  0.00    +0.132 A 
ATOM     16  C   UNL     1       1.800   0.054  -1.286  0.00  0.00    +0.046 A 
ATOM     17  C   UNL     1       1.688  -0.226  -2.633  0.00  0.00    +0.004 A 
ATOM     18  C   UNL     1       1.030  -1.368  -3.059  0.00  0.00    +0.001 A 
ATOM     19  C   UNL     1       0.481  -2.238  -2.142  0.00  0.00    +0.017 A 
ATOM     20  C   UNL     1       0.593  -1.970  -0.775  0.00  0.00    +0.078 A 
BRANCH  15  22
ATOM     21  C   UNL     1       2.050   0.663   1.336  0.00  0.00    +0.277 C 
ATOM     22  O   UNL     1       1.363  -0.537   0.976  0.00  0.00    -0.494 OA
ENDBRANCH  15  22
ENDBRANCH   1  20
BRANCH   5  23
ATOM     23  C   UNL     1       2.659  -6.042  -0.225  0.00  0.00    +0.218 C 
ATOM     24  O   UNL     1       3.074  -4.942   0.075  0.00  0.00    -0.275 OA
ATOM     25  N   UNL     1       3.502  -7.093  -0.260  0.00  0.00    -0.311 N 
ATOM     26  H   UNL     1       3.170  -7.973  -0.500  0.00  0.00    +0.149 HD
BRANCH  25  27
ATOM     27  C   UNL     1       4.918  -6.908   0.064  0.00  0.00    +0.139 C 
BRANCH  27  28
ATOM     28  C   UNL     1       5.636  -8.229  -0.049  0.00  0.00    -0.030 A 
ATOM     29  C   UNL     1       5.725  -9.062   1.051  0.00  0.00    +0.007 A 
ATOM     30  C   UNL     1       6.382 -10.272   0.951  0.00  0.00    +0.023 A 
ATOM     31  C   UNL     1       6.954 -10.653  -0.256  0.00  0.00    +0.030 A 
ATOM     32  C   UNL     1       6.862  -9.813  -1.359  0.00  0.00    +0.023 A 
ATOM     33  C   UNL     1       6.199  -8.607  -1.254  0.00  0.00    +0.007 A 
BRANCH  31  34
ATOM     34  N   UNL     1       7.620 -11.876  -0.361  0.00  0.00    -0.326 N 
ATOM     35  C   UNL     1       8.129 -12.353  -1.657  0.00  0.00    +0.133 C 
ATOM     36  C   UNL     1       9.597 -12.758  -1.479  0.00  0.00    +0.178 C 
ATOM     37  O   UNL     1       9.705 -13.667  -0.381  0.00  0.00    -0.377 OA
ATOM     38  C   UNL     1       9.315 -13.114   0.878  0.00  0.00    +0.178 C 
ATOM     39  C   UNL     1       7.837 -12.724   0.822  0.00  0.00    +0.133 C 
ENDBRANCH  31  34
ENDBRANCH  27  28
ENDBRANCH  25  27
ENDBRANCH   5  23
TORSDOF 6
