REMARK  Name = ZINC49071413
REMARK  12 active torsions:
REMARK  status: ('A' for Active; 'I' for Inactive)
REMARK    1  A    between atoms: C_4  and  C_7
REMARK    2  A    between atoms: C_7  and  N_8
REMARK    3  A    between atoms: N_8  and  C_9
REMARK    4  A    between atoms: C_9  and  C_10
REMARK    5  A    between atoms: C_10  and  N_11
REMARK    6  A    between atoms: N_11  and  C_12
REMARK    7  A    between atoms: N_11  and  C_28
REMARK    8  A    between atoms: C_12  and  C_13
REMARK    9  A    between atoms: C_16  and  C_19
REMARK   10  A    between atoms: C_19  and  N_20
REMARK   11  A    between atoms: N_20  and  C_21
REMARK   12  A    between atoms: C_21  and  C_22
REMARK                            x       y       z     vdW  Elec       q    Type
REMARK                         _______ _______ _______ _____ _____    ______ ____
ROOT
ATOM      1  N   UNL     1       7.043  -2.850   2.749  0.00  0.00    -0.292 NA
ENDROOT
BRANCH   1   2
ATOM      2  C   UNL     1       7.816  -1.959   1.874  0.00  0.00    +0.106 C 
ATOM      3  C   UNL     1       7.347  -0.520   2.080  0.00  0.00    +0.025 C 
ATOM      4  C   UNL     1       8.006   0.362   1.014  0.00  0.00    +0.007 C 
ATOM      5  C   UNL     1       7.394   0.017  -0.342  0.00  0.00    +0.037 C 
ATOM      6  C   UNL     1       7.432  -1.470  -0.575  0.00  0.00    -0.025 A 
ATOM      7  C   UNL     1       7.620  -2.379   0.440  0.00  0.00    +0.062 A 
ATOM      8  N   UNL     1       7.637  -3.679   0.173  0.00  0.00    -0.258 NA
ATOM      9  C   UNL     1       7.481  -4.150  -1.045  0.00  0.00    +0.111 A 
ATOM     10  C   UNL     1       7.291  -3.293  -2.112  0.00  0.00    +0.020 A 
ATOM     11  C   UNL     1       7.266  -1.930  -1.878  0.00  0.00    +0.007 A 
ENDBRANCH   1   2
BRANCH   1  12
ATOM     12  C   UNL     1       5.619  -2.489   2.744  0.00  0.00    +0.066 C 
BRANCH  12  13
ATOM     13  C   UNL     1       5.022  -2.788   1.368  0.00  0.00    -0.067 C 
BRANCH  13  14
ATOM     14  N   UNL     1       3.598  -2.426   1.363  0.00  0.00    +0.383 N 
ATOM     15  H   UNL     1       3.500  -1.443   1.566  0.00  0.00    -0.085 HD
ATOM     16  H   UNL     1       3.112  -2.965   2.064  0.00  0.00    -0.085 HD
BRANCH  14  17
ATOM     17  C   UNL     1       3.025  -2.713   0.041  0.00  0.00    -0.047 C 
BRANCH  17  21
ATOM     18  C   UNL     1      -1.115  -1.663   0.024  0.00  0.00    +0.000 A 
ATOM     19  C   UNL     1      -0.164  -0.727  -0.334  0.00  0.00    +0.000 A 
ATOM     20  C   UNL     1       1.176  -1.066  -0.329  0.00  0.00    +0.002 A 
ATOM     21  C   UNL     1       1.564  -2.342   0.036  0.00  0.00    -0.064 A 
ATOM     22  C   UNL     1       0.613  -3.278   0.395  0.00  0.00    +0.002 A 
ATOM     23  C   UNL     1      -0.728  -2.938   0.388  0.00  0.00    +0.000 A 
ENDBRANCH  17  21
ENDBRANCH  14  17
ENDBRANCH  13  14
ENDBRANCH  12  13
ENDBRANCH   1  12
BRANCH   1  24
ATOM     24  C   UNL     1       7.583  -2.844   4.116  0.00  0.00    +0.120 C 
BRANCH  24  25
ATOM     25  C   UNL     1       8.899  -3.578   4.139  0.00  0.00    -0.033 A 
ATOM     26  C   UNL     1       8.921  -4.954   4.268  0.00  0.00    +0.005 A 
ATOM     27  C   UNL     1      10.128  -5.628   4.289  0.00  0.00    +0.002 A 
ATOM     28  C   UNL     1      11.313  -4.925   4.182  0.00  0.00    -0.064 A 
ATOM     29  C   UNL     1      11.292  -3.548   4.052  0.00  0.00    +0.002 A 
ATOM     30  C   UNL     1      10.084  -2.876   4.027  0.00  0.00    +0.005 A 
BRANCH  28  31
ATOM     31  C   UNL     1      12.629  -5.658   4.206  0.00  0.00    -0.046 C 
BRANCH  31  32
ATOM     32  N   UNL     1      13.010  -6.027   2.836  0.00  0.00    +0.385 N 
ATOM     33  H   UNL     1      12.299  -6.624   2.439  0.00  0.00    -0.085 HD
ATOM     34  H   UNL     1      13.100  -5.193   2.276  0.00  0.00    -0.085 HD
BRANCH  32  35
ATOM     35  C   UNL     1      14.293  -6.743   2.860  0.00  0.00    -0.026 C 
BRANCH  35  36
ATOM     36  C   UNL     1      14.683  -7.122   1.454  0.00  0.00    +0.024 A 
ATOM     37  C   UNL     1      15.533  -6.301   0.737  0.00  0.00    +0.021 A 
ATOM     38  C   UNL     1      15.886  -6.659  -0.555  0.00  0.00    +0.003 A 
ATOM     39  C   UNL     1      15.368  -7.833  -1.080  0.00  0.00    +0.020 A 
ATOM     40  C   UNL     1      14.523  -8.603  -0.303  0.00  0.00    +0.111 A 
ATOM     41  N   UNL     1      14.213  -8.234   0.925  0.00  0.00    -0.262 NA
ENDBRANCH  35  36
ENDBRANCH  32  35
ENDBRANCH  31  32
ENDBRANCH  28  31
ENDBRANCH  24  25
ENDBRANCH   1  24
TORSDOF 12
