REMARK  Name = ZINC38568376
REMARK  4 active torsions:
REMARK  status: ('A' for Active; 'I' for Inactive)
REMARK    1  A    between atoms: C_6  and  N_7
REMARK    2  A    between atoms: C_9  and  C_14
REMARK    3  A    between atoms: N_22  and  S_26
REMARK    4  A    between atoms: S_26  and  C_29
REMARK                            x       y       z     vdW  Elec       q    Type
REMARK                         _______ _______ _______ _____ _____    ______ ____
ROOT
ATOM      1  C   UNL     1      -2.795  -2.417   2.993  0.00  0.00    +0.221 C 
ATOM      2  O   UNL     1      -1.957  -2.359   3.868  0.00  0.00    -0.275 OA
ATOM      3  N   UNL     1      -4.012  -2.932   3.259  0.00  0.00    -0.301 N 
ATOM      4  C   UNL     1      -5.036  -3.015   2.208  0.00  0.00    +0.112 C 
ATOM      5  C   UNL     1      -6.311  -2.327   2.707  0.00  0.00    +0.072 C 
ATOM      6  C   UNL     1      -6.726  -2.940   4.046  0.00  0.00    +0.145 C 
ATOM      7  C   UNL     1      -5.621  -2.731   5.082  0.00  0.00    +0.072 C 
ATOM      8  C   UNL     1      -4.338  -3.428   4.603  0.00  0.00    +0.112 C 
ATOM      9  N   UNL     1      -6.978  -4.379   3.875  0.00  0.00    -0.144 NA
ATOM     10  C   UNL     1      -8.385  -4.599   4.277  0.00  0.00    +0.140 C 
ATOM     11  C   UNL     1      -8.684  -3.365   5.165  0.00  0.00    +0.179 C 
ATOM     12  O   UNL     1      -7.938  -2.318   4.503  0.00  0.00    -0.356 OA
ENDROOT
BRANCH   1  15
ATOM     13  N   UNL     1      -1.140   0.067   1.815  0.00  0.00    -0.271 N 
ATOM     14  C   UNL     1      -1.032  -1.371   1.538  0.00  0.00    +0.127 C 
ATOM     15  C   UNL     1      -2.476  -1.913   1.609  0.00  0.00    +0.102 C 
ATOM     16  C   UNL     1      -3.305  -0.651   1.274  0.00  0.00    +0.110 C 
ATOM     17  C   UNL     1      -2.405   0.497   1.674  0.00  0.00    +0.221 C 
ATOM     18  O   UNL     1      -2.772   1.641   1.842  0.00  0.00    -0.275 OA
BRANCH  13  24
ATOM     19  C   UNL     1      -0.228   2.260   2.256  0.00  0.00    +0.026 A 
ATOM     20  C   UNL     1       0.834   3.063   2.621  0.00  0.00    +0.040 A 
ATOM     21  C   UNL     1       2.064   2.497   2.913  0.00  0.00    +0.124 A 
ATOM     22  C   UNL     1       2.230   1.124   2.841  0.00  0.00    +0.040 A 
ATOM     23  C   UNL     1       1.170   0.317   2.477  0.00  0.00    +0.026 A 
ATOM     24  C   UNL     1      -0.064   0.883   2.184  0.00  0.00    +0.036 A 
ATOM     25  F   UNL     1       3.102   3.284   3.269  0.00  0.00    -0.205 F 
ENDBRANCH  13  24
ENDBRANCH   1  15
BRANCH   9  26
ATOM     26  S   UNL     1      -5.905  -5.521   3.340  0.00  0.00    +0.063 S 
ATOM     27  O   UNL     1      -6.563  -6.246   2.310  0.00  0.00    -0.153 OA
ATOM     28  O   UNL     1      -4.670  -4.851   3.130  0.00  0.00    -0.153 OA
BRANCH  26  29
ATOM     29  C   UNL     1      -5.645  -6.652   4.665  0.00  0.00    +0.106 A 
ATOM     30  C   UNL     1      -4.549  -6.505   5.495  0.00  0.00    +0.030 A 
ATOM     31  C   UNL     1      -4.345  -7.392   6.535  0.00  0.00    +0.022 A 
ATOM     32  C   UNL     1      -5.237  -8.428   6.745  0.00  0.00    +0.041 A 
ATOM     33  C   UNL     1      -6.334  -8.575   5.915  0.00  0.00    +0.022 A 
ATOM     34  C   UNL     1      -6.540  -7.684   4.879  0.00  0.00    +0.030 A 
ATOM     35 CL   UNL     1      -4.981  -9.543   8.051  0.00  0.00    -0.084 Cl
ENDBRANCH  26  29
ENDBRANCH   9  26
TORSDOF 4
