REMARK  Name = ZINC44547647
REMARK  9 active torsions:
REMARK  status: ('A' for Active; 'I' for Inactive)
REMARK    1  A    between atoms: C_1  and  C_2
REMARK    2  A    between atoms: C_2  and  C_3
REMARK    3  A    between atoms: C_2  and  C_6
REMARK    4  A    between atoms: C_2  and  O_27
REMARK    5  A    between atoms: C_3  and  C_4
REMARK    6  A    between atoms: C_6  and  C_8
REMARK    7  A    between atoms: C_6  and  O_26
REMARK    8  A    between atoms: C_10  and  O_25
REMARK    9  A    between atoms: C_13  and  O_14
REMARK                            x       y       z     vdW  Elec       q    Type
REMARK                         _______ _______ _______ _____ _____    ______ ____
ROOT
ATOM      1  C   UNL     1      -2.162  -0.034  -1.208  0.00  0.00    +0.029 A 
ATOM      2  C   UNL     1      -2.925   1.109  -1.129  0.00  0.00    +0.056 A 
ATOM      3  C   UNL     1      -3.606   1.584  -2.248  0.00  0.00    +0.129 A 
ATOM      4  C   UNL     1      -3.515   0.897  -3.461  0.00  0.00    +0.078 A 
ATOM      5  C   UNL     1      -2.733  -0.273  -3.543  0.00  0.00    +0.078 A 
ATOM      6  C   UNL     1      -2.054  -0.731  -2.411  0.00  0.00    +0.134 A 
ATOM      7  C   UNL     1      -2.631  -1.005  -4.817  0.00  0.00    +0.198 C 
ATOM      8  O   UNL     1      -1.957  -2.015  -4.888  0.00  0.00    -0.286 OA
ATOM      9  C   UNL     1      -3.350  -0.510  -6.011  0.00  0.00    +0.033 A 
ATOM     10  C   UNL     1      -3.259  -1.196  -7.219  0.00  0.00    +0.012 A 
ATOM     11  C   UNL     1      -3.936  -0.726  -8.330  0.00  0.00    +0.001 A 
ATOM     12  C   UNL     1      -4.702   0.423  -8.250  0.00  0.00    +0.001 A 
ATOM     13  C   UNL     1      -4.802   1.116  -7.058  0.00  0.00    +0.012 A 
ATOM     14  C   UNL     1      -4.129   0.657  -5.929  0.00  0.00    +0.033 A 
ATOM     15  C   UNL     1      -4.231   1.391  -4.650  0.00  0.00    +0.198 C 
ATOM     16  O   UNL     1      -4.905   2.400  -4.579  0.00  0.00    -0.286 OA
ENDROOT
BRANCH   6  17
ATOM     17  O   UNL     1      -1.296  -1.853  -2.481  0.00  0.00    -0.506 OA
ATOM     18  H   UNL     1      -1.778  -2.667  -2.282  0.00  0.00    +0.292 HD
ENDBRANCH   6  17
BRANCH   3  19
ATOM     19  O   UNL     1      -4.356   2.710  -2.160  0.00  0.00    -0.506 OA
ATOM     20  H   UNL     1      -3.870   3.523  -2.357  0.00  0.00    +0.292 HD
ENDBRANCH   3  19
BRANCH   1  21
ATOM     21  C   UNL     1      -1.433  -0.534   0.013  0.00  0.00    +0.180 C 
BRANCH  21  23
ATOM     22  C   UNL     1      -0.019   1.526   0.010  0.00  0.00    +0.044 C 
ATOM     23  C   UNL     1       0.002  -0.004   0.002  0.00  0.00    +0.097 C 
BRANCH  23  24
ATOM     24  O   UNL     1       0.671  -0.465  -1.174  0.00  0.00    -0.386 OA
ATOM     25  H   UNL     1       0.722  -1.428  -1.246  0.00  0.00    +0.210 HD
ENDBRANCH  23  24
BRANCH  23  26
ATOM     26  C   UNL     1       0.742  -0.511   1.242  0.00  0.00    +0.064 C 
BRANCH  26  27
ATOM     27  C   UNL     1       2.115   0.108   1.295  0.00  0.00    -0.032 C 
ATOM     28  C   UNL     1       2.496   0.765   2.363  0.00  0.00    +0.004 C 
ENDBRANCH  26  27
ENDBRANCH  23  26
ENDBRANCH  21  23
BRANCH  21  29
ATOM     29  O   UNL     1      -2.102  -0.073   1.189  0.00  0.00    -0.384 OA
ATOM     30  H   UNL     1      -2.153   0.890   1.260  0.00  0.00    +0.210 HD
ENDBRANCH  21  29
ENDBRANCH   1  21
TORSDOF 8
