REMARK  Name = ZINC61368648
REMARK  5 active torsions:
REMARK  status: ('A' for Active; 'I' for Inactive)
REMARK    1  A    between atoms: C_3  and  S_8
REMARK    2  A    between atoms: C_5  and  C_6
REMARK    3  A    between atoms: C_6  and  N_7
REMARK    4  A    between atoms: S_8  and  N_11
REMARK    5  A    between atoms: N_11  and  C_12
REMARK                            x       y       z     vdW  Elec       q    Type
REMARK                         _______ _______ _______ _____ _____    ______ ____
ROOT
ATOM      1  S   UNL     1       4.100   1.930  -0.050  0.00  0.00    +0.065 S 
ATOM      2  O   UNL     1       5.078   1.005  -0.506  0.00  0.00    -0.153 OA
ATOM      3  O   UNL     1       3.908   3.199  -0.661  0.00  0.00    -0.153 OA
ENDROOT
BRANCH   1   6
ATOM      4  C   UNL     1       0.214   0.765  -0.182  0.00  0.00    +0.011 A 
ATOM      5  C   UNL     1       1.298   1.621  -0.122  0.00  0.00    +0.036 A 
ATOM      6  C   UNL     1       2.549   1.097  -0.119  0.00  0.00    +0.143 A 
ATOM      7  S   UNL     1       2.216  -0.655  -0.203  0.00  0.00    -0.075 S 
ATOM      8  C   UNL     1       0.433  -0.571  -0.237  0.00  0.00    -0.026 A 
BRANCH   8   9
ATOM      9  C   UNL     1      -0.569  -1.695  -0.307  0.00  0.00    -0.043 C 
BRANCH   9  10
ATOM     10  N   UNL     1      -0.866  -1.999  -1.713  0.00  0.00    +0.381 N 
ATOM     11  H   UNL     1      -1.247  -1.179  -2.161  0.00  0.00    -0.090 HD
ATOM     12  H   UNL     1      -0.017  -2.275  -2.184  0.00  0.00    -0.090 HD
ATOM     13  H   UNL     1      -1.536  -2.751  -1.760  0.00  0.00    -0.090 HD
ENDBRANCH   9  10
ENDBRANCH   8   9
ENDBRANCH   1   6
BRANCH   1  14
ATOM     14  N   UNL     1       4.430   2.219   1.547  0.00  0.00    -0.182 NA
ATOM     15  H   UNL     1       4.491   3.131   1.872  0.00  0.00    +0.149 HD
BRANCH  14  16
ATOM     16  C   UNL     1       4.630   1.098   2.468  0.00  0.00    +0.107 C 
ATOM     17  C   UNL     1       6.126   0.820   2.621  0.00  0.00    +0.025 C 
ATOM     18  C   UNL     1       6.357  -0.225   3.716  0.00  0.00    +0.007 C 
ATOM     19  C   UNL     1       6.039   0.411   5.078  0.00  0.00    +0.043 C 
ATOM     20  C   UNL     1       4.728   1.120   4.971  0.00  0.00    -0.005 A 
ATOM     21  C   UNL     1       4.051   1.449   3.835  0.00  0.00    -0.019 A 
ATOM     22  C   UNL     1       2.833   2.110   4.001  0.00  0.00    +0.013 A 
ATOM     23  C   UNL     1       2.380   2.392   5.244  0.00  0.00    +0.046 A 
ATOM     24  S   UNL     1       3.687   1.726   6.272  0.00  0.00    -0.101 S 
ENDBRANCH  14  16
ENDBRANCH   1  14
TORSDOF 5
