REMARK  Name = ZINC64580625
REMARK  7 active torsions:
REMARK  status: ('A' for Active; 'I' for Inactive)
REMARK    1  A    between atoms: C_3  and  S_8
REMARK    2  A    between atoms: S_8  and  N_11
REMARK    3  A    between atoms: N_11  and  C_12
REMARK    4  A    between atoms: C_14  and  C_32
REMARK    5  A    between atoms: C_17  and  N_18
REMARK    6  A    between atoms: N_21  and  C_24
REMARK    7  A    between atoms: C_24  and  C_25
REMARK                            x       y       z     vdW  Elec       q    Type
REMARK                         _______ _______ _______ _____ _____    ______ ____
ROOT
ATOM      1  C   UNL     1       4.553   1.459   2.396  0.00  0.00    +0.070 A 
ATOM      2  C   UNL     1       5.217   0.348   1.917  0.00  0.00    +0.041 A 
ATOM      3  C   UNL     1       5.442  -0.747   2.760  0.00  0.00    +0.065 A 
ATOM      4  C   UNL     1       4.992  -0.711   4.084  0.00  0.00    +0.017 A 
ATOM      5  C   UNL     1       4.330   0.400   4.557  0.00  0.00    +0.026 A 
ATOM      6  C   UNL     1       4.110   1.490   3.723  0.00  0.00    +0.052 A 
ENDROOT
BRANCH   6   7
ATOM      7  N   UNL     1       3.446   2.613   4.207  0.00  0.00    -0.326 N 
ATOM      8  C   UNL     1       1.981   2.720   4.119  0.00  0.00    +0.120 C 
ATOM      9  C   UNL     1       1.435   3.077   5.506  0.00  0.00    +0.104 C 
ATOM     10  N   UNL     1       2.117   4.280   6.002  0.00  0.00    -0.291 NA
ATOM     11  C   UNL     1       3.556   4.042   6.179  0.00  0.00    +0.104 C 
ATOM     12  C   UNL     1       4.188   3.722   4.826  0.00  0.00    +0.120 C 
BRANCH  10  13
ATOM     13  C   UNL     1       1.504   4.755   7.250  0.00  0.00    +0.180 C 
BRANCH  13  14
ATOM     14  C   UNL     1       2.059   6.112   7.597  0.00  0.00    +0.230 C 
ATOM     15  O   UNL     1       2.884   6.633   6.875  0.00  0.00    -0.274 OA
ATOM     16  N   UNL     1       1.639   6.748   8.708  0.00  0.00    -0.300 N 
ATOM     17  C   UNL     1       0.654   6.232   9.670  0.00  0.00    +0.108 C 
ATOM     18  C   UNL     1       0.471   7.309  10.760  0.00  0.00    +0.020 C 
ATOM     19  C   UNL     1       0.939   8.606  10.050  0.00  0.00    +0.020 C 
ATOM     20  C   UNL     1       2.097   8.073   9.165  0.00  0.00    +0.108 C 
ENDBRANCH  13  14
ENDBRANCH  10  13
ENDBRANCH   6   7
BRANCH   3  21
ATOM     21  C   UNL     1       6.149  -1.934   2.254  0.00  0.00    +0.387 C 
ATOM     22  O   UNL     1       6.542  -1.965   1.096  0.00  0.00    -0.241 OA
ATOM     23  O   UNL     1       6.344  -2.890   2.992  0.00  0.00    -0.241 OA
ENDBRANCH   3  21
BRANCH   1  24
ATOM     24  N   UNL     1       4.326   2.557   1.556  0.00  0.00    -0.214 N 
ATOM     25  H   UNL     1       4.358   3.457   1.916  0.00  0.00    +0.174 HD
BRANCH  24  26
ATOM     26  S   UNL     1       4.006   2.318  -0.050  0.00  0.00    +0.072 S 
ATOM     27  O   UNL     1       5.057   1.507  -0.558  0.00  0.00    -0.150 OA
ATOM     28  O   UNL     1       3.695   3.592  -0.597  0.00  0.00    -0.150 OA
BRANCH  26  31
ATOM     29  C   UNL     1       0.147   1.225  -0.286  0.00  0.00    +0.040 A 
ATOM     30  C   UNL     1       1.302   1.979  -0.208  0.00  0.00    +0.031 A 
ATOM     31  C   UNL     1       2.534   1.354  -0.150  0.00  0.00    +0.109 A 
ATOM     32  C   UNL     1       2.611  -0.026  -0.171  0.00  0.00    +0.031 A 
ATOM     33  C   UNL     1       1.458  -0.782  -0.249  0.00  0.00    +0.040 A 
ATOM     34  C   UNL     1       0.223  -0.157  -0.307  0.00  0.00    +0.124 A 
ATOM     35  F   UNL     1      -0.905  -0.896  -0.383  0.00  0.00    -0.205 F 
ENDBRANCH  26  31
ENDBRANCH  24  26
ENDBRANCH   1  24
TORSDOF 7
