REMARK  Name = ZINC37385905
REMARK  3 active torsions:
REMARK  status: ('A' for Active; 'I' for Inactive)
REMARK    1  A    between atoms: C_3  and  N_9
REMARK    2  A    between atoms: N_9  and  S_10
REMARK    3  A    between atoms: S_10  and  C_13
REMARK                            x       y       z     vdW  Elec       q    Type
REMARK                         _______ _______ _______ _____ _____    ______ ____
ROOT
ATOM      1  S   UNL     1       5.027   1.322   0.086  0.00  0.00    +0.094 S 
ATOM      2  O   UNL     1       5.018   0.636   1.330  0.00  0.00    -0.148 OA
ATOM      3  O   UNL     1       5.210   0.651  -1.153  0.00  0.00    -0.148 OA
ENDROOT
BRANCH   1   4
ATOM      4  C   UNL     1       6.296   2.540   0.192  0.00  0.00    +0.147 A 
ATOM      5  C   UNL     1       6.883   3.030  -0.961  0.00  0.00    +0.070 A 
ATOM      6  C   UNL     1       7.879   3.986  -0.877  0.00  0.00    +0.037 A 
ATOM      7  C   UNL     1       8.288   4.453   0.359  0.00  0.00    +0.021 A 
ATOM      8  C   UNL     1       7.701   3.963   1.512  0.00  0.00    +0.037 A 
ATOM      9  C   UNL     1       6.701   3.011   1.428  0.00  0.00    +0.070 A 
ATOM     10 CL   UNL     1       5.960   2.401   2.875  0.00  0.00    -0.081 Cl
ATOM     11 BR   UNL     1       9.649   5.760   0.472  0.00  0.00    -0.050 Br
ATOM     12 CL   UNL     1       6.370   2.444  -2.513  0.00  0.00    -0.081 Cl
ENDBRANCH   1   4
BRANCH   1  13
ATOM     13  N   UNL     1       3.583   2.127  -0.021  0.00  0.00    -0.096 NA
BRANCH  13  16
ATOM     14  C   UNL     1       1.212  -0.682  -0.089  0.00  0.00    +0.040 A 
ATOM     15  C   UNL     1       2.400   0.024  -0.082  0.00  0.00    +0.031 A 
ATOM     16  C   UNL     1       2.382   1.411  -0.029  0.00  0.00    +0.093 A 
ATOM     17  C   UNL     1       1.168   2.087   0.017  0.00  0.00    +0.068 A 
ATOM     18  C   UNL     1      -0.017   1.376   0.009  0.00  0.00    +0.060 A 
ATOM     19  C   UNL     1       0.004  -0.007  -0.044  0.00  0.00    +0.125 A 
ATOM     20  F   UNL     1      -1.156  -0.700  -0.051  0.00  0.00    -0.205 F 
ATOM     21 CL   UNL     1       1.141   3.821   0.084  0.00  0.00    -0.081 Cl
ENDBRANCH  13  16
ENDBRANCH   1  13
TORSDOF 3
