REMARK  Name = ZINC03279688
REMARK  10 active torsions:
REMARK  status: ('A' for Active; 'I' for Inactive)
REMARK    1  A    between atoms: C_1  and  O_2
REMARK    2  A    between atoms: O_2  and  C_3
REMARK    3  A    between atoms: C_6  and  C_9
REMARK    4  A    between atoms: N_13  and  C_17
REMARK    5  A    between atoms: C_17  and  C_18
REMARK    6  A    between atoms: C_18  and  N_19
REMARK    7  A    between atoms: C_20  and  C_22
REMARK    8  A    between atoms: C_22  and  C_24
REMARK    9  A    between atoms: C_22  and  N_31
REMARK   10  A    between atoms: C_24  and  C_25
REMARK                            x       y       z     vdW  Elec       q    Type
REMARK                         _______ _______ _______ _____ _____    ______ ____
ROOT
ATOM      1  N   UNL     1      -5.527  -0.443   1.788  0.00  0.00    -0.312 N 
ATOM      2  C   UNL     1      -6.000   0.793   2.041  0.00  0.00    +0.234 C 
ATOM      3  O   UNL     1      -7.191   0.970   2.186  0.00  0.00    -0.274 OA
ATOM      4  H   UNL     1      -4.574  -0.584   1.672  0.00  0.00    +0.149 HD
ENDROOT
BRANCH   1   5
ATOM      5  C   UNL     1      -6.452  -1.575   1.690  0.00  0.00    +0.123 C 
BRANCH   5   6
ATOM      6  C   UNL     1      -5.665  -2.854   1.399  0.00  0.00    +0.136 C 
BRANCH   6  11
ATOM      7  C   UNL     1      -8.306  -6.671   3.149  0.00  0.00    +0.028 C 
ATOM      8  C   UNL     1      -7.826  -5.802   2.224  0.00  0.00    +0.080 C 
ATOM      9  C   UNL     1      -6.884  -4.677   2.389  0.00  0.00    +0.260 C 
ATOM     10  O   UNL     1      -6.406  -4.397   3.473  0.00  0.00    -0.269 OA
ATOM     11  N   UNL     1      -6.590  -3.986   1.300  0.00  0.00    -0.227 N 
ATOM     12  C   UNL     1      -7.119  -4.302   0.101  0.00  0.00    +0.286 C 
ATOM     13  O   UNL     1      -6.933  -3.760  -0.973  0.00  0.00    -0.262 OA
ATOM     14  S   UNL     1      -8.155  -5.708   0.469  0.00  0.00    -0.026 S 
BRANCH   7  18
ATOM     15  C   UNL     1      -6.717  -6.676   7.080  0.00  0.00    +0.120 A 
ATOM     16  C   UNL     1      -8.081  -6.857   6.885  0.00  0.00    +0.046 A 
ATOM     17  C   UNL     1      -8.603  -6.856   5.611  0.00  0.00    +0.011 A 
ATOM     18  C   UNL     1      -7.756  -6.672   4.510  0.00  0.00    -0.024 A 
ATOM     19  C   UNL     1      -6.382  -6.496   4.713  0.00  0.00    +0.011 A 
ATOM     20  C   UNL     1      -5.872  -6.493   5.992  0.00  0.00    +0.046 A 
BRANCH  15  22
ATOM     21  C   UNL     1      -4.798  -6.487   8.469  0.00  0.00    +0.277 C 
ATOM     22  O   UNL     1      -6.208  -6.678   8.339  0.00  0.00    -0.495 OA
ENDBRANCH  15  22
ENDBRANCH   7  18
ENDBRANCH   6  11
ENDBRANCH   5   6
ENDBRANCH   1   5
BRANCH   2  23
ATOM     23  C   UNL     1      -5.048   1.957   2.143  0.00  0.00    +0.175 C 
BRANCH  23  24
ATOM     24  N   UNL     1      -5.693   3.054   2.869  0.00  0.00    -0.222 N 
ATOM     25  C   UNL     1      -6.821   3.669   2.474  0.00  0.00    +0.255 C 
ATOM     26  O   UNL     1      -7.458   3.408   1.473  0.00  0.00    -0.270 OA
ATOM     27  C   UNL     1      -7.159   4.715   3.462  0.00  0.00    +0.049 A 
ATOM     28  C   UNL     1      -8.183   5.641   3.580  0.00  0.00    +0.014 A 
ATOM     29  C   UNL     1      -8.204   6.509   4.660  0.00  0.00    +0.001 A 
ATOM     30  C   UNL     1      -7.211   6.456   5.621  0.00  0.00    +0.001 A 
ATOM     31  C   UNL     1      -6.181   5.534   5.517  0.00  0.00    +0.014 A 
ATOM     32  C   UNL     1      -6.147   4.661   4.442  0.00  0.00    +0.049 A 
ATOM     33  C   UNL     1      -5.231   3.581   4.018  0.00  0.00    +0.255 C 
ATOM     34  O   UNL     1      -4.229   3.229   4.607  0.00  0.00    -0.270 OA
ENDBRANCH  23  24
BRANCH  23  35
ATOM     35  C   UNL     1      -4.668   2.430   0.738  0.00  0.00    +0.067 C 
BRANCH  35  36
ATOM     36  C   UNL     1      -3.624   3.512   0.837  0.00  0.00    -0.045 A 
ATOM     37  C   UNL     1      -2.282   3.179   0.836  0.00  0.00    +0.004 A 
ATOM     38  C   UNL     1      -1.324   4.172   0.921  0.00  0.00    +0.000 A 
ATOM     39  C   UNL     1      -1.707   5.497   1.012  0.00  0.00    +0.000 A 
ATOM     40  C   UNL     1      -3.049   5.829   1.018  0.00  0.00    +0.000 A 
ATOM     41  C   UNL     1      -4.007   4.837   0.933  0.00  0.00    +0.004 A 
ENDBRANCH  35  36
ENDBRANCH  23  35
ENDBRANCH   2  23
TORSDOF 9
