REMARK  Name = ZINC15323942
REMARK  5 active torsions:
REMARK  status: ('A' for Active; 'I' for Inactive)
REMARK    1  A    between atoms: C_6  and  N_7
REMARK    2  A    between atoms: N_10  and  S_13
REMARK    3  A    between atoms: S_13  and  C_16
REMARK    4  A    between atoms: C_19  and  S_22
REMARK    5  A    between atoms: S_22  and  N_25
REMARK                            x       y       z     vdW  Elec       q    Type
REMARK                         _______ _______ _______ _____ _____    ______ ____
ROOT
ATOM      1  S   UNL     1      -4.794  -2.738  -1.156  0.00  0.00    +0.061 S 
ATOM      2  O   UNL     1      -4.479  -4.053  -0.720  0.00  0.00    -0.153 OA
ATOM      3  O   UNL     1      -5.749  -1.923  -0.490  0.00  0.00    -0.153 OA
ENDROOT
BRANCH   1   7
ATOM      4  N   UNL     1      -1.198  -0.721   0.010  0.00  0.00    -0.327 N 
ATOM      5  C   UNL     1      -2.486  -0.022   0.131  0.00  0.00    +0.122 C 
ATOM      6  C   UNL     1      -3.375  -0.424  -1.053  0.00  0.00    +0.128 C 
ATOM      7  N   UNL     1      -3.372  -1.889  -1.165  0.00  0.00    -0.174 NA
ATOM      8  C   UNL     1      -2.085  -2.588  -1.286  0.00  0.00    +0.128 C 
ATOM      9  C   UNL     1      -1.196  -2.186  -0.108  0.00  0.00    +0.122 C 
BRANCH   4  15
ATOM     10  C   UNL     1       1.215  -0.680   0.003  0.00  0.00    +0.026 A 
ATOM     11  C   UNL     1       2.400   0.030  -0.005  0.00  0.00    +0.040 A 
ATOM     12  C   UNL     1       2.379   1.414  -0.015  0.00  0.00    +0.124 A 
ATOM     13  C   UNL     1       1.170   2.090  -0.016  0.00  0.00    +0.040 A 
ATOM     14  C   UNL     1      -0.017   1.385  -0.007  0.00  0.00    +0.026 A 
ATOM     15  C   UNL     1       0.002  -0.004   0.002  0.00  0.00    +0.030 A 
ATOM     16  F   UNL     1       3.539   2.107  -0.023  0.00  0.00    -0.205 F 
ENDBRANCH   4  15
ENDBRANCH   1   7
BRANCH   1  17
ATOM     17  C   UNL     1      -5.329  -2.877  -2.829  0.00  0.00    +0.106 A 
ATOM     18  C   UNL     1      -6.145  -1.904  -3.376  0.00  0.00    +0.030 A 
ATOM     19  C   UNL     1      -6.565  -2.013  -4.689  0.00  0.00    +0.030 A 
ATOM     20  C   UNL     1      -6.169  -3.094  -5.454  0.00  0.00    +0.105 A 
ATOM     21  C   UNL     1      -5.352  -4.066  -4.907  0.00  0.00    +0.030 A 
ATOM     22  C   UNL     1      -4.929  -3.955  -3.595  0.00  0.00    +0.030 A 
BRANCH  20  23
ATOM     23  S   UNL     1      -6.705  -3.233  -7.127  0.00  0.00    +0.056 S 
ATOM     24  O   UNL     1      -6.642  -4.613  -7.460  0.00  0.00    -0.153 OA
ATOM     25  O   UNL     1      -7.904  -2.477  -7.233  0.00  0.00    -0.153 OA
BRANCH  23  26
ATOM     26  N   UNL     1      -5.578  -2.467  -8.067  0.00  0.00    -0.204 NA
ATOM     27  H   UNL     1      -4.803  -2.053  -7.656  0.00  0.00    +0.144 HD
ATOM     28  H   UNL     1      -5.692  -2.432  -9.030  0.00  0.00    +0.144 HD
ENDBRANCH  23  26
ENDBRANCH  20  23
ENDBRANCH   1  17
TORSDOF 5
