REMARK  Name = ZINC09472359
REMARK  11 active torsions:
REMARK  status: ('A' for Active; 'I' for Inactive)
REMARK    1  A    between atoms: C_1  and  C_2
REMARK    2  A    between atoms: C_3  and  C_33
REMARK    3  A    between atoms: C_4  and  N_11
REMARK    4  A    between atoms: C_6  and  C_7
REMARK    5  A    between atoms: C_7  and  O_9
REMARK    6  A    between atoms: O_9  and  C_10
REMARK    7  A    between atoms: C_12  and  C_14
REMARK    8  A    between atoms: C_17  and  S_20
REMARK    9  A    between atoms: S_20  and  N_23
REMARK   10  A    between atoms: C_25  and  C_32
REMARK   11  A    between atoms: C_28  and  C_31
REMARK                            x       y       z     vdW  Elec       q    Type
REMARK                         _______ _______ _______ _____ _____    ______ ____
ROOT
ATOM      1  N   UNL     1      -8.228   1.153  -1.081  0.00  0.00    -0.275 N 
ATOM      2  C   UNL     1      -7.646   1.504   0.083  0.00  0.00    +0.249 C 
ATOM      3  O   UNL     1      -8.151   1.176   1.139  0.00  0.00    -0.270 OA
ATOM      4  H   UNL     1      -7.825   1.415  -1.923  0.00  0.00    +0.156 HD
ENDROOT
BRANCH   1   8
ATOM      5  C   UNL     1     -12.165  -1.284  -3.013  0.00  0.00    +0.046 C 
ATOM      6  C   UNL     1     -11.300  -0.757  -1.897  0.00  0.00    -0.015 A 
ATOM      7  C   UNL     1     -10.149  -0.033  -2.163  0.00  0.00    +0.069 A 
ATOM      8  C   UNL     1      -9.399   0.422  -1.074  0.00  0.00    +0.085 A 
ATOM      9  S   UNL     1     -10.297  -0.164   0.287  0.00  0.00    -0.066 S 
ATOM     10  C   UNL     1     -11.624  -0.976  -0.584  0.00  0.00    +0.102 A 
BRANCH   7  11
ATOM     11  C   UNL     1      -9.729   0.246  -3.543  0.00  0.00    +0.244 C 
ATOM     12  O   UNL     1      -8.997  -0.532  -4.126  0.00  0.00    -0.270 OA
ATOM     13  N   UNL     1     -10.156   1.364  -4.164  0.00  0.00    -0.325 N 
ATOM     14  H   UNL     1     -10.740   1.984  -3.699  0.00  0.00    +0.145 HD
ATOM     15  H   UNL     1      -9.879   1.548  -5.075  0.00  0.00    +0.145 HD
ENDBRANCH   7  11
BRANCH  10  16
ATOM     16  C   UNL     1     -12.770  -1.699  -0.035  0.00  0.00    +0.346 C 
ATOM     17  O   UNL     1     -13.588  -2.201  -0.783  0.00  0.00    -0.244 OA
BRANCH  16  18
ATOM     18  O   UNL     1     -12.921  -1.809   1.301  0.00  0.00    -0.464 OA
ATOM     19  C   UNL     1     -14.063  -2.530   1.768  0.00  0.00    +0.280 C 
ENDBRANCH  16  18
ENDBRANCH  10  16
ENDBRANCH   1   8
BRANCH   2  20
ATOM     20  C   UNL     1      -6.392   2.287   0.075  0.00  0.00    +0.037 A 
ATOM     21  C   UNL     1      -5.786   2.652   1.279  0.00  0.00    +0.015 A 
ATOM     22  C   UNL     1      -4.616   3.382   1.264  0.00  0.00    +0.029 A 
ATOM     23  C   UNL     1      -4.043   3.754   0.061  0.00  0.00    +0.106 A 
ATOM     24  C   UNL     1      -4.642   3.400  -1.135  0.00  0.00    +0.029 A 
ATOM     25  C   UNL     1      -5.809   2.665  -1.135  0.00  0.00    +0.015 A 
BRANCH  23  26
ATOM     26  S   UNL     1      -2.550   4.688   0.052  0.00  0.00    +0.061 S 
ATOM     27  O   UNL     1      -2.485   5.364   1.300  0.00  0.00    -0.153 OA
ATOM     28  O   UNL     1      -2.509   5.377  -1.190  0.00  0.00    -0.153 OA
BRANCH  26  29
ATOM     29  N   UNL     1      -1.296   3.606   0.034  0.00  0.00    -0.176 NA
ATOM     30  C   UNL     1      -0.741   3.124  -1.238  0.00  0.00    +0.112 C 
ATOM     31  C   UNL     1      -0.752   1.593  -1.232  0.00  0.00    +0.002 C 
ATOM     32  C   UNL     1      -0.013   1.086   0.008  0.00  0.00    +0.009 C 
ATOM     33  C   UNL     1      -0.729   1.579   1.268  0.00  0.00    +0.002 C 
ATOM     34  C   UNL     1      -0.717   3.111   1.290  0.00  0.00    +0.112 C 
ATOM     35  C   UNL     1      -0.008   1.045   2.507  0.00  0.00    +0.009 C 
ATOM     36  C   UNL     1      -2.198   1.093  -1.204  0.00  0.00    +0.009 C 
ENDBRANCH  26  29
ENDBRANCH  23  26
ENDBRANCH   2  20
TORSDOF 7
