REMARK  Name = ZINC06197036
REMARK  8 active torsions:
REMARK  status: ('A' for Active; 'I' for Inactive)
REMARK    1  A    between atoms: C_1  and  C_2
REMARK    2  A    between atoms: C_2  and  O_3
REMARK    3  A    between atoms: O_3  and  C_4
REMARK    4  A    between atoms: C_11  and  C_16
REMARK    5  A    between atoms: C_16  and  C_18
REMARK    6  A    between atoms: C_16  and  N_74
REMARK    7  A    between atoms: N_22  and  C_23
REMARK    8  A    between atoms: C_23  and  C_24
REMARK                            x       y       z     vdW  Elec       q    Type
REMARK                         _______ _______ _______ _____ _____    ______ ____
ROOT
ATOM      1  C   UNL     1       1.667   6.426  -1.702  0.00  0.00    +0.039 C 
ENDROOT
BRANCH   1   9
ATOM      2  C   UNL     1       4.098  10.983   1.725  0.00  0.00    +0.121 A 
ATOM      3  C   UNL     1       4.631  11.705   0.659  0.00  0.00    +0.047 A 
ATOM      4  C   UNL     1       4.480  11.258  -0.635  0.00  0.00    +0.030 A 
ATOM      5  C   UNL     1       3.791  10.076  -0.887  0.00  0.00    +0.049 A 
ATOM      6  C   UNL     1       3.252   9.345   0.187  0.00  0.00    +0.002 A 
ATOM      7  C   UNL     1       3.411   9.808   1.497  0.00  0.00    +0.055 A 
ATOM      8  C   UNL     1       2.529   8.102  -0.092  0.00  0.00    +0.017 A 
ATOM      9  C   UNL     1       2.405   7.700  -1.381  0.00  0.00    +0.011 A 
ATOM     10  C   UNL     1       2.970   8.467  -2.422  0.00  0.00    +0.251 A 
ATOM     11  O   UNL     1       2.851   8.085  -3.574  0.00  0.00    -0.268 OA
ATOM     12  N   UNL     1       3.630   9.612  -2.177  0.00  0.00    -0.322 N 
ATOM     13  H   UNL     1       4.010  10.135  -2.940  0.00  0.00    +0.169 HD
BRANCH   2  14
ATOM     14  O   UNL     1       4.256  11.439   2.996  0.00  0.00    -0.492 OA
BRANCH  14  16
ATOM     15  C   UNL     1       5.052  13.012   4.650  0.00  0.00    +0.048 C 
ATOM     16  C   UNL     1       4.978  12.661   3.162  0.00  0.00    +0.225 C 
ENDBRANCH  14  16
ENDBRANCH   2  14
ENDBRANCH   1   9
BRANCH   1  27
ATOM     17  C   UNL     1      -0.010   5.463  -3.159  0.00  0.00    -0.077 C 
ATOM     18  C   UNL     1      -0.998   5.780  -4.284  0.00  0.00    -0.018 C 
ATOM     19  C   UNL     1      -2.068   6.741  -3.760  0.00  0.00    +0.003 C 
ATOM     20  C   UNL     1      -1.391   8.007  -3.229  0.00  0.00    -0.044 C 
ATOM     21  C   UNL     1      -0.391   7.626  -2.135  0.00  0.00    -0.071 C 
ATOM     22  C   UNL     1      -0.654   8.708  -4.372  0.00  0.00    +0.005 C 
ATOM     23  C   UNL     1       0.022   9.974  -3.844  0.00  0.00    +0.000 C 
ATOM     24  C   UNL     1      -1.038  10.915  -3.268  0.00  0.00    +0.000 C 
ATOM     25  C   UNL     1      -1.772  10.215  -2.123  0.00  0.00    +0.000 C 
ATOM     26  C   UNL     1      -2.449   8.948  -2.650  0.00  0.00    +0.005 C 
ATOM     27  N   UNL     1       0.626   6.719  -2.709  0.00  0.00    +0.390 N 
ATOM     28  H   UNL     1       1.063   7.179  -3.517  0.00  0.00    -0.080 HD
ENDBRANCH   1  27
BRANCH   1  29
ATOM     29  C   UNL     1       2.630   5.417  -2.272  0.00  0.00    +0.143 A 
ATOM     30  N   UNL     1       3.144   5.420  -3.478  0.00  0.00    -0.115 NA
ATOM     31  N   UNL     1       3.920   4.397  -3.582  0.00  0.00    -0.023 NA
ATOM     32  N   UNL     1       3.919   3.745  -2.472  0.00  0.00    -0.044 NA
ATOM     33  N   UNL     1       3.131   4.339  -1.641  0.00  0.00    -0.226 N 
BRANCH  33  34
ATOM     34  C   UNL     1       2.842   3.923  -0.267  0.00  0.00    +0.182 C 
BRANCH  34  35
ATOM     35  C   UNL     1       1.651   3.000  -0.262  0.00  0.00    -0.026 A 
ATOM     36  C   UNL     1       1.833   1.635  -0.391  0.00  0.00    +0.005 A 
ATOM     37  C   UNL     1       0.741   0.789  -0.387  0.00  0.00    +0.000 A 
ATOM     38  C   UNL     1      -0.534   1.306  -0.258  0.00  0.00    +0.000 A 
ATOM     39  C   UNL     1      -0.717   2.670  -0.123  0.00  0.00    +0.000 A 
ATOM     40  C   UNL     1       0.376   3.517  -0.128  0.00  0.00    +0.005 A 
ENDBRANCH  34  35
ENDBRANCH  33  34
ENDBRANCH   1  29
TORSDOF 7
