REMARK  Name = ZINC60369009
REMARK  11 active torsions:
REMARK  status: ('A' for Active; 'I' for Inactive)
REMARK    1  A    between atoms: C_1  and  C_2
REMARK    2  A    between atoms: C_2  and  C_3
REMARK    3  A    between atoms: C_2  and  C_4
REMARK    4  A    between atoms: C_2  and  O_5
REMARK    5  A    between atoms: O_5  and  C_6
REMARK    6  A    between atoms: C_12  and  C_15
REMARK    7  A    between atoms: N_17  and  N_18
REMARK    8  A    between atoms: N_18  and  C_19
REMARK    9  A    between atoms: C_22  and  S_25
REMARK   10  A    between atoms: S_25  and  N_28
REMARK   11  A    between atoms: N_28  and  C_29
REMARK                            x       y       z     vdW  Elec       q    Type
REMARK                         _______ _______ _______ _____ _____    ______ ____
ROOT
ATOM      1  C   UNL     1       5.639   0.868  -4.257  0.00  0.00    +0.234 C 
ATOM      2  O   UNL     1       6.196   0.366  -5.210  0.00  0.00    -0.274 OA
ATOM      3  N   UNL     1       6.318   1.694  -3.437  0.00  0.00    -0.236 N 
ATOM      4  H   UNL     1       5.872   2.095  -2.675  0.00  0.00    +0.173 HD
ENDROOT
BRANCH   1  11
ATOM      5  C   UNL     1       1.952  -0.085  -1.337  0.00  0.00    +0.403 C 
ATOM      6  O   UNL     1       2.488   0.619  -0.503  0.00  0.00    -0.226 OA
ATOM      7  N   UNL     1       2.641  -0.485  -2.424  0.00  0.00    -0.267 N 
ATOM      8  C   UNL     1       2.005  -1.331  -3.443  0.00  0.00    +0.111 C 
ATOM      9  C   UNL     1       2.172  -0.664  -4.812  0.00  0.00    +0.020 C 
ATOM     10  C   UNL     1       3.656  -0.387  -5.062  0.00  0.00    +0.016 C 
ATOM     11  C   UNL     1       4.186   0.570  -3.991  0.00  0.00    +0.094 C 
ATOM     12  C   UNL     1       4.040  -0.078  -2.616  0.00  0.00    +0.124 C 
BRANCH   5  13
ATOM     13  O   UNL     1       0.671  -0.465  -1.174  0.00  0.00    -0.445 OA
BRANCH  13  15
ATOM     14  C   UNL     1      -0.019   1.526   0.010  0.00  0.00    +0.055 C 
ATOM     15  C   UNL     1       0.002  -0.004   0.002  0.00  0.00    +0.107 C 
ATOM     16  C   UNL     1       0.742  -0.511   1.242  0.00  0.00    +0.055 C 
ATOM     17  C   UNL     1      -1.433  -0.534   0.013  0.00  0.00    +0.055 C 
ENDBRANCH  13  15
ENDBRANCH   5  13
ENDBRANCH   1  11
BRANCH   3  18
ATOM     18  N   UNL     1       7.669   1.971  -3.684  0.00  0.00    -0.264 N 
ATOM     19  H   UNL     1       8.115   1.569  -4.446  0.00  0.00    +0.170 HD
BRANCH  18  20
ATOM     20  C   UNL     1       8.373   2.826  -2.834  0.00  0.00    +0.045 A 
ATOM     21  C   UNL     1       7.738   3.398  -1.739  0.00  0.00    +0.026 A 
ATOM     22  C   UNL     1       8.437   4.243  -0.900  0.00  0.00    +0.030 A 
ATOM     23  C   UNL     1       9.769   4.520  -1.149  0.00  0.00    +0.105 A 
ATOM     24  C   UNL     1      10.405   3.953  -2.238  0.00  0.00    +0.030 A 
ATOM     25  C   UNL     1       9.713   3.103  -3.078  0.00  0.00    +0.026 A 
BRANCH  23  26
ATOM     26  S   UNL     1      10.658   5.599  -0.076  0.00  0.00    +0.059 S 
ATOM     27  O   UNL     1      11.737   6.128  -0.834  0.00  0.00    -0.153 OA
ATOM     28  O   UNL     1       9.693   6.429   0.556  0.00  0.00    -0.153 OA
BRANCH  26  29
ATOM     29  N   UNL     1      11.329   4.663   1.114  0.00  0.00    -0.187 NA
ATOM     30  H   UNL     1      11.043   4.771   2.035  0.00  0.00    +0.148 HD
BRANCH  29  31
ATOM     31  C   UNL     1      12.354   3.672   0.776  0.00  0.00    +0.077 C 
ATOM     32  C   UNL     1      12.386   2.381   1.595  0.00  0.00    +0.022 C 
ATOM     33  C   UNL     1      13.473   3.439   1.792  0.00  0.00    +0.022 C 
ENDBRANCH  29  31
ENDBRANCH  26  29
ENDBRANCH  23  26
ENDBRANCH  18  20
ENDBRANCH   3  18
TORSDOF 8
