REMARK  Name = ZINC23444425
REMARK  7 active torsions:
REMARK  status: ('A' for Active; 'I' for Inactive)
REMARK    1  A    between atoms: C_1  and  C_2
REMARK    2  A    between atoms: C_9  and  S_12
REMARK    3  A    between atoms: S_12  and  C_13
REMARK    4  A    between atoms: C_13  and  C_15
REMARK    5  A    between atoms: C_13  and  C_16
REMARK    6  A    between atoms: N_18  and  C_19
REMARK    7  A    between atoms: C_22  and  C_25
REMARK                            x       y       z     vdW  Elec       q    Type
REMARK                         _______ _______ _______ _____ _____    ______ ____
ROOT
ATOM      1  C   UNL     1      -0.039   4.303  -0.129  0.00  0.00    +0.137 C 
ATOM      2  C   UNL     1      -0.944   3.966  -1.315  0.00  0.00    +0.029 C 
ENDROOT
BRANCH   1   3
ATOM      3  C   UNL     1       0.078   5.799   0.004  0.00  0.00    +0.230 C 
ATOM      4  O   UNL     1       1.014   6.382  -0.503  0.00  0.00    -0.274 OA
ATOM      5  N   UNL     1      -0.856   6.491   0.686  0.00  0.00    -0.285 N 
ATOM      6  H   UNL     1      -1.749   5.976   1.072  0.00  0.00    +0.155 HD
BRANCH   5   7
ATOM      7  C   UNL     1      -0.691   7.859   0.904  0.00  0.00    +0.033 A 
ATOM      8  C   UNL     1       0.584   8.384   1.088  0.00  0.00    +0.024 A 
ATOM      9  C   UNL     1       0.751   9.735   1.297  0.00  0.00    +0.020 A 
ATOM     10  C   UNL     1      -0.363  10.577   1.335  0.00  0.00    +0.052 A 
ATOM     11  C   UNL     1      -1.643  10.046   1.156  0.00  0.00    +0.020 A 
ATOM     12  C   UNL     1      -1.802   8.695   0.942  0.00  0.00    +0.024 A 
BRANCH  10  13
ATOM     13  C   UNL     1      -0.194  11.982   1.558  0.00  0.00    +0.099 C 
ATOM     14  N   UNL     1      -0.059  13.096   1.734  0.00  0.00    -0.191 NA
ENDBRANCH  10  13
ENDBRANCH   5   7
ENDBRANCH   1   3
BRANCH   1  15
ATOM     15  S   UNL     1       1.602   3.591  -0.401  0.00  0.00    -0.075 S 
BRANCH  15  24
ATOM     16  C   UNL     1      -1.595  -3.371  -0.019  0.00  0.00    +0.044 C 
ATOM     17  C   UNL     1      -0.551  -2.294  -0.164  0.00  0.00    -0.048 A 
ATOM     18  C   UNL     1       0.774  -2.644  -0.379  0.00  0.00    +0.005 A 
ATOM     19  C   UNL     1       1.741  -1.670  -0.514  0.00  0.00    +0.028 A 
ATOM     20  C   UNL     1       1.388  -0.331  -0.435  0.00  0.00    +0.067 A 
ATOM     21  C   UNL     1       0.048   0.029  -0.217  0.00  0.00    +0.090 A 
ATOM     22  C   UNL     1      -0.919  -0.970  -0.083  0.00  0.00    +0.033 A 
ATOM     23  N   UNL     1      -0.002   1.387  -0.186  0.00  0.00    -0.222 NA
ATOM     24  C   UNL     1       1.201   1.875  -0.367  0.00  0.00    +0.168 A 
ATOM     25  N   UNL     1       2.097   0.856  -0.526  0.00  0.00    -0.333 N 
ATOM     26  H   UNL     1       3.183   0.836  -0.697  0.00  0.00    +0.168 HD
ENDBRANCH  15  24
ENDBRANCH   1  15
TORSDOF 5
