REMARK  Name = ZINC26772032
REMARK  8 active torsions:
REMARK  status: ('A' for Active; 'I' for Inactive)
REMARK    1  A    between atoms: C_1  and  C_2
REMARK    2  A    between atoms: C_2  and  C_3
REMARK    3  A    between atoms: C_2  and  C_4
REMARK    4  A    between atoms: C_7  and  C_10
REMARK    5  A    between atoms: N_29  and  C_32
REMARK    6  A    between atoms: C_32  and  C_33
REMARK    7  A    between atoms: C_33  and  C_34
REMARK    8  A    between atoms: C_34  and  O_35
REMARK                            x       y       z     vdW  Elec       q    Type
REMARK                         _______ _______ _______ _____ _____    ______ ____
ROOT
ATOM      1  C   UNL     1       0.002  -0.004   0.002  0.00  0.00    +0.154 C 
ATOM      2  C   UNL     1      -0.101  -0.527   1.417  0.00  0.00    +0.046 A 
ATOM      3  C   UNL     1      -0.968  -1.492   1.793  0.00  0.00    -0.015 A 
ATOM      4  C   UNL     1      -0.763  -1.716   3.210  0.00  0.00    +0.003 A 
ATOM      5  C   UNL     1      -1.362  -2.583   4.129  0.00  0.00    +0.010 A 
ATOM      6  C   UNL     1      -0.908  -2.525   5.423  0.00  0.00    +0.001 A 
ATOM      7  C   UNL     1       0.094  -1.652   5.814  0.00  0.00    +0.002 A 
ATOM      8  C   UNL     1       0.704  -0.783   4.926  0.00  0.00    +0.026 A 
ATOM      9  C   UNL     1       0.264  -0.820   3.604  0.00  0.00    +0.047 A 
ATOM     10  N   UNL     1       0.639  -0.119   2.494  0.00  0.00    -0.356 N 
ATOM     11  H   UNL     1       1.399   0.667   2.373  0.00  0.00    +0.166 HD
ATOM     12  C   UNL     1      -1.947  -2.173   0.872  0.00  0.00    +0.069 C 
ATOM     13  C   UNL     1      -1.514  -1.929  -0.581  0.00  0.00    +0.167 C 
ATOM     14  N   UNL     1      -1.165  -0.518  -0.746  0.00  0.00    -0.276 N 
ATOM     15  C   UNL     1      -1.822   0.322  -1.525  0.00  0.00    +0.234 C 
ATOM     16  O   UNL     1      -1.476   1.484  -1.533  0.00  0.00    -0.274 OA
ATOM     17  C   UNL     1      -2.975  -0.067  -2.392  0.00  0.00    +0.203 C 
ATOM     18  N   UNL     1      -3.263  -1.490  -2.310  0.00  0.00    -0.291 N 
ATOM     19  C   UNL     1      -2.616  -2.332  -1.507  0.00  0.00    +0.237 C 
ATOM     20  O   UNL     1      -2.941  -3.500  -1.529  0.00  0.00    -0.274 OA
ENDROOT
BRANCH   1  24
ATOM     21  C   UNL     1      -0.055   4.267   0.026  0.00  0.00    -0.045 A 
ATOM     22  C   UNL     1      -1.023   3.559   0.714  0.00  0.00    +0.004 A 
ATOM     23  C   UNL     1      -1.004   2.177   0.707  0.00  0.00    +0.006 A 
ATOM     24  C   UNL     1      -0.018   1.503   0.010  0.00  0.00    -0.021 A 
ATOM     25  C   UNL     1       0.952   2.211  -0.674  0.00  0.00    +0.006 A 
ATOM     26  C   UNL     1       0.930   3.593  -0.670  0.00  0.00    +0.004 A 
BRANCH  21  28
ATOM     27  C   UNL     1       1.228   6.298   0.640  0.00  0.00    +0.012 C 
ATOM     28  C   UNL     1      -0.076   5.774   0.034  0.00  0.00    +0.013 C 
ATOM     29  C   UNL     1      -0.216   6.290  -1.399  0.00  0.00    +0.012 C 
ENDBRANCH  21  28
ENDBRANCH   1  24
BRANCH  18  30
ATOM     30  C   UNL     1      -4.327  -2.028  -3.162  0.00  0.00    +0.110 C 
BRANCH  30  31
ATOM     31  C   UNL     1      -5.661  -1.961  -2.415  0.00  0.00    +0.047 C 
BRANCH  31  32
ATOM     32  C   UNL     1      -6.771  -2.523  -3.304  0.00  0.00    +0.157 C 
BRANCH  32  33
ATOM     33  O   UNL     1      -8.017  -2.461  -2.607  0.00  0.00    -0.395 OA
ATOM     34  H   UNL     1      -8.937  -2.823  -3.091  0.00  0.00    +0.209 HD
ENDBRANCH  32  33
ENDBRANCH  31  32
ENDBRANCH  30  31
ENDBRANCH  18  30
TORSDOF 6
