REMARK  Name = ZINC15202387
REMARK  8 active torsions:
REMARK  status: ('A' for Active; 'I' for Inactive)
REMARK    1  A    between atoms: C_1  and  C_2
REMARK    2  A    between atoms: C_2  and  C_3
REMARK    3  A    between atoms: C_2  and  C_4
REMARK    4  A    between atoms: C_2  and  C_5
REMARK    5  A    between atoms: C_8  and  S_20
REMARK    6  A    between atoms: C_11  and  C_15
REMARK    7  A    between atoms: C_11  and  O_19
REMARK    8  A    between atoms: S_20  and  C_23
REMARK                            x       y       z     vdW  Elec       q    Type
REMARK                         _______ _______ _______ _____ _____    ______ ____
ROOT
ATOM      1  C   UNL     1       0.002  -0.004   0.002  0.00  0.00    +0.105 C 
ATOM      2  N   UNL     1       1.024  -0.804  -0.012  0.00  0.00    -0.173 NA
ATOM      3  N   UNL     1       0.870  -2.179  -0.020  0.00  0.00    -0.176 N 
ATOM      4  C   UNL     1       1.985  -3.158  -0.050  0.00  0.00    +0.245 C 
ATOM      5  C   UNL     1       1.463  -4.438  -0.711  0.00  0.00    +0.116 C 
ATOM      6  C   UNL     1       0.212  -4.934   0.018  0.00  0.00    +0.259 C 
ATOM      7  N   UNL     1      -0.815  -3.879   0.005  0.00  0.00    -0.218 NA
ATOM      8  C   UNL     1      -0.433  -2.645  -0.004  0.00  0.00    +0.182 C 
ATOM      9  S   UNL     1      -1.375  -1.144   0.017  0.00  0.00    -0.036 S 
ENDROOT
BRANCH   1  11
ATOM     10  C   UNL     1       1.417   2.032  -0.001  0.00  0.00    +0.018 C 
ATOM     11  C   UNL     1      -0.018   1.503   0.010  0.00  0.00    +0.012 C 
ATOM     12  C   UNL     1      -0.758   2.010  -1.229  0.00  0.00    +0.018 C 
ATOM     13  C   UNL     1      -0.735   1.996   1.269  0.00  0.00    +0.018 C 
ENDBRANCH   1  11
BRANCH   6  14
ATOM     14  C   UNL     1      -0.329  -6.179  -0.688  0.00  0.00    +0.439 C 
ATOM     15  F   UNL     1       0.646  -7.183  -0.675  0.00  0.00    -0.166 F 
ATOM     16  F   UNL     1      -1.473  -6.633  -0.022  0.00  0.00    -0.166 F 
ATOM     17  F   UNL     1      -0.654  -5.862  -2.011  0.00  0.00    -0.166 F 
ENDBRANCH   6  14
BRANCH   4  18
ATOM     18  S   UNL     1       3.366  -2.487  -1.016  0.00  0.00    -0.013 S 
ATOM     19  O   UNL     1       4.460  -3.389  -0.923  0.00  0.00    -0.173 OA
ATOM     20  O   UNL     1       2.881  -2.120  -2.300  0.00  0.00    -0.173 OA
ATOM     21  C   UNL     1       3.792  -0.974  -0.110  0.00  0.00    +0.196 C 
ENDBRANCH   4  18
BRANCH   6  22
ATOM     22  O   UNL     1       0.544  -5.259   1.369  0.00  0.00    -0.361 OA
ATOM     23  H   UNL     1      -0.203  -5.581   1.891  0.00  0.00    +0.213 HD
ENDBRANCH   6  22
TORSDOF 4
