REMARK  Name = ZINC39653369
REMARK  11 active torsions:
REMARK  status: ('A' for Active; 'I' for Inactive)
REMARK    1  A    between atoms: C_1  and  C_2
REMARK    2  A    between atoms: C_2  and  O_3
REMARK    3  A    between atoms: O_3  and  C_4
REMARK    4  A    between atoms: C_6  and  C_12
REMARK    5  A    between atoms: C_9  and  O_10
REMARK    6  A    between atoms: O_10  and  C_11
REMARK    7  A    between atoms: C_12  and  C_13
REMARK    8  A    between atoms: C_13  and  N_14
REMARK    9  A    between atoms: C_15  and  C_17
REMARK   10  A    between atoms: C_28  and  C_30
REMARK   11  A    between atoms: C_34  and  C_37
REMARK                            x       y       z     vdW  Elec       q    Type
REMARK                         _______ _______ _______ _____ _____    ______ ____
ROOT
ATOM      1  C   UNL     1       3.997  -7.452   2.564  0.00  0.00    +0.100 C 
ATOM      2  C   UNL     1       5.159  -6.787   1.792  0.00  0.00    +0.121 C 
ATOM      3  N   UNL     1       5.972  -6.124   2.839  0.00  0.00    -0.296 N 
ATOM      4  C   UNL     1       5.965  -7.081   3.972  0.00  0.00    +0.115 C 
ATOM      5  C   UNL     1       4.531  -7.647   3.992  0.00  0.00    -0.004 C 
ATOM      6  C   UNL     1       4.554  -9.130   4.351  0.00  0.00    -0.010 C 
ATOM      7  C   UNL     1       5.034  -9.294   5.795  0.00  0.00    -0.082 C 
ATOM      8  N   UNL     1       4.134  -8.566   6.698  0.00  0.00    +0.379 N 
ATOM      9  C   UNL     1       4.189  -7.128   6.407  0.00  0.00    -0.082 C 
ATOM     10  C   UNL     1       3.673  -6.872   4.988  0.00  0.00    -0.010 C 
ATOM     11  C   UNL     1       6.581  -4.924   2.776  0.00  0.00    +0.252 C 
ATOM     12  O   UNL     1       7.218  -4.514   3.727  0.00  0.00    -0.270 OA
ATOM     13  H   UNL     1       3.189  -8.898   6.569  0.00  0.00    -0.086 HD
ATOM     14  H   UNL     1       4.416  -8.725   7.653  0.00  0.00    -0.086 HD
ENDROOT
BRANCH  11  15
ATOM     15  C   UNL     1       6.473  -4.106   1.552  0.00  0.00    +0.107 A 
ATOM     16  C   UNL     1       5.430  -3.184   1.411  0.00  0.00    +0.138 A 
ATOM     17  C   UNL     1       5.338  -2.422   0.262  0.00  0.00    +0.039 A 
ATOM     18  C   UNL     1       6.272  -2.568  -0.747  0.00  0.00    +0.009 A 
ATOM     19  C   UNL     1       7.306  -3.477  -0.616  0.00  0.00    -0.014 A 
ATOM     20  C   UNL     1       7.417  -4.244   0.529  0.00  0.00    +0.141 A 
ATOM     21  F   UNL     1       8.432  -5.127   0.658  0.00  0.00    -0.204 F 
ATOM     22  C   UNL     1       8.318  -3.629  -1.722  0.00  0.00    +0.047 C 
ATOM     23  F   UNL     1       4.516  -3.040   2.396  0.00  0.00    -0.205 F 
ENDBRANCH  11  15
BRANCH   1  25
ATOM     24  N   UNL     1       1.553  -7.081   2.655  0.00  0.00    -0.315 N 
ATOM     25  C   UNL     1       2.789  -6.551   2.574  0.00  0.00    +0.218 C 
ATOM     26  O   UNL     1       2.930  -5.348   2.509  0.00  0.00    -0.275 OA
ATOM     27  H   UNL     1       1.440  -8.043   2.707  0.00  0.00    +0.149 HD
BRANCH  24  28
ATOM     28  C   UNL     1       0.379  -6.204   2.665  0.00  0.00    +0.109 C 
BRANCH  28  29
ATOM     29  C   UNL     1      -0.890  -7.053   2.763  0.00  0.00    +0.054 C 
BRANCH  29  32
ATOM     30  C   UNL     1      -3.814  -4.968   1.590  0.00  0.00    +0.162 A 
ATOM     31  C   UNL     1      -2.704  -5.797   1.582  0.00  0.00    +0.053 A 
ATOM     32  C   UNL     1      -2.098  -6.151   2.773  0.00  0.00    -0.042 A 
ATOM     33  C   UNL     1      -2.597  -5.681   3.973  0.00  0.00    +0.007 A 
ATOM     34  C   UNL     1      -3.705  -4.854   3.988  0.00  0.00    +0.049 A 
ATOM     35  C   UNL     1      -4.313  -4.489   2.797  0.00  0.00    +0.162 A 
BRANCH  35  36
ATOM     36  O   UNL     1      -5.399  -3.671   2.809  0.00  0.00    -0.491 OA
ATOM     37  C   UNL     1      -5.856  -3.219   4.085  0.00  0.00    +0.277 C 
ENDBRANCH  35  36
BRANCH  30  38
ATOM     38  O   UNL     1      -4.411  -4.618   0.419  0.00  0.00    -0.489 OA
BRANCH  38  40
ATOM     39  C   UNL     1      -4.645  -4.647  -1.986  0.00  0.00    +0.048 C 
ATOM     40  C   UNL     1      -3.845  -5.146  -0.782  0.00  0.00    +0.226 C 
ENDBRANCH  38  40
ENDBRANCH  30  38
ENDBRANCH  29  32
ENDBRANCH  28  29
ENDBRANCH  24  28
ENDBRANCH   1  25
TORSDOF 8
