REMARK  Name = ZINC12714938
REMARK  12 active torsions:
REMARK  status: ('A' for Active; 'I' for Inactive)
REMARK    1  A    between atoms: C_1  and  C_2
REMARK    2  A    between atoms: C_5  and  C_7
REMARK    3  A    between atoms: C_7  and  C_9
REMARK    4  A    between atoms: C_7  and  N_19
REMARK    5  A    between atoms: N_11  and  C_12
REMARK    6  A    between atoms: C_12  and  C_13
REMARK    7  A    between atoms: N_19  and  C_20
REMARK    8  A    between atoms: C_22  and  C_27
REMARK    9  A    between atoms: C_24  and  C_26
REMARK   10  A    between atoms: C_28  and  C_30
REMARK   11  A    between atoms: C_31  and  N_38
REMARK   12  A    between atoms: C_32  and  C_35
REMARK                            x       y       z     vdW  Elec       q    Type
REMARK                         _______ _______ _______ _____ _____    ______ ____
ROOT
ATOM      1  N   UNL     1       2.540  -2.876   0.192  0.00  0.00    -0.248 N 
ATOM      2  C   UNL     1       2.339  -3.530   1.353  0.00  0.00    +0.262 C 
ATOM      3  O   UNL     1       1.639  -4.526   1.377  0.00  0.00    -0.269 OA
ENDROOT
BRANCH   1   4
ATOM      4  C   UNL     1       3.424  -1.793   0.144  0.00  0.00    +0.038 A 
ATOM      5  C   UNL     1       2.947  -0.498   0.301  0.00  0.00    +0.027 A 
ATOM      6  C   UNL     1       3.823   0.569   0.254  0.00  0.00    -0.048 A 
ATOM      7  C   UNL     1       5.173   0.349   0.049  0.00  0.00    +0.006 A 
ATOM      8  C   UNL     1       5.651  -0.939  -0.108  0.00  0.00    -0.048 A 
ATOM      9  C   UNL     1       4.781  -2.011  -0.055  0.00  0.00    +0.027 A 
ATOM     10  C   UNL     1       7.122  -1.174  -0.331  0.00  0.00    +0.044 C 
ATOM     11  C   UNL     1       3.307   1.974   0.424  0.00  0.00    +0.044 C 
ENDBRANCH   1   4
BRANCH   2  12
ATOM     12  C   UNL     1       2.961  -3.042   2.586  0.00  0.00    +0.116 A 
ATOM     13  C   UNL     1       2.991  -3.628   3.852  0.00  0.00    +0.076 A 
ATOM     14  C   UNL     1       3.683  -2.872   4.796  0.00  0.00    +0.155 A 
ATOM     15  N   UNL     1       4.224  -1.726   4.439  0.00  0.00    -0.203 NA
ATOM     16  S   UNL     1       3.888  -1.547   2.867  0.00  0.00    +0.019 S 
BRANCH  14  17
ATOM     17  C   UNL     1       3.807  -3.351   6.185  0.00  0.00    +0.262 C 
ATOM     18  O   UNL     1       3.396  -4.455   6.487  0.00  0.00    -0.269 OA
ATOM     19  N   UNL     1       4.376  -2.565   7.121  0.00  0.00    -0.324 N 
ATOM     20  H   UNL     1       4.704  -1.685   6.880  0.00  0.00    +0.145 HD
ATOM     21  H   UNL     1       4.458  -2.880   8.034  0.00  0.00    +0.145 HD
ENDBRANCH  14  17
BRANCH  13  22
ATOM     22  N   UNL     1       2.390  -4.845   4.143  0.00  0.00    -0.355 N 
ATOM     23  H   UNL     1       2.018  -5.386   3.429  0.00  0.00    +0.142 HD
ATOM     24  H   UNL     1       2.341  -5.155   5.061  0.00  0.00    +0.142 HD
ENDBRANCH  13  22
ENDBRANCH   2  12
BRANCH   1  25
ATOM     25  C   UNL     1       1.834  -3.299  -1.019  0.00  0.00    +0.233 C 
BRANCH  25  30
ATOM     26  C   UNL     1       0.963   1.294  -2.912  0.00  0.00    +0.086 C 
ATOM     27  C   UNL     1       0.739  -0.120  -2.444  0.00  0.00    +0.102 A 
ATOM     28  C   UNL     1      -0.432  -0.782  -2.474  0.00  0.00    +0.045 A 
ATOM     29  C   UNL     1      -0.188  -2.070  -1.944  0.00  0.00    +0.047 A 
ATOM     30  C   UNL     1       1.117  -2.118  -1.622  0.00  0.00    +0.135 A 
ATOM     31  O   UNL     1       1.675  -0.936  -1.932  0.00  0.00    -0.462 OA
ENDBRANCH  25  30
BRANCH  25  32
ATOM     32  C   UNL     1       2.825  -3.846  -2.014  0.00  0.00    +0.242 C 
ATOM     33  O   UNL     1       4.006  -3.879  -1.738  0.00  0.00    -0.273 OA
ATOM     34  N   UNL     1       2.400  -4.298  -3.210  0.00  0.00    -0.311 N 
ATOM     35  H   UNL     1       1.456  -4.272  -3.431  0.00  0.00    +0.149 HD
BRANCH  34  36
ATOM     36  C   UNL     1       3.364  -4.830  -4.177  0.00  0.00    +0.135 C 
BRANCH  36  37
ATOM     37  C   UNL     1       2.626  -5.272  -5.442  0.00  0.00    +0.135 C 
ATOM     38  C   UNL     1       3.615  -5.944  -6.418  0.00  0.00    +0.035 C 
ATOM     39  C   UNL     1       3.131  -5.414  -7.795  0.00  0.00    +0.031 C 
ATOM     40  C   UNL     1       2.654  -3.990  -7.412  0.00  0.00    +0.160 C 
ATOM     41  O   UNL     1       2.070  -4.130  -6.105  0.00  0.00    -0.375 OA
ENDBRANCH  36  37
ENDBRANCH  34  36
ENDBRANCH  25  32
ENDBRANCH   1  25
TORSDOF 9
