REMARK  Name = ZINC08741583
REMARK  5 active torsions:
REMARK  status: ('A' for Active; 'I' for Inactive)
REMARK    1  A    between atoms: C_4  and  N_7
REMARK    2  A    between atoms: C_8  and  C_31
REMARK    3  A    between atoms: N_17  and  C_20
REMARK    4  A    between atoms: C_21  and  C_29
REMARK    5  A    between atoms: C_34  and  N_37
REMARK                            x       y       z     vdW  Elec       q    Type
REMARK                         _______ _______ _______ _____ _____    ______ ____
ROOT
ATOM      1  N   UNL     1       6.497   0.565  -0.930  0.00  0.00    -0.244 N 
ATOM      2  C   UNL     1       5.691   1.514  -0.102  0.00  0.00    +0.157 C 
ATOM      3  C   UNL     1       4.602   0.624   0.509  0.00  0.00    +0.145 C 
ATOM      4  C   UNL     1       4.480  -0.392  -0.694  0.00  0.00    +0.249 C 
ATOM      5  O   UNL     1       5.782  -0.747  -0.912  0.00  0.00    -0.257 OA
ATOM      6  C   UNL     1       3.174  -0.973  -0.453  0.00  0.00    +0.259 C 
ATOM      7  O   UNL     1       2.822  -2.112  -0.676  0.00  0.00    -0.272 OA
ATOM      8  N   UNL     1       2.424   0.042   0.080  0.00  0.00    -0.200 N 
ATOM      9  C   UNL     1       3.177   1.115   0.455  0.00  0.00    +0.235 C 
ATOM     10  O   UNL     1       2.781   2.235   0.698  0.00  0.00    -0.274 OA
ENDROOT
BRANCH   8  11
ATOM     11  C   UNL     1       1.040  -0.014   0.219  0.00  0.00    +0.099 A 
ATOM     12  C   UNL     1       0.301  -0.564   1.254  0.00  0.00    +0.084 A 
ATOM     13  C   UNL     1      -1.146  -0.498   1.156  0.00  0.00    -0.018 A 
ATOM     14  C   UNL     1      -1.620   0.114   0.047  0.00  0.00    -0.004 A 
ATOM     15  S   UNL     1      -0.175   0.585  -0.860  0.00  0.00    -0.076 S 
ATOM     16  C   UNL     1      -3.055   0.330  -0.321  0.00  0.00    +0.043 C 
ATOM     17  C   UNL     1      -3.924  -0.570   0.570  0.00  0.00    +0.005 C 
ATOM     18  C   UNL     1      -3.471  -0.409   2.024  0.00  0.00    +0.005 C 
ATOM     19  C   UNL     1      -2.094  -1.049   2.214  0.00  0.00    +0.037 C 
BRANCH  12  20
ATOM     20  C   UNL     1       0.941  -1.180   2.377  0.00  0.00    +0.102 C 
ATOM     21  N   UNL     1       1.448  -1.669   3.269  0.00  0.00    -0.191 NA
ENDBRANCH  12  20
ENDBRANCH   8  11
BRANCH   1  25
ATOM     22  C   UNL     1      10.352   0.160   0.590  0.00  0.00    +0.000 A 
ATOM     23  C   UNL     1       9.443  -0.872   0.731  0.00  0.00    +0.002 A 
ATOM     24  C   UNL     1       8.163  -0.741   0.228  0.00  0.00    +0.028 A 
ATOM     25  C   UNL     1       7.790   0.430  -0.420  0.00  0.00    +0.065 A 
ATOM     26  C   UNL     1       8.707   1.463  -0.564  0.00  0.00    +0.028 A 
ATOM     27  C   UNL     1       9.983   1.327  -0.054  0.00  0.00    +0.002 A 
ENDBRANCH   1  25
BRANCH   2  28
ATOM     28  C   UNL     1       6.539   2.131   0.980  0.00  0.00    -0.022 A 
ATOM     29  C   UNL     1       7.077   1.336   1.974  0.00  0.00    +0.008 A 
ATOM     30  C   UNL     1       7.860   1.901   2.964  0.00  0.00    +0.033 A 
ATOM     31  C   UNL     1       8.095   3.264   2.964  0.00  0.00    +0.126 A 
ATOM     32  C   UNL     1       7.553   4.059   1.973  0.00  0.00    +0.033 A 
ATOM     33  C   UNL     1       6.775   3.493   0.980  0.00  0.00    +0.008 A 
BRANCH  31  34
ATOM     34  N   UNL     1       8.929   3.870   4.026  0.00  0.00    +0.056 N 
ATOM     35  O   UNL     1       9.137   5.070   4.027  0.00  0.00    -0.126 OA
ATOM     36  O   UNL     1       9.407   3.169   4.900  0.00  0.00    -0.126 OA
ENDBRANCH  31  34
ENDBRANCH   2  28
TORSDOF 5
