REMARK  Name = ZINC00883888
REMARK  9 active torsions:
REMARK  status: ('A' for Active; 'I' for Inactive)
REMARK    1  A    between atoms: C_1  and  C_2
REMARK    2  A    between atoms: C_2  and  O_3
REMARK    3  A    between atoms: O_3  and  C_4
REMARK    4  A    between atoms: C_6  and  C_11
REMARK    5  A    between atoms: C_9  and  O_10
REMARK    6  A    between atoms: C_12  and  N_21
REMARK    7  A    between atoms: C_17  and  C_20
REMARK    8  A    between atoms: N_21  and  C_22
REMARK    9  A    between atoms: C_22  and  C_23
REMARK                            x       y       z     vdW  Elec       q    Type
REMARK                         _______ _______ _______ _____ _____    ______ ____
ROOT
ATOM      1  C   UNL     1      -0.215  -4.966   0.454  0.00  0.00    +0.087 A 
ATOM      2  C   UNL     1       0.408  -6.078   0.980  0.00  0.00    +0.129 A 
ATOM      3  N   UNL     1      -0.463  -6.635   1.875  0.00  0.00    -0.289 N 
ATOM      4  C   UNL     1      -0.377  -7.739   2.680  0.00  0.00    +0.094 A 
ATOM      5  C   UNL     1      -1.401  -8.079   3.489  0.00  0.00    +0.018 A 
ATOM      6  C   UNL     1      -2.573  -7.303   3.516  0.00  0.00    +0.008 A 
ATOM      7  C   UNL     1      -2.675  -6.204   2.722  0.00  0.00    -0.009 A 
ATOM      8  C   UNL     1      -1.598  -5.857   1.879  0.00  0.00    +0.120 A 
ATOM      9  N   UNL     1      -1.429  -4.860   1.026  0.00  0.00    -0.338 N 
ATOM     10  C   UNL     1      -3.927  -5.366   2.741  0.00  0.00    +0.047 C 
ATOM     11  H   UNL     1      -2.078  -4.163   0.841  0.00  0.00    +0.167 HD
ENDROOT
BRANCH   1  14
ATOM     12  C   UNL     1       0.777  -1.811  -1.336  0.00  0.00    +0.162 A 
ATOM     13  C   UNL     1       0.244  -2.666  -0.389  0.00  0.00    +0.059 A 
ATOM     14  C   UNL     1       0.354  -4.046  -0.558  0.00  0.00    +0.005 A 
ATOM     15  C   UNL     1       1.000  -4.558  -1.683  0.00  0.00    +0.014 A 
ATOM     16  C   UNL     1       1.530  -3.700  -2.625  0.00  0.00    +0.050 A 
ATOM     17  C   UNL     1       1.417  -2.329  -2.459  0.00  0.00    +0.158 A 
BRANCH  17  18
ATOM     18  O   UNL     1       1.935  -1.487  -3.393  0.00  0.00    -0.503 OA
ATOM     19  H   UNL     1       2.854  -1.235  -3.229  0.00  0.00    +0.292 HD
ENDBRANCH  17  18
BRANCH  12  20
ATOM     20  O   UNL     1       0.671  -0.465  -1.174  0.00  0.00    -0.489 OA
BRANCH  20  22
ATOM     21  C   UNL     1      -0.019   1.526   0.010  0.00  0.00    +0.048 C 
ATOM     22  C   UNL     1       0.002  -0.004   0.002  0.00  0.00    +0.226 C 
ENDBRANCH  20  22
ENDBRANCH  12  20
ENDBRANCH   1  14
BRANCH   2  23
ATOM     23  N   UNL     1       1.684  -6.546   0.659  0.00  0.00    -0.326 N 
ATOM     24  H   UNL     1       2.224  -6.074   0.006  0.00  0.00    +0.148 HD
BRANCH  23  25
ATOM     25  C   UNL     1       2.208  -7.750   1.310  0.00  0.00    +0.134 C 
BRANCH  25  26
ATOM     26  C   UNL     1       3.614  -8.042   0.784  0.00  0.00    +0.135 C 
ATOM     27  C   UNL     1       4.173  -9.333   1.434  0.00  0.00    +0.035 C 
ATOM     28  C   UNL     1       5.205  -9.780   0.362  0.00  0.00    +0.031 C 
ATOM     29  C   UNL     1       4.525  -9.338  -0.952  0.00  0.00    +0.160 C 
ATOM     30  O   UNL     1       3.573  -8.317  -0.625  0.00  0.00    -0.375 OA
ENDBRANCH  25  26
ENDBRANCH  23  25
ENDBRANCH   2  23
TORSDOF 7
