REMARK  Name = ZINC28054219
REMARK  8 active torsions:
REMARK  status: ('A' for Active; 'I' for Inactive)
REMARK    1  A    between atoms: C_1  and  C_2
REMARK    2  A    between atoms: C_5  and  C_8
REMARK    3  A    between atoms: C_14  and  C_31
REMARK    4  A    between atoms: C_19  and  C_21
REMARK    5  A    between atoms: C_24  and  O_29
REMARK    6  A    between atoms: C_25  and  O_27
REMARK    7  A    between atoms: O_27  and  C_28
REMARK    8  A    between atoms: O_29  and  C_30
REMARK                            x       y       z     vdW  Elec       q    Type
REMARK                         _______ _______ _______ _____ _____    ______ ____
ROOT
ATOM      1  C   UNL     1      -3.395   2.131   0.360  0.00  0.00    +0.174 C 
ATOM      2  C   UNL     1      -2.125   1.326   0.234  0.00  0.00    +0.025 C 
ATOM      3  C   UNL     1      -0.997   1.843  -0.258  0.00  0.00    +0.050 C 
ATOM      4  C   UNL     1       0.200   0.972  -0.342  0.00  0.00    +0.038 A 
ATOM      5  C   UNL     1       1.475   1.500  -0.500  0.00  0.00    +0.016 A 
ATOM      6  C   UNL     1       2.559   0.648  -0.580  0.00  0.00    -0.050 A 
ATOM      7  C   UNL     1       2.379  -0.722  -0.504  0.00  0.00    +0.007 A 
ATOM      8  C   UNL     1       1.113  -1.256  -0.346  0.00  0.00    +0.046 A 
ATOM      9  C   UNL     1       0.019  -0.415  -0.262  0.00  0.00    +0.131 A 
ATOM     10  O   UNL     1      -1.239  -0.898  -0.101  0.00  0.00    -0.479 OA
ATOM     11  C   UNL     1      -2.138  -0.117   0.686  0.00  0.00    +0.234 C 
ATOM     12  C   UNL     1       3.946   1.213  -0.752  0.00  0.00    +0.044 C 
ATOM     13  N   UNL     1      -0.911   3.171  -0.693  0.00  0.00    -0.282 N 
ATOM     14  C   UNL     1      -2.100   3.859  -0.868  0.00  0.00    +0.240 A 
ATOM     15  N   UNL     1      -3.275   3.377  -0.384  0.00  0.00    -0.201 N 
ATOM     16  N   UNL     1      -4.241   4.310  -0.756  0.00  0.00    -0.042 NA
ATOM     17  N   UNL     1      -3.621   5.246  -1.399  0.00  0.00    -0.021 NA
ATOM     18  N   UNL     1      -2.360   4.986  -1.466  0.00  0.00    -0.092 NA
ATOM     19  H   UNL     1       0.073   3.625  -0.881  0.00  0.00    +0.155 HD
ENDROOT
BRANCH   1  24
ATOM     20  C   UNL     1      -4.369   3.313   5.932  0.00  0.00    +0.044 C 
ATOM     21  C   UNL     1      -4.115   3.005   4.479  0.00  0.00    -0.050 A 
ATOM     22  C   UNL     1      -5.036   2.269   3.757  0.00  0.00    +0.004 A 
ATOM     23  C   UNL     1      -4.803   1.986   2.424  0.00  0.00    +0.006 A 
ATOM     24  C   UNL     1      -3.649   2.439   1.813  0.00  0.00    -0.019 A 
ATOM     25  C   UNL     1      -2.726   3.171   2.536  0.00  0.00    +0.006 A 
ATOM     26  C   UNL     1      -2.961   3.458   3.867  0.00  0.00    +0.004 A 
ENDBRANCH   1  24
BRANCH  11  27
ATOM     27  C   UNL     1      -1.721  -0.187   2.133  0.00  0.00    +0.001 A 
ATOM     28  C   UNL     1      -2.666  -0.433   3.112  0.00  0.00    +0.011 A 
ATOM     29  C   UNL     1      -2.289  -0.498   4.440  0.00  0.00    +0.050 A 
ATOM     30  C   UNL     1      -0.961  -0.318   4.793  0.00  0.00    +0.162 A 
ATOM     31  C   UNL     1      -0.010  -0.072   3.808  0.00  0.00    +0.162 A 
ATOM     32  C   UNL     1      -0.394  -0.012   2.478  0.00  0.00    +0.057 A 
BRANCH  31  33
ATOM     33  O   UNL     1       1.295   0.106   4.149  0.00  0.00    -0.491 OA
ATOM     34  C   UNL     1       2.197   0.464   3.100  0.00  0.00    +0.277 C 
ENDBRANCH  31  33
BRANCH  30  35
ATOM     35  O   UNL     1      -0.588  -0.383   6.099  0.00  0.00    -0.491 OA
ATOM     36  C   UNL     1      -1.618  -0.640   7.056  0.00  0.00    +0.277 C 
ENDBRANCH  30  35
ENDBRANCH  11  27
TORSDOF 4
