REMARK  Name = ZINC39337773
REMARK  13 active torsions:
REMARK  status: ('A' for Active; 'I' for Inactive)
REMARK    1  A    between atoms: C_1  and  C_2
REMARK    2  A    between atoms: C_2  and  C_4
REMARK    3  A    between atoms: C_2  and  C_36
REMARK    4  A    between atoms: C_4  and  N_5
REMARK    5  A    between atoms: N_5  and  C_6
REMARK    6  A    between atoms: N_12  and  C_25
REMARK    7  A    between atoms: C_13  and  C_21
REMARK    8  A    between atoms: C_15  and  N_17
REMARK    9  A    between atoms: C_18  and  C_20
REMARK   10  A    between atoms: C_21  and  O_23
REMARK   11  A    between atoms: O_23  and  C_24
REMARK   12  A    between atoms: C_25  and  C_26
REMARK   13  A    between atoms: C_26  and  C_27
REMARK                            x       y       z     vdW  Elec       q    Type
REMARK                         _______ _______ _______ _____ _____    ______ ____
ROOT
ATOM      1  C   UNL     1       0.404  -0.458  -3.718  0.00  0.00    +0.044 A 
ATOM      2  C   UNL     1      -0.319  -0.094  -4.854  0.00  0.00    +0.033 A 
ATOM      3  C   UNL     1       0.175  -0.457  -6.092  0.00  0.00    +0.015 A 
ATOM      4  C   UNL     1       1.365  -1.166  -6.186  0.00  0.00    +0.105 A 
ATOM      5  N   UNL     1       2.024  -1.493  -5.075  0.00  0.00    -0.348 N 
ATOM      6  C   UNL     1       1.588  -1.161  -3.878  0.00  0.00    +0.107 A 
ATOM      7  N   UNL     1       1.694  -1.436  -7.513  0.00  0.00    -0.301 N 
ATOM      8  C   UNL     1       0.676  -0.884  -8.410  0.00  0.00    +0.208 C 
ATOM      9  C   UNL     1      -0.358  -0.220  -7.486  0.00  0.00    +0.138 C 
ATOM     10  H   UNL     1       2.854  -1.989  -5.151  0.00  0.00    +0.167 HD
ENDROOT
BRANCH   9  11
ATOM     11  N   UNL     1      -0.444   1.216  -7.764  0.00  0.00    -0.306 N 
ATOM     12  C   UNL     1      -1.546   1.907  -7.407  0.00  0.00    +0.210 C 
ATOM     13  O   UNL     1      -2.465   1.339  -6.856  0.00  0.00    -0.276 OA
ATOM     14  C   UNL     1      -1.634   3.384  -7.693  0.00  0.00    +0.109 C 
ATOM     15  H   UNL     1       0.291   1.670  -8.204  0.00  0.00    +0.149 HD
ENDBRANCH   9  11
BRANCH   1  16
ATOM     16  N   UNL     1      -0.055  -0.114  -2.441  0.00  0.00    -0.342 N 
ATOM     17  H   UNL     1      -0.885   0.378  -2.339  0.00  0.00    +0.146 HD
BRANCH  16  18
ATOM     18  C   UNL     1       0.718  -0.497  -1.257  0.00  0.00    +0.109 C 
BRANCH  18  20
ATOM     19  C   UNL     1      -0.019   1.526   0.010  0.00  0.00    +0.014 C 
ATOM     20  C   UNL     1       0.002  -0.004   0.002  0.00  0.00    +0.033 C 
BRANCH  20  21
ATOM     21  C   UNL     1       0.731  -0.503   1.223  0.00  0.00    -0.043 A 
ATOM     22  C   UNL     1       2.050  -0.148   1.434  0.00  0.00    +0.004 A 
ATOM     23  C   UNL     1       2.719  -0.606   2.554  0.00  0.00    +0.000 A 
ATOM     24  C   UNL     1       2.068  -1.419   3.463  0.00  0.00    +0.000 A 
ATOM     25  C   UNL     1       0.749  -1.773   3.252  0.00  0.00    +0.000 A 
ATOM     26  C   UNL     1       0.079  -1.312   2.135  0.00  0.00    +0.004 A 
ENDBRANCH  20  21
ENDBRANCH  18  20
ENDBRANCH  16  18
ENDBRANCH   1  16
BRANCH   8  27
ATOM     27  C   UNL     1       1.290   0.138  -9.331  0.00  0.00    +0.330 C 
ATOM     28  O   UNL     1       2.355   0.638  -9.056  0.00  0.00    -0.249 OA
BRANCH  27  29
ATOM     29  O   UNL     1       0.654   0.494 -10.459  0.00  0.00    -0.467 OA
ATOM     30  C   UNL     1       1.294   1.468 -11.285  0.00  0.00    +0.280 C 
ENDBRANCH  27  29
ENDBRANCH   8  27
BRANCH   7  31
ATOM     31  C   UNL     1       2.888  -2.166  -7.947  0.00  0.00    +0.112 C 
BRANCH  31  32
ATOM     32  C   UNL     1       2.570  -3.660  -8.029  0.00  0.00    +0.056 C 
BRANCH  32  33
ATOM     33  C   UNL     1       3.798  -4.412  -8.476  0.00  0.00    -0.021 A 
ATOM     34  C   UNL     1       4.887  -4.888  -7.621  0.00  0.00    +0.003 A 
ATOM     35  C   UNL     1       5.144  -4.824  -6.250  0.00  0.00    +0.010 A 
ATOM     36  C   UNL     1       6.285  -5.383  -5.747  0.00  0.00    +0.001 A 
ATOM     37  C   UNL     1       7.191  -6.014  -6.588  0.00  0.00    +0.002 A 
ATOM     38  C   UNL     1       6.957  -6.089  -7.944  0.00  0.00    +0.026 A 
ATOM     39  C   UNL     1       5.802  -5.527  -8.477  0.00  0.00    +0.047 A 
ATOM     40  N   UNL     1       5.294  -5.438  -9.754  0.00  0.00    -0.360 N 
ATOM     41  C   UNL     1       4.097  -4.776  -9.733  0.00  0.00    +0.087 A 
ATOM     42  H   UNL     1       5.720  -5.795 -10.549  0.00  0.00    +0.165 HD
ENDBRANCH  32  33
ENDBRANCH  31  32
ENDBRANCH   7  31
TORSDOF 10
