REMARK  Name = ZINC22226099
REMARK  9 active torsions:
REMARK  status: ('A' for Active; 'I' for Inactive)
REMARK    1  A    between atoms: C_1  and  C_2
REMARK    2  A    between atoms: C_2  and  C_4
REMARK    3  A    between atoms: C_2  and  S_17
REMARK    4  A    between atoms: N_6  and  C_7
REMARK    5  A    between atoms: S_17  and  C_18
REMARK    6  A    between atoms: C_21  and  C_24
REMARK    7  A    between atoms: N_22  and  N_23
REMARK    8  A    between atoms: C_27  and  O_30
REMARK    9  A    between atoms: O_30  and  C_31
REMARK                            x       y       z     vdW  Elec       q    Type
REMARK                         _______ _______ _______ _____ _____    ______ ____
ROOT
ATOM      1  S   UNL     1      -3.047   7.887  -2.074  0.00  0.00    -0.072 S 
ENDROOT
BRANCH   1   2
ATOM      2  C   UNL     1      -3.223   9.595  -1.678  0.00  0.00    +0.209 A 
ATOM      3  N   UNL     1      -2.392  10.320  -0.963  0.00  0.00    -0.121 NA
ATOM      4  N   UNL     1      -2.824  11.526  -0.872  0.00  0.00    -0.127 NA
ATOM      5  C   UNL     1      -3.962  11.645  -1.516  0.00  0.00    +0.182 A 
ATOM      6  N   UNL     1      -4.252  10.412  -2.053  0.00  0.00    -0.224 N 
BRANCH   5   7
ATOM      7  C   UNL     1      -4.777  12.872  -1.642  0.00  0.00    +0.021 A 
ATOM      8  C   UNL     1      -4.214  14.118  -1.359  0.00  0.00    +0.015 A 
ATOM      9  C   UNL     1      -4.976  15.260  -1.482  0.00  0.00    +0.046 A 
ATOM     10  C   UNL     1      -6.304  15.172  -1.876  0.00  0.00    +0.120 A 
ATOM     11  C   UNL     1      -6.869  13.934  -2.153  0.00  0.00    +0.046 A 
ATOM     12  C   UNL     1      -6.113  12.787  -2.038  0.00  0.00    +0.015 A 
BRANCH  10  13
ATOM     13  O   UNL     1      -7.054  16.299  -1.990  0.00  0.00    -0.495 OA
ATOM     14  C   UNL     1      -6.410  17.539  -1.690  0.00  0.00    +0.277 C 
ENDBRANCH  10  13
ENDBRANCH   5   7
BRANCH   6  15
ATOM     15  N   UNL     1      -5.343  10.074  -2.803  0.00  0.00    -0.295 N 
ATOM     16  H   UNL     1      -6.106  10.832  -3.036  0.00  0.00    +0.163 HD
ATOM     17  H   UNL     1      -5.458   9.045  -3.174  0.00  0.00    +0.163 HD
ENDBRANCH   6  15
ENDBRANCH   1   2
BRANCH   1  19
ATOM     18  C   UNL     1      -0.356   8.331  -1.908  0.00  0.00    +0.029 C 
ATOM     19  C   UNL     1      -1.478   7.532  -1.242  0.00  0.00    +0.137 C 
BRANCH  19  20
ATOM     20  C   UNL     1      -1.177   6.060  -1.346  0.00  0.00    +0.227 C 
ATOM     21  O   UNL     1      -1.645   5.407  -2.255  0.00  0.00    -0.275 OA
ATOM     22  N   UNL     1      -0.387   5.467  -0.428  0.00  0.00    -0.309 N 
ATOM     23  H   UNL     1       0.038   6.059   0.396  0.00  0.00    +0.149 HD
BRANCH  22  24
ATOM     24  C   UNL     1      -0.094   4.035  -0.529  0.00  0.00    +0.035 C 
ATOM     25  C   UNL     1       0.606   3.750  -1.859  0.00  0.00    +0.029 C 
ATOM     26  C   UNL     1       0.912   2.255  -1.964  0.00  0.00    -0.008 C 
ATOM     27  C   UNL     1       1.824   1.839  -0.808  0.00  0.00    +0.007 C 
ATOM     28  C   UNL     1       1.124   2.123   0.522  0.00  0.00    -0.008 C 
ATOM     29  C   UNL     1       0.818   3.619   0.627  0.00  0.00    +0.029 C 
ATOM     30  C   UNL     1      -0.182   1.330   0.591  0.00  0.00    +0.007 C 
ATOM     31  C   UNL     1      -1.094   1.746  -0.565  0.00  0.00    -0.008 C 
ATOM     32  C   UNL     1      -0.394   1.461  -1.895  0.00  0.00    +0.007 C 
ATOM     33  C   UNL     1      -1.400   3.241  -0.460  0.00  0.00    +0.029 C 
ENDBRANCH  22  24
ENDBRANCH  19  20
ENDBRANCH   1  19
TORSDOF 7
