REMARK  Name = ZINC34805238
REMARK  12 active torsions:
REMARK  status: ('A' for Active; 'I' for Inactive)
REMARK    1  A    between atoms: C_1  and  C_2
REMARK    2  A    between atoms: C_2  and  O_3
REMARK    3  A    between atoms: O_3  and  C_4
REMARK    4  A    between atoms: C_4  and  C_6
REMARK    5  A    between atoms: C_10  and  N_11
REMARK    6  A    between atoms: C_12  and  C_14
REMARK    7  A    between atoms: C_14  and  C_16
REMARK    8  A    between atoms: C_14  and  N_17
REMARK    9  A    between atoms: N_17  and  C_18
REMARK   10  A    between atoms: C_18  and  C_20
REMARK   11  A    between atoms: C_18  and  C_21
REMARK   12  A    between atoms: C_32  and  C_36
REMARK                            x       y       z     vdW  Elec       q    Type
REMARK                         _______ _______ _______ _____ _____    ______ ____
ROOT
ATOM      1  N   UNL     1       3.744  -2.426   1.392  0.00  0.00    -0.281 N 
ATOM      2  C   UNL     1       5.047  -2.736   1.540  0.00  0.00    +0.203 C 
ATOM      3  O   UNL     1       5.445  -3.193   2.591  0.00  0.00    -0.277 OA
ATOM      4  H   UNL     1       3.425  -2.060   0.551  0.00  0.00    +0.155 HD
ENDROOT
BRANCH   1   9
ATOM      5  C   UNL     1       1.496  -2.371   2.467  0.00  0.00    +0.091 A 
ATOM      6  C   UNL     1       0.787  -2.682   3.696  0.00  0.00    -0.021 A 
ATOM      7  C   UNL     1       1.570  -3.187   4.673  0.00  0.00    -0.004 A 
ATOM      8  S   UNL     1       3.191  -3.243   3.966  0.00  0.00    -0.077 S 
ATOM      9  C   UNL     1       2.859  -2.629   2.439  0.00  0.00    +0.086 A 
ATOM     10  C   UNL     1       1.140  -3.603   6.046  0.00  0.00    +0.046 C 
ATOM     11  C   UNL     1      -0.255  -3.018   6.312  0.00  0.00    -0.009 C 
ATOM     12  C   UNL     1      -1.153  -3.312   5.107  0.00  0.00    +0.008 C 
ATOM     13  C   UNL     1      -0.705  -2.473   3.907  0.00  0.00    +0.037 C 
ATOM     14  C   UNL     1      -0.850  -3.662   7.566  0.00  0.00    +0.008 C 
BRANCH   5  15
ATOM     15  C   UNL     1       0.801  -1.814   1.305  0.00  0.00    +0.342 C 
ATOM     16  O   UNL     1       0.321  -2.557   0.470  0.00  0.00    -0.245 OA
BRANCH  15  17
ATOM     17  O   UNL     1       0.693  -0.477   1.160  0.00  0.00    -0.461 OA
BRANCH  17  19
ATOM     18  C   UNL     1      -0.019   1.526   0.010  0.00  0.00    +0.048 C 
ATOM     19  C   UNL     1       0.002  -0.004   0.002  0.00  0.00    +0.229 C 
ENDBRANCH  17  19
ENDBRANCH  15  17
ENDBRANCH   5  15
ENDBRANCH   1   9
BRANCH   2  20
ATOM     20  C   UNL     1       6.009  -2.515   0.401  0.00  0.00    +0.014 C 
ATOM     21  C   UNL     1       5.567  -3.343  -0.807  0.00  0.00    -0.004 C 
BRANCH  20  22
ATOM     22  N   UNL     1       7.357  -2.928   0.812  0.00  0.00    +0.388 N 
ATOM     23  H   UNL     1       7.615  -2.441   1.657  0.00  0.00    -0.084 HD
ATOM     24  H   UNL     1       7.367  -3.923   0.981  0.00  0.00    -0.084 HD
BRANCH  22  25
ATOM     25  C   UNL     1       8.315  -2.602  -0.253  0.00  0.00    -0.068 C 
ATOM     26  C   UNL     1       8.391  -1.084  -0.423  0.00  0.00    -0.013 C 
BRANCH  25  27
ATOM     27  C   UNL     1       9.696  -3.144   0.120  0.00  0.00    -0.041 C 
ATOM     28  C   UNL     1       9.620  -4.662   0.290  0.00  0.00    +0.009 C 
ATOM     29  C   UNL     1      11.001  -5.204   0.663  0.00  0.00    -0.010 C 
ATOM     30  C   UNL     1      11.999  -4.865  -0.446  0.00  0.00    +0.007 C 
ATOM     31  C   UNL     1      12.075  -3.346  -0.616  0.00  0.00    -0.010 C 
ATOM     32  C   UNL     1      10.694  -2.804  -0.989  0.00  0.00    +0.009 C 
ATOM     33  C   UNL     1      12.536  -2.709   0.696  0.00  0.00    +0.007 C 
ATOM     34  C   UNL     1      11.538  -3.048   1.805  0.00  0.00    -0.010 C 
ATOM     35  C   UNL     1      11.462  -4.567   1.975  0.00  0.00    +0.007 C 
ATOM     36  C   UNL     1      10.157  -2.506   1.432  0.00  0.00    +0.009 C 
ENDBRANCH  25  27
ENDBRANCH  22  25
ENDBRANCH  20  22
ENDBRANCH   2  20
TORSDOF 8
