REMARK  Name = ZINC63952254
REMARK  7 active torsions:
REMARK  status: ('A' for Active; 'I' for Inactive)
REMARK    1  A    between atoms: C_1  and  C_2
REMARK    2  A    between atoms: C_2  and  C_3
REMARK    3  A    between atoms: C_2  and  C_4
REMARK    4  A    between atoms: C_2  and  C_5
REMARK    5  A    between atoms: C_8  and  C_11
REMARK    6  A    between atoms: C_11  and  N_12
REMARK    7  A    between atoms: C_15  and  N_18
REMARK                            x       y       z     vdW  Elec       q    Type
REMARK                         _______ _______ _______ _____ _____    ______ ____
ROOT
ATOM      1  N   UNL     1       1.895   2.229  -4.854  0.00  0.00    -0.295 NA
ATOM      2  C   UNL     1       2.981   1.299  -5.188  0.00  0.00    +0.087 C 
ATOM      3  C   UNL     1       4.258   2.088  -5.485  0.00  0.00    +0.040 C 
ATOM      4  C   UNL     1       4.002   3.043  -6.653  0.00  0.00    +0.095 C 
ATOM      5  C   UNL     1       2.835   3.970  -6.299  0.00  0.00    +0.040 C 
ATOM      6  C   UNL     1       1.599   3.126  -5.979  0.00  0.00    +0.087 C 
ENDROOT
BRANCH   4   7
ATOM      7  N   UNL     1       5.203   3.843  -6.904  0.00  0.00    -0.289 N 
ATOM      8  C   UNL     1       5.926   3.878  -8.095  0.00  0.00    +0.070 A 
ATOM      9  C   UNL     1       5.777   3.240  -9.317  0.00  0.00    +0.028 A 
ATOM     10  C   UNL     1       6.679   3.484 -10.334  0.00  0.00    +0.002 A 
ATOM     11  C   UNL     1       7.731   4.363 -10.138  0.00  0.00    +0.002 A 
ATOM     12  C   UNL     1       7.887   5.002  -8.924  0.00  0.00    +0.028 A 
ATOM     13  C   UNL     1       6.987   4.764  -7.897  0.00  0.00    +0.067 A 
ATOM     14  N   UNL     1       6.876   5.241  -6.593  0.00  0.00    -0.306 N 
ATOM     15  H   UNL     1       7.473   5.875  -6.168  0.00  0.00    +0.170 HD
ATOM     16  C   UNL     1       5.794   4.675  -6.026  0.00  0.00    +0.328 A 
ATOM     17  O   UNL     1       5.410   4.882  -4.889  0.00  0.00    -0.247 OA
ENDBRANCH   4   7
BRANCH   1  18
ATOM     18  C   UNL     1       0.691   1.503  -4.429  0.00  0.00    +0.159 C 
BRANCH  18  21
ATOM     19  C   UNL     1       0.718  -0.497  -1.257  0.00  0.00    +0.297 C 
ATOM     20  N   UNL     1       0.049   0.013  -2.463  0.00  0.00    -0.292 N 
ATOM     21  C   UNL     1       0.969   0.786  -3.132  0.00  0.00    +0.151 C 
ATOM     22  N   UNL     1       2.093   0.821  -2.514  0.00  0.00    -0.071 NA
ATOM     23  O   UNL     1       2.045   0.048  -1.326  0.00  0.00    -0.369 OA
ATOM     24  H   UNL     1      -0.866  -0.162  -2.735  0.00  0.00    +0.151 HD
BRANCH  19  26
ATOM     25  C   UNL     1      -0.019   1.526   0.010  0.00  0.00    +0.016 C 
ATOM     26  C   UNL     1       0.002  -0.004   0.002  0.00  0.00    +0.019 C 
ATOM     27  C   UNL     1       0.742  -0.511   1.242  0.00  0.00    +0.016 C 
ATOM     28  C   UNL     1      -1.433  -0.534   0.013  0.00  0.00    +0.016 C 
ENDBRANCH  19  26
ENDBRANCH  18  21
ENDBRANCH   1  18
TORSDOF 4
