REMARK  Name = ZINC40627903
REMARK  14 active torsions:
REMARK  status: ('A' for Active; 'I' for Inactive)
REMARK    1  A    between atoms: C_1  and  C_2
REMARK    2  A    between atoms: C_2  and  N_3
REMARK    3  A    between atoms: N_3  and  C_4
REMARK    4  A    between atoms: N_3  and  S_6
REMARK    5  A    between atoms: C_4  and  C_5
REMARK    6  A    between atoms: S_6  and  C_9
REMARK    7  A    between atoms: C_12  and  N_15
REMARK    8  A    between atoms: C_17  and  N_33
REMARK    9  A    between atoms: C_18  and  N_22
REMARK   10  A    between atoms: N_22  and  C_23
REMARK   11  A    between atoms: C_25  and  C_31
REMARK   12  A    between atoms: C_25  and  C_32
REMARK   13  A    between atoms: C_27  and  C_29
REMARK   14  A    between atoms: C_27  and  C_30
REMARK                            x       y       z     vdW  Elec       q    Type
REMARK                         _______ _______ _______ _____ _____    ______ ____
ROOT
ATOM      1  N   UNL     1       5.603   3.761   3.173  0.00  0.00    -0.297 N 
ATOM      2  C   UNL     1       5.804   4.206   4.472  0.00  0.00    +0.159 A 
ATOM      3  C   UNL     1       6.391   5.445   4.711  0.00  0.00    +0.205 A 
ATOM      4  C   UNL     1       6.571   5.844   6.032  0.00  0.00    +0.155 A 
ATOM      5  N   UNL     1       6.178   5.033   7.012  0.00  0.00    -0.218 NA
ATOM      6  C   UNL     1       5.627   3.867   6.745  0.00  0.00    +0.225 A 
ATOM      7  N   UNL     1       5.434   3.455   5.508  0.00  0.00    -0.218 NA
ATOM      8  H   UNL     1       5.798   4.346   2.425  0.00  0.00    +0.154 HD
ENDROOT
BRANCH   1  12
ATOM      9  C   UNL     1       4.163  -0.086   2.488  0.00  0.00    +0.106 A 
ATOM     10  C   UNL     1       3.828   0.940   1.624  0.00  0.00    +0.030 A 
ATOM     11  C   UNL     1       4.304   2.217   1.848  0.00  0.00    +0.025 A 
ATOM     12  C   UNL     1       5.120   2.470   2.944  0.00  0.00    +0.033 A 
ATOM     13  C   UNL     1       5.454   1.437   3.810  0.00  0.00    +0.025 A 
ATOM     14  C   UNL     1       4.970   0.163   3.583  0.00  0.00    +0.030 A 
BRANCH   9  15
ATOM     15  S   UNL     1       3.553  -1.714   2.198  0.00  0.00    +0.061 S 
ATOM     16  O   UNL     1       4.449  -2.605   2.848  0.00  0.00    -0.153 OA
ATOM     17  O   UNL     1       3.267  -1.799   0.809  0.00  0.00    -0.153 OA
BRANCH  15  18
ATOM     18  N   UNL     1       2.103  -1.841   2.989  0.00  0.00    -0.177 NA
BRANCH  18  20
ATOM     19  C   UNL     1       0.493  -0.037   2.623  0.00  0.00    +0.022 C 
ATOM     20  C   UNL     1       0.860  -1.487   2.300  0.00  0.00    +0.106 C 
ENDBRANCH  18  20
BRANCH  18  21
ATOM     21  C   UNL     1       2.064  -2.308   4.377  0.00  0.00    +0.106 C 
ATOM     22  C   UNL     1       1.794  -3.814   4.401  0.00  0.00    +0.022 C 
ENDBRANCH  18  21
ENDBRANCH  15  18
ENDBRANCH   9  15
ENDBRANCH   1  12
BRANCH   3  23
ATOM     23  N   UNL     1       6.813   6.314   3.590  0.00  0.00    +0.063 N 
ATOM     24  O   UNL     1       6.040   7.119   3.125  0.00  0.00    -0.126 OA
ATOM     25  O   UNL     1       7.931   6.220   3.140  0.00  0.00    -0.126 OA
ENDBRANCH   3  23
BRANCH   4  26
ATOM     26  N   UNL     1       7.152   7.069   6.323  0.00  0.00    -0.324 N 
ATOM     27  H   UNL     1       7.435   7.655   5.604  0.00  0.00    +0.148 HD
BRANCH  26  28
ATOM     28  C   UNL     1       7.336   7.481   7.721  0.00  0.00    +0.069 C 
ATOM     29  C   UNL     1       6.063   8.171   8.214  0.00  0.00    +0.009 C 
ATOM     30  C   UNL     1       6.244   8.616   9.665  0.00  0.00    -0.072 C 
ATOM     31  N   UNL     1       7.430   9.441   9.841  0.00  0.00    +0.386 N 
ATOM     32  C   UNL     1       8.669   8.983   9.232  0.00  0.00    -0.072 C 
ATOM     33  C   UNL     1       8.487   8.483   7.803  0.00  0.00    +0.009 C 
ATOM     34  C   UNL     1       9.351   7.906  10.079  0.00  0.00    -0.010 C 
ATOM     35  C   UNL     1       9.634  10.191   9.176  0.00  0.00    -0.010 C 
ATOM     36  C   UNL     1       6.244   7.403  10.594  0.00  0.00    -0.010 C 
ATOM     37  C   UNL     1       5.016   9.478  10.036  0.00  0.00    -0.010 C 
ATOM     38  H   UNL     1       7.224  10.378   9.485  0.00  0.00    -0.084 HD
ATOM     39  H   UNL     1       7.590   9.564  10.844  0.00  0.00    -0.084 HD
ENDBRANCH  26  28
ENDBRANCH   4  26
TORSDOF 8
