REMARK  Name = ZINC36309641
REMARK  16 active torsions:
REMARK  status: ('A' for Active; 'I' for Inactive)
REMARK    1  A    between atoms: C_1  and  C_2
REMARK    2  A    between atoms: C_2  and  C_3
REMARK    3  A    between atoms: C_3  and  C_5
REMARK    4  A    between atoms: C_3  and  C_6
REMARK    5  A    between atoms: C_6  and  N_7
REMARK    6  A    between atoms: N_7  and  C_8
REMARK    7  A    between atoms: N_7  and  C_16
REMARK    8  A    between atoms: C_8  and  C_9
REMARK    9  A    between atoms: C_9  and  C_11
REMARK   10  A    between atoms: C_9  and  O_15
REMARK   11  A    between atoms: C_11  and  C_12
REMARK   12  A    between atoms: C_12  and  C_13
REMARK   13  A    between atoms: C_16  and  C_17
REMARK   14  A    between atoms: C_27  and  C_29
REMARK   15  A    between atoms: C_29  and  O_30
REMARK   16  A    between atoms: O_30  and  C_31
REMARK                            x       y       z     vdW  Elec       q    Type
REMARK                         _______ _______ _______ _____ _____    ______ ____
ROOT
ATOM      1  C   UNL     1      -5.066  -1.898   0.169  0.00  0.00    +0.200 C 
ATOM      2  O   UNL     1      -4.638  -0.766   0.253  0.00  0.00    -0.278 OA
ATOM      3  N   UNL     1      -6.240  -2.131  -0.451  0.00  0.00    -0.292 N 
ATOM      4  C   UNL     1      -6.771  -3.498  -0.554  0.00  0.00    +0.113 C 
ATOM      5  C   UNL     1      -8.078  -3.569   0.251  0.00  0.00    +0.061 C 
ATOM      6  C   UNL     1      -8.883  -2.343  -0.033  0.00  0.00    -0.004 A 
ATOM      7  C   UNL     1      -8.461  -1.178  -0.596  0.00  0.00    -0.014 A 
ATOM      8  C   UNL     1      -9.416  -0.174  -0.746  0.00  0.00    +0.013 A 
ATOM      9  C   UNL     1     -10.690  -0.387  -0.343  0.00  0.00    +0.046 A 
ATOM     10  S   UNL     1     -10.604  -2.058   0.283  0.00  0.00    -0.101 S 
ATOM     11  C   UNL     1      -7.009  -1.021  -1.029  0.00  0.00    +0.144 C 
ENDROOT
BRANCH   1  12
ATOM     12  C   UNL     1      -4.285  -3.045   0.757  0.00  0.00    +0.019 C 
BRANCH  12  13
ATOM     13  N   UNL     1      -3.082  -2.527   1.424  0.00  0.00    +0.387 N 
ATOM     14  H   UNL     1      -3.346  -1.814   2.087  0.00  0.00    -0.081 HD
BRANCH  13  15
ATOM     15  C   UNL     1      -2.176  -1.952   0.421  0.00  0.00    -0.075 C 
BRANCH  15  16
ATOM     16  C   UNL     1      -2.237  -2.786  -0.860  0.00  0.00    -0.031 C 
ATOM     17  C   UNL     1      -1.697  -4.190  -0.580  0.00  0.00    +0.005 C 
BRANCH  16  19
ATOM     18  C   UNL     1      -1.546  -2.885  -3.259  0.00  0.00    +0.004 C 
ATOM     19  C   UNL     1      -1.387  -2.120  -1.944  0.00  0.00    -0.002 C 
ENDBRANCH  16  19
ENDBRANCH  15  16
ENDBRANCH  13  15
BRANCH  13  20
ATOM     20  C   UNL     1      -2.402  -3.623   2.127  0.00  0.00    -0.046 C 
BRANCH  20  21
ATOM     21  C   UNL     1      -1.404  -3.042   3.131  0.00  0.00    +0.098 C 
BRANCH  21  22
ATOM     22  O   UNL     1      -0.347  -2.386   2.428  0.00  0.00    -0.394 OA
ATOM     23  H   UNL     1       0.111  -2.951   1.791  0.00  0.00    +0.210 HD
ENDBRANCH  21  22
BRANCH  21  24
ATOM     24  C   UNL     1      -0.825  -4.172   3.985  0.00  0.00    +0.033 C 
BRANCH  24  25
ATOM     25  C   UNL     1       0.077  -3.580   5.070  0.00  0.00    +0.029 C 
BRANCH  25  26
ATOM     26  C   UNL     1       0.648  -4.692   5.911  0.00  0.00    -0.034 C 
ATOM     27  C   UNL     1       1.944  -4.798   6.065  0.00  0.00    +0.004 C 
ENDBRANCH  25  26
ENDBRANCH  24  25
ENDBRANCH  21  24
ENDBRANCH  20  21
ENDBRANCH  13  20
ENDBRANCH  12  13
ENDBRANCH   1  12
BRANCH  11  28
ATOM     28  C   UNL     1      -6.921  -1.068  -2.556  0.00  0.00    +0.256 C 
BRANCH  28  29
ATOM     29  O   UNL     1      -7.558  -2.254  -3.034  0.00  0.00    -0.490 OA
BRANCH  29  30
ATOM     30  C   UNL     1      -7.568  -2.451  -4.378  0.00  0.00    +0.123 A 
ATOM     31  C   UNL     1      -6.971  -1.523  -5.220  0.00  0.00    +0.046 A 
ATOM     32  C   UNL     1      -6.981  -1.724  -6.587  0.00  0.00    +0.006 A 
ATOM     33  C   UNL     1      -7.586  -2.848  -7.117  0.00  0.00    +0.038 A 
ATOM     34  C   UNL     1      -8.183  -3.776  -6.280  0.00  0.00    +0.127 A 
ATOM     35  C   UNL     1      -8.169  -3.581  -4.910  0.00  0.00    +0.084 A 
ATOM     36  F   UNL     1      -8.774  -4.873  -6.801  0.00  0.00    -0.205 F 
ENDBRANCH  29  30
ENDBRANCH  28  29
ENDBRANCH  11  28
TORSDOF 14
