REMARK  Name = ZINC39610530
REMARK  11 active torsions:
REMARK  status: ('A' for Active; 'I' for Inactive)
REMARK    1  A    between atoms: C_1  and  C_2
REMARK    2  A    between atoms: C_2  and  C_4
REMARK    3  A    between atoms: C_2  and  N_12
REMARK    4  A    between atoms: C_13  and  C_15
REMARK    5  A    between atoms: C_15  and  C_17
REMARK    6  A    between atoms: C_15  and  O_18
REMARK    7  A    between atoms: O_18  and  C_19
REMARK    8  A    between atoms: C_19  and  C_21
REMARK    9  A    between atoms: C_24  and  N_29
REMARK   10  A    between atoms: C_26  and  O_27
REMARK   11  A    between atoms: O_27  and  C_28
REMARK                            x       y       z     vdW  Elec       q    Type
REMARK                         _______ _______ _______ _____ _____    ______ ____
ROOT
ATOM      1  C   UNL     1      -3.351  -1.248  -1.364  0.00  0.00    +0.259 C 
ATOM      2  C   UNL     1      -3.393  -2.671  -0.805  0.00  0.00    +0.062 C 
ENDROOT
BRANCH   1   4
ATOM      3  N   UNL     1      -1.367  -0.520  -0.079  0.00  0.00    -0.306 N 
ATOM      4  C   UNL     1      -1.943  -0.717  -1.281  0.00  0.00    +0.254 C 
ATOM      5  O   UNL     1      -1.329  -0.466  -2.296  0.00  0.00    -0.272 OA
ATOM      6  H   UNL     1      -1.858  -0.720   0.733  0.00  0.00    +0.149 HD
BRANCH   3   8
ATOM      7  C   UNL     1      -0.028   1.526  -0.017  0.00  0.00    +0.033 C 
ATOM      8  C   UNL     1       0.002  -0.004   0.002  0.00  0.00    +0.102 C 
BRANCH   8   9
ATOM      9  C   UNL     1       0.643  -0.478   1.281  0.00  0.00    -0.009 A 
ATOM     10  C   UNL     1      -0.141  -0.765   2.382  0.00  0.00    +0.008 A 
ATOM     11  C   UNL     1       0.446  -1.200   3.555  0.00  0.00    +0.020 A 
ATOM     12  C   UNL     1       1.820  -1.350   3.627  0.00  0.00    +0.042 A 
ATOM     13  C   UNL     1       2.606  -1.063   2.525  0.00  0.00    +0.040 A 
ATOM     14  C   UNL     1       2.016  -0.632   1.350  0.00  0.00    +0.047 A 
ATOM     15 CL   UNL     1       3.001  -0.278  -0.036  0.00  0.00    -0.083 Cl
ATOM     16 CL   UNL     1       2.558  -1.896   5.101  0.00  0.00    -0.083 Cl
ENDBRANCH   8   9
ENDBRANCH   3   8
ENDBRANCH   1   4
BRANCH   1  17
ATOM     17  O   UNL     1      -3.776  -1.259  -2.728  0.00  0.00    -0.449 OA
BRANCH  17  18
ATOM     18  C   UNL     1      -5.094  -1.092  -2.960  0.00  0.00    +0.343 C 
ATOM     19  O   UNL     1      -5.860  -0.941  -2.028  0.00  0.00    -0.245 OA
BRANCH  18  20
ATOM     20  C   UNL     1      -5.604  -1.092  -4.339  0.00  0.00    +0.102 A 
ATOM     21  C   UNL     1      -4.724  -1.271  -5.413  0.00  0.00    +0.040 A 
ATOM     22  C   UNL     1      -5.198  -1.272  -6.693  0.00  0.00    +0.063 A 
ATOM     23  C   UNL     1      -6.559  -1.094  -6.941  0.00  0.00    +0.047 A 
ATOM     24  C   UNL     1      -7.444  -0.915  -5.885  0.00  0.00    +0.070 A 
ATOM     25  C   UNL     1      -6.975  -0.918  -4.583  0.00  0.00    +0.136 A 
ATOM     26 CL   UNL     1      -4.101  -1.495  -8.020  0.00  0.00    -0.082 Cl
BRANCH  23  27
ATOM     27  N   UNL     1      -7.032  -1.095  -8.249  0.00  0.00    -0.357 N 
ATOM     28  H   UNL     1      -6.415  -1.220  -8.987  0.00  0.00    +0.142 HD
ATOM     29  H   UNL     1      -7.978  -0.972  -8.423  0.00  0.00    +0.142 HD
ENDBRANCH  23  27
BRANCH  25  30
ATOM     30  O   UNL     1      -7.836  -0.749  -3.548  0.00  0.00    -0.494 OA
ATOM     31  C   UNL     1      -9.217  -0.578  -3.874  0.00  0.00    +0.277 C 
ENDBRANCH  25  30
ENDBRANCH  18  20
ENDBRANCH  17  18
ENDBRANCH   1  17
TORSDOF 8
