REMARK  Name = ZINC66968092
REMARK  10 active torsions:
REMARK  status: ('A' for Active; 'I' for Inactive)
REMARK    1  A    between atoms: C_1  and  C_2
REMARK    2  A    between atoms: C_2  and  C_3
REMARK    3  A    between atoms: C_3  and  N_4
REMARK    4  A    between atoms: C_10  and  N_13
REMARK    5  A    between atoms: N_13  and  C_14
REMARK    6  A    between atoms: C_14  and  C_16
REMARK    7  A    between atoms: C_14  and  C_17
REMARK    8  A    between atoms: N_19  and  C_20
REMARK    9  A    between atoms: C_24  and  N_27
REMARK   10  A    between atoms: C_25  and  C_26
REMARK                            x       y       z     vdW  Elec       q    Type
REMARK                         _______ _______ _______ _____ _____    ______ ____
ROOT
ATOM      1  C   UNL     1      -6.906  -2.961   1.465  0.00  0.00    +0.154 C 
ATOM      2  C   UNL     1      -7.161  -4.458   1.653  0.00  0.00    +0.038 C 
ENDROOT
BRANCH   1   3
ATOM      3  C   UNL     1      -7.957  -2.383   0.553  0.00  0.00    +0.237 C 
ATOM      4  O   UNL     1      -7.633  -1.857  -0.490  0.00  0.00    -0.273 OA
ATOM      5  N   UNL     1      -9.259  -2.451   0.898  0.00  0.00    -0.284 N 
ATOM      6  H   UNL     1      -9.526  -2.943   1.690  0.00  0.00    +0.155 HD
BRANCH   5   7
ATOM      7  C   UNL     1     -10.224  -1.812   0.113  0.00  0.00    +0.039 A 
ATOM      8  C   UNL     1      -9.871  -0.725  -0.676  0.00  0.00    +0.024 A 
ATOM      9  C   UNL     1     -10.827  -0.096  -1.450  0.00  0.00    +0.004 A 
ATOM     10  C   UNL     1     -12.134  -0.547  -1.440  0.00  0.00    +0.033 A 
ATOM     11  C   UNL     1     -12.489  -1.629  -0.654  0.00  0.00    +0.131 A 
ATOM     12  C   UNL     1     -11.537  -2.266   0.117  0.00  0.00    +0.001 A 
ATOM     13  C   UNL     1     -11.922  -3.449   0.967  0.00  0.00    +0.048 C 
BRANCH  11  14
ATOM     14  N   UNL     1     -13.889  -2.108  -0.645  0.00  0.00    +0.057 N 
ATOM     15  O   UNL     1     -14.548  -2.068  -1.658  0.00  0.00    -0.126 OA
ATOM     16  O   UNL     1     -14.374  -2.539   0.375  0.00  0.00    -0.126 OA
ENDBRANCH  11  14
ENDBRANCH   5   7
ENDBRANCH   1   3
BRANCH   1  17
ATOM     17  N   UNL     1      -5.582  -2.763   0.870  0.00  0.00    -0.333 N 
ATOM     18  H   UNL     1      -5.491  -2.663  -0.091  0.00  0.00    +0.147 HD
BRANCH  17  25
ATOM     19  N   UNL     1      -1.386  -1.774  -0.235  0.00  0.00    +0.385 N 
ATOM     20  C   UNL     1      -0.862  -2.272   1.057  0.00  0.00    -0.042 C 
ATOM     21  C   UNL     1      -2.074  -2.484   1.935  0.00  0.00    -0.061 A 
ATOM     22  C   UNL     1      -2.206  -2.626   3.304  0.00  0.00    +0.002 A 
ATOM     23  C   UNL     1      -3.455  -2.813   3.866  0.00  0.00    +0.002 A 
ATOM     24  C   UNL     1      -4.577  -2.859   3.062  0.00  0.00    +0.023 A 
ATOM     25  C   UNL     1      -4.449  -2.717   1.686  0.00  0.00    +0.029 A 
ATOM     26  C   UNL     1      -3.194  -2.529   1.124  0.00  0.00    -0.042 A 
ATOM     27  C   UNL     1      -2.749  -2.347  -0.309  0.00  0.00    -0.040 C 
ATOM     28  H   UNL     1      -0.819  -2.107  -1.001  0.00  0.00    -0.081 HD
BRANCH  19  29
ATOM     29  C   UNL     1      -1.443  -0.306  -0.237  0.00  0.00    -0.078 C 
BRANCH  29  31
ATOM     30  C   UNL     1      -0.081   1.788  -0.288  0.00  0.00    +0.002 C 
ATOM     31  C   UNL     1      -0.022   0.260  -0.286  0.00  0.00    -0.022 C 
ENDBRANCH  29  31
ENDBRANCH  19  29
ENDBRANCH  17  25
ENDBRANCH   1  17
TORSDOF 7
