REMARK  Name = ZINC12604817
REMARK  7 active torsions:
REMARK  status: ('A' for Active; 'I' for Inactive)
REMARK    1  A    between atoms: C_1  and  N_56
REMARK    2  A    between atoms: C_2  and  C_3
REMARK    3  A    between atoms: C_2  and  N_56
REMARK    4  A    between atoms: N_5  and  C_6
REMARK    5  A    between atoms: C_20  and  C_25
REMARK    6  A    between atoms: C_28  and  S_31
REMARK    7  A    between atoms: S_31  and  C_32
REMARK                            x       y       z     vdW  Elec       q    Type
REMARK                         _______ _______ _______ _____ _____    ______ ____
ROOT
ATOM      1  C   UNL     1       7.140   0.158   2.041  0.00  0.00    +0.077 C 
ATOM      2  C   UNL     1       6.883  -1.274   1.558  0.00  0.00    +0.041 C 
ATOM      3  C   UNL     1       5.989  -1.211   0.322  0.00  0.00    +0.111 C 
ATOM      4  N   UNL     1       4.781  -0.430   0.590  0.00  0.00    -0.286 N 
ATOM      5  C   UNL     1       4.737   0.686   1.513  0.00  0.00    +0.164 C 
ATOM      6  C   UNL     1       5.823   0.734   2.556  0.00  0.00    +0.054 C 
ATOM      7  C   UNL     1       4.612   1.974   0.755  0.00  0.00    +0.238 C 
ATOM      8  O   UNL     1       5.509   2.789   0.806  0.00  0.00    -0.273 OA
ATOM      9  N   UNL     1       3.527   2.232   0.025  0.00  0.00    -0.283 N 
ATOM     10  C   UNL     1       2.397   1.433  -0.011  0.00  0.00    +0.046 A 
ATOM     11  C   UNL     1       1.163   2.095   0.002  0.00  0.00    +0.024 A 
ATOM     12  C   UNL     1      -0.017   1.393   0.010  0.00  0.00    +0.010 A 
ATOM     13  C   UNL     1       0.002  -0.004   0.002  0.00  0.00    -0.017 A 
ATOM     14  C   UNL     1       1.215  -0.674  -0.024  0.00  0.00    +0.023 A 
ATOM     15  C   UNL     1       2.424   0.039  -0.039  0.00  0.00    +0.059 A 
ATOM     16  C   UNL     1       3.662  -0.749  -0.092  0.00  0.00    +0.249 C 
ATOM     17  O   UNL     1       3.679  -1.744  -0.790  0.00  0.00    -0.270 OA
ATOM     18  H   UNL     1       3.530   3.036  -0.519  0.00  0.00    +0.155 HD
ENDROOT
BRANCH  13  19
ATOM     19  C   UNL     1      -1.270  -0.766   0.023  0.00  0.00    -0.018 A 
ATOM     20  C   UNL     1      -1.249  -2.160   0.009  0.00  0.00    +0.009 A 
ATOM     21  C   UNL     1      -2.432  -2.867   0.034  0.00  0.00    +0.015 A 
ATOM     22  C   UNL     1      -3.647  -2.191   0.061  0.00  0.00    +0.008 A 
ATOM     23  C   UNL     1      -3.670  -0.800   0.069  0.00  0.00    +0.015 A 
ATOM     24  C   UNL     1      -2.489  -0.090   0.050  0.00  0.00    +0.009 A 
BRANCH  22  25
ATOM     25  S   UNL     1      -5.158  -3.096   0.085  0.00  0.00    -0.129 S 
ATOM     26  C   UNL     1      -4.630  -4.832   0.065  0.00  0.00    +0.090 C 
ENDBRANCH  22  25
ENDBRANCH  13  19
BRANCH   1  29
ATOM     27  C   UNL     1       9.445   0.172   2.830  0.00  0.00    +0.196 C 
ATOM     28  O   UNL     1       9.810   0.207   1.674  0.00  0.00    -0.278 OA
ATOM     29  N   UNL     1       8.129   0.145   3.121  0.00  0.00    -0.314 N 
ATOM     30  H   UNL     1       7.838   0.118   4.046  0.00  0.00    +0.149 HD
BRANCH  27  31
ATOM     31  C   UNL     1      10.463   0.159   3.941  0.00  0.00    +0.014 C 
BRANCH  31  33
ATOM     32  C   UNL     1      12.836   0.182   4.423  0.00  0.00    -0.100 C 
ATOM     33  N   UNL     1      11.817   0.194   3.357  0.00  0.00    +0.383 N 
ATOM     34  H   UNL     1      11.947  -0.628   2.755  0.00  0.00    -0.086 HD
ATOM     35  H   UNL     1      11.922   1.048   2.797  0.00  0.00    -0.086 HD
ENDBRANCH  31  33
ENDBRANCH  27  31
ENDBRANCH   1  29
TORSDOF 5
