REMARK  Name = ZINC13151703
REMARK  3 active torsions:
REMARK  status: ('A' for Active; 'I' for Inactive)
REMARK    1  A    between atoms: C_3  and  S_20
REMARK    2  A    between atoms: C_6  and  N_7
REMARK    3  A    between atoms: S_20  and  N_23
REMARK                            x       y       z     vdW  Elec       q    Type
REMARK                         _______ _______ _______ _____ _____    ______ ____
ROOT
ATOM      1  C   UNL     1      -0.017   1.384   0.010  0.00  0.00    +0.026 A 
ATOM      2  C   UNL     1       1.171   2.090   0.002  0.00  0.00    +0.030 A 
ATOM      3  C   UNL     1       2.377   1.415  -0.013  0.00  0.00    +0.105 A 
ATOM      4  C   UNL     1       2.399   0.032  -0.021  0.00  0.00    +0.030 A 
ATOM      5  C   UNL     1       1.215  -0.679  -0.013  0.00  0.00    +0.026 A 
ATOM      6  C   UNL     1       0.002  -0.004   0.002  0.00  0.00    +0.044 A 
ENDROOT
BRANCH   6   7
ATOM      7  N   UNL     1      -1.202  -0.723   0.010  0.00  0.00    -0.210 N 
ATOM      8  C   UNL     1      -2.424  -0.129   0.020  0.00  0.00    +0.230 C 
ATOM      9  O   UNL     1      -2.666   1.040  -0.186  0.00  0.00    -0.274 OA
ATOM     10  C   UNL     1      -3.412  -1.211   0.335  0.00  0.00    +0.092 C 
ATOM     11  C   UNL     1      -4.780  -1.143  -0.311  0.00  0.00    +0.040 C 
ATOM     12  C   UNL     1      -5.428  -2.497  -0.114  0.00  0.00    -0.030 C 
ATOM     13  C   UNL     1      -4.780  -3.583   0.186  0.00  0.00    -0.030 C 
ATOM     14  C   UNL     1      -3.278  -3.662   0.359  0.00  0.00    +0.040 C 
ATOM     15  C   UNL     1      -2.682  -2.439  -0.291  0.00  0.00    +0.092 C 
ATOM     16  C   UNL     1      -1.259  -2.080   0.003  0.00  0.00    +0.230 C 
ATOM     17  O   UNL     1      -0.341  -2.848   0.199  0.00  0.00    -0.274 OA
ENDBRANCH   6   7
BRANCH   3  18
ATOM     18  S   UNL     1       3.890   2.318  -0.024  0.00  0.00    +0.056 S 
ATOM     19  O   UNL     1       4.872   1.460  -0.589  0.00  0.00    -0.153 OA
ATOM     20  O   UNL     1       3.595   3.598  -0.566  0.00  0.00    -0.153 OA
BRANCH  18  21
ATOM     21  N   UNL     1       4.327   2.561   1.555  0.00  0.00    -0.204 NA
ATOM     22  H   UNL     1       5.264   2.629   1.794  0.00  0.00    +0.144 HD
ATOM     23  H   UNL     1       3.644   2.635   2.240  0.00  0.00    +0.144 HD
ENDBRANCH  18  21
ENDBRANCH   3  18
TORSDOF 3
