REMARK  Name = ZINC66481508
REMARK  7 active torsions:
REMARK  status: ('A' for Active; 'I' for Inactive)
REMARK    1  A    between atoms: C_1  and  O_2
REMARK    2  A    between atoms: O_2  and  C_3
REMARK    3  A    between atoms: C_8  and  C_9
REMARK    4  A    between atoms: C_12  and  S_15
REMARK    5  A    between atoms: S_15  and  C_16
REMARK    6  A    between atoms: C_16  and  C_17
REMARK    7  A    between atoms: C_17  and  O_23
REMARK                            x       y       z     vdW  Elec       q    Type
REMARK                         _______ _______ _______ _____ _____    ______ ____
ROOT
ATOM      1  C   UNL     1      -0.005  -2.830  -0.014  0.00  0.00    +0.186 A 
ATOM      2  N   UNL     1       0.067  -4.169  -0.022  0.00  0.00    -0.201 NA
ATOM      3  H   UNL     1       3.064  -3.395  -0.049  0.00  0.00    +0.191 HD
ATOM      4  C   UNL     1       1.327  -4.544  -0.037  0.00  0.00    +0.185 A 
ATOM      5  N   UNL     1       2.095  -3.431  -0.039  0.00  0.00    -0.253 N 
ATOM      6  N   UNL     1       1.213  -2.339  -0.029  0.00  0.00    -0.151 NA
ENDROOT
BRANCH   1  12
ATOM      7  C   UNL     1      -1.200  -0.637   0.010  0.00  0.00    +0.131 A 
ATOM      8  C   UNL     1      -2.374   0.099   0.019  0.00  0.00    +0.048 A 
ATOM      9  C   UNL     1      -3.596  -0.545   0.028  0.00  0.00    +0.023 A 
ATOM     10  C   UNL     1      -3.656  -1.929   0.027  0.00  0.00    +0.042 A 
ATOM     11  C   UNL     1      -2.494  -2.675   0.018  0.00  0.00    +0.035 A 
ATOM     12  C   UNL     1      -1.257  -2.034   0.003  0.00  0.00    +0.064 A 
ATOM     13 CL   UNL     1      -5.197  -2.728   0.037  0.00  0.00    -0.084 Cl
BRANCH   7  15
ATOM     14  C   UNL     1      -0.017   1.425   0.010  0.00  0.00    +0.277 C 
ATOM     15  O   UNL     1       0.002  -0.004   0.002  0.00  0.00    -0.494 OA
ENDBRANCH   7  15
ENDBRANCH   1  12
BRANCH   4  16
ATOM     16  S   UNL     1       1.913  -6.205  -0.051  0.00  0.00    -0.084 S 
BRANCH  16  17
ATOM     17  C   UNL     1       0.400  -7.205  -0.041  0.00  0.00    +0.112 C 
BRANCH  17  18
ATOM     18  C   UNL     1       0.768  -8.690  -0.052  0.00  0.00    +0.075 C 
ATOM     19  C   UNL     1       1.706  -8.991   1.118  0.00  0.00    +0.035 C 
ATOM     20  C   UNL     1       2.075 -10.476   1.107  0.00  0.00    +0.003 C 
ATOM     21  C   UNL     1       0.805 -11.318   1.241  0.00  0.00    +0.000 C 
ATOM     22  C   UNL     1      -0.133 -11.017   0.070  0.00  0.00    +0.003 C 
ATOM     23  C   UNL     1      -0.502  -9.532   0.082  0.00  0.00    +0.035 C 
BRANCH  18  24
ATOM     24  O   UNL     1       1.423  -9.008  -1.282  0.00  0.00    -0.388 OA
ATOM     25  H   UNL     1       2.238  -8.511  -1.434  0.00  0.00    +0.210 HD
ENDBRANCH  18  24
ENDBRANCH  17  18
ENDBRANCH  16  17
ENDBRANCH   4  16
TORSDOF 6
