REMARK  Name = ZINC39325949
REMARK  7 active torsions:
REMARK  status: ('A' for Active; 'I' for Inactive)
REMARK    1  A    between atoms: C_1  and  C_2
REMARK    2  A    between atoms: C_2  and  C_3
REMARK    3  A    between atoms: C_3  and  C_4
REMARK    4  A    between atoms: C_4  and  C_5
REMARK    5  A    between atoms: C_7  and  C_19
REMARK    6  A    between atoms: C_9  and  C_17
REMARK    7  A    between atoms: C_10  and  N_16
REMARK                            x       y       z     vdW  Elec       q    Type
REMARK                         _______ _______ _______ _____ _____    ______ ____
ROOT
ATOM      1  C   UNL     1       1.444  -2.513  -2.505  0.00  0.00    +0.069 C 
ATOM      2  C   UNL     1       2.713  -2.839  -2.567  0.00  0.00    +0.030 C 
ATOM      3  C   UNL     1       3.797  -2.984  -1.534  0.00  0.00    +0.098 C 
ATOM      4  C   UNL     1       4.553  -4.245  -1.912  0.00  0.00    +0.097 C 
ATOM      5  C   UNL     1       4.325  -4.885  -3.077  0.00  0.00    +0.195 C 
ATOM      6  O   UNL     1       3.427  -4.545  -4.019  0.00  0.00    -0.448 OA
ATOM      7  C   UNL     1       2.963  -3.193  -4.033  0.00  0.00    +0.343 C 
ATOM      8  N   UNL     1       1.620  -3.073  -4.609  0.00  0.00    -0.138 NA
ATOM      9  N   UNL     1       0.856  -2.682  -3.717  0.00  0.00    -0.155 NA
ENDROOT
BRANCH   3  10
ATOM     10  C   UNL     1       3.192  -3.128  -0.161  0.00  0.00    -0.027 A 
ATOM     11  C   UNL     1       2.359  -4.169   0.114  0.00  0.00    +0.005 A 
ATOM     12  C   UNL     1       1.791  -4.319   1.378  0.00  0.00    +0.001 A 
ATOM     13  C   UNL     1       2.052  -3.428   2.373  0.00  0.00    +0.008 A 
ATOM     14  C   UNL     1       2.908  -2.341   2.127  0.00  0.00    -0.018 A 
ATOM     15  C   UNL     1       3.491  -2.192   0.844  0.00  0.00    -0.014 A 
ATOM     16  C   UNL     1       4.351  -1.108   0.599  0.00  0.00    +0.009 A 
ATOM     17  C   UNL     1       4.617  -0.221   1.597  0.00  0.00    +0.001 A 
ATOM     18  C   UNL     1       4.048  -0.371   2.861  0.00  0.00    +0.001 A 
ATOM     19  C   UNL     1       3.200  -1.401   3.130  0.00  0.00    +0.008 A 
ENDBRANCH   3  10
BRANCH   5  20
ATOM     20  N   UNL     1       5.089  -5.998  -3.328  0.00  0.00    -0.329 N 
ATOM     21  H   UNL     1       5.752  -6.286  -2.681  0.00  0.00    +0.145 HD
ATOM     22  H   UNL     1       4.965  -6.495  -4.151  0.00  0.00    +0.145 HD
ENDBRANCH   5  20
BRANCH   4  23
ATOM     23  C   UNL     1       5.534  -4.767  -1.009  0.00  0.00    +0.101 C 
ATOM     24  N   UNL     1       6.312  -5.181  -0.292  0.00  0.00    -0.191 NA
ENDBRANCH   4  23
BRANCH   1  25
ATOM     25  C   UNL     1       0.739  -2.027  -1.265  0.00  0.00    +0.057 C 
BRANCH  25  26
ATOM     26  C   UNL     1       0.718  -0.497  -1.257  0.00  0.00    +0.006 C 
BRANCH  26  28
ATOM     27  C   UNL     1      -0.019   1.526   0.010  0.00  0.00    +0.004 C 
ATOM     28  C   UNL     1       0.002  -0.004   0.002  0.00  0.00    -0.003 C 
ENDBRANCH  26  28
ENDBRANCH  25  26
ENDBRANCH   1  25
TORSDOF 6
