REMARK  Name = ZINC38508194
REMARK  8 active torsions:
REMARK  status: ('A' for Active; 'I' for Inactive)
REMARK    1  A    between atoms: C_1  and  C_2
REMARK    2  A    between atoms: C_4  and  C_10
REMARK    3  A    between atoms: N_6  and  C_7
REMARK    4  A    between atoms: C_7  and  C_8
REMARK    5  A    between atoms: C_7  and  C_9
REMARK    6  A    between atoms: C_10  and  N_12
REMARK    7  A    between atoms: N_14  and  C_22
REMARK    8  A    between atoms: C_22  and  C_23
REMARK                            x       y       z     vdW  Elec       q    Type
REMARK                         _______ _______ _______ _____ _____    ______ ____
ROOT
ATOM      1  N   UNL     1       0.062  -4.558  -0.791  0.00  0.00    -0.151 NA
ATOM      2  C   UNL     1       0.074  -5.673  -1.513  0.00  0.00    +0.168 A 
ATOM      3  N   UNL     1       0.088  -6.956  -1.065  0.00  0.00    -0.310 N 
ATOM      4  C   UNL     1       0.098  -8.000  -1.970  0.00  0.00    +0.058 A 
ATOM      5  C   UNL     1       0.113  -9.380  -1.730  0.00  0.00    +0.027 A 
ATOM      6  C   UNL     1       0.122 -10.274  -2.776  0.00  0.00    +0.002 A 
ATOM      7  C   UNL     1       0.117  -9.838  -4.090  0.00  0.00    +0.001 A 
ATOM      8  C   UNL     1       0.102  -8.480  -4.355  0.00  0.00    +0.017 A 
ATOM      9  C   UNL     1       0.093  -7.587  -3.311  0.00  0.00    +0.039 A 
ATOM     10  S   UNL     1       0.067  -5.817  -3.187  0.00  0.00    -0.052 S 
ENDROOT
BRANCH   1  11
ATOM     11  C   UNL     1       0.042  -3.368  -1.400  0.00  0.00    +0.290 C 
ATOM     12  O   UNL     1       0.036  -3.306  -2.617  0.00  0.00    -0.266 OA
BRANCH  11  16
ATOM     13  C   UNL     1      -0.018   1.503   0.010  0.00  0.00    +0.065 C 
ATOM     14  C   UNL     1       0.002  -0.004   0.002  0.00  0.00    +0.037 A 
ATOM     15  C   UNL     1       0.009  -0.801  -1.092  0.00  0.00    +0.057 A 
ATOM     16  C   UNL     1       0.029  -2.125  -0.595  0.00  0.00    +0.149 A 
ATOM     17  N   UNL     1       0.033  -2.043   0.719  0.00  0.00    -0.166 NA
ATOM     18  N   UNL     1       0.023  -0.811   1.084  0.00  0.00    -0.265 N 
BRANCH  18  19
ATOM     19  C   UNL     1       0.030  -0.349   2.474  0.00  0.00    +0.101 C 
ATOM     20  C   UNL     1      -1.206  -0.889   3.197  0.00  0.00    +0.032 C 
ATOM     21  C   UNL     1       1.293  -0.855   3.174  0.00  0.00    +0.032 C 
ENDBRANCH  18  19
ENDBRANCH  11  16
ENDBRANCH   1  11
BRANCH   3  22
ATOM     22  C   UNL     1       0.092  -7.231   0.374  0.00  0.00    +0.212 C 
BRANCH  22  23
ATOM     23  C   UNL     1      -1.294  -7.339   0.858  0.00  0.00    -0.084 C 
ATOM     24  C   UNL     1      -2.399  -7.425   1.243  0.00  0.00    +0.005 C 
ENDBRANCH  22  23
ENDBRANCH   3  22
TORSDOF 5
