REMARK  Name = ZINC08694473
REMARK  19 active torsions:
REMARK  status: ('A' for Active; 'I' for Inactive)
REMARK    1  A    between atoms: C_1  and  C_2
REMARK    2  A    between atoms: C_5  and  C_8
REMARK    3  A    between atoms: C_8  and  N_9
REMARK    4  A    between atoms: N_9  and  C_10
REMARK    5  A    between atoms: C_10  and  C_12
REMARK    6  A    between atoms: C_10  and  C_22
REMARK    7  A    between atoms: C_15  and  O_20
REMARK    8  A    between atoms: C_16  and  O_18
REMARK    9  A    between atoms: O_18  and  C_19
REMARK   10  A    between atoms: O_20  and  C_21
REMARK   11  A    between atoms: N_24  and  C_25
REMARK   12  A    between atoms: C_28  and  N_31
REMARK   13  A    between atoms: N_31  and  C_32
REMARK   14  A    between atoms: N_31  and  C_33
REMARK   15  A    between atoms: C_34  and  C_36
REMARK   16  A    between atoms: C_36  and  S_37
REMARK   17  A    between atoms: S_37  and  C_38
REMARK   18  A    between atoms: C_40  and  C_45
REMARK   19  A    between atoms: C_42  and  C_44
REMARK                            x       y       z     vdW  Elec       q    Type
REMARK                         _______ _______ _______ _____ _____    ______ ____
ROOT
ATOM      1  C   UNL     1       5.189   7.615  -0.834  0.00  0.00    +0.193 C 
ENDROOT
BRANCH   1   2
ATOM      2  C   UNL     1       4.059   7.398   0.139  0.00  0.00    -0.015 A 
ATOM      3  C   UNL     1       3.753   6.120   0.567  0.00  0.00    +0.010 A 
ATOM      4  C   UNL     1       2.721   5.917   1.465  0.00  0.00    +0.050 A 
ATOM      5  C   UNL     1       1.985   6.995   1.929  0.00  0.00    +0.162 A 
ATOM      6  C   UNL     1       2.290   8.281   1.494  0.00  0.00    +0.162 A 
ATOM      7  C   UNL     1       3.329   8.478   0.599  0.00  0.00    +0.055 A 
BRANCH   6   8
ATOM      8  O   UNL     1       1.570   9.342   1.948  0.00  0.00    -0.491 OA
ATOM      9  C   UNL     1       1.940  10.633   1.459  0.00  0.00    +0.277 C 
ENDBRANCH   6   8
BRANCH   5  10
ATOM     10  O   UNL     1       0.966   6.796   2.807  0.00  0.00    -0.491 OA
ATOM     11  C   UNL     1       0.710   5.449   3.210  0.00  0.00    +0.277 C 
ENDBRANCH   5  10
ENDBRANCH   1   2
BRANCH   1  12
ATOM     12  C   UNL     1       4.723   7.279  -2.228  0.00  0.00    +0.242 C 
ATOM     13  O   UNL     1       4.629   6.120  -2.573  0.00  0.00    -0.273 OA
ATOM     14  N   UNL     1       4.410   8.267  -3.090  0.00  0.00    -0.284 N 
ATOM     15  H   UNL     1       4.562   9.193  -2.843  0.00  0.00    +0.155 HD
BRANCH  14  16
ATOM     16  C   UNL     1       3.864   7.957  -4.343  0.00  0.00    +0.034 A 
ATOM     17  C   UNL     1       4.139   8.764  -5.439  0.00  0.00    +0.025 A 
ATOM     18  C   UNL     1       3.606   8.455  -6.674  0.00  0.00    +0.025 A 
ATOM     19  C   UNL     1       2.787   7.343  -6.819  0.00  0.00    +0.029 A 
ATOM     20  C   UNL     1       2.507   6.539  -5.721  0.00  0.00    +0.025 A 
ATOM     21  C   UNL     1       3.045   6.845  -4.487  0.00  0.00    +0.025 A 
BRANCH  19  22
ATOM     22  N   UNL     1       2.243   7.033  -8.070  0.00  0.00    -0.336 N 
ATOM     23  C   UNL     1       1.353   5.878  -8.216  0.00  0.00    +0.129 C 
ATOM     24  C   UNL     1       2.564   7.862  -9.234  0.00  0.00    +0.129 C 
ENDBRANCH  19  22
ENDBRANCH  14  16
ENDBRANCH   1  12
BRANCH   1  25
ATOM     25  N   UNL     1       6.316   6.750  -0.475  0.00  0.00    -0.281 N 
ATOM     26  C   UNL     1       7.402   7.274   0.126  0.00  0.00    +0.227 C 
ATOM     27  O   UNL     1       7.412   8.443   0.449  0.00  0.00    -0.275 OA
BRANCH  25  28
ATOM     28  C   UNL     1       6.262   5.316  -0.769  0.00  0.00    +0.144 C 
BRANCH  28  33
ATOM     29  C   UNL     1      10.324   3.993  -4.660  0.00  0.00    +0.044 C 
ATOM     30  C   UNL     1       9.264   4.338  -3.646  0.00  0.00    -0.050 A 
ATOM     31  C   UNL     1       8.703   3.343  -2.868  0.00  0.00    +0.003 A 
ATOM     32  C   UNL     1       7.731   3.660  -1.937  0.00  0.00    +0.005 A 
ATOM     33  C   UNL     1       7.321   4.971  -1.784  0.00  0.00    -0.030 A 
ATOM     34  C   UNL     1       7.879   5.965  -2.566  0.00  0.00    +0.005 A 
ATOM     35  C   UNL     1       8.854   5.649  -3.493  0.00  0.00    +0.003 A 
ENDBRANCH  28  33
ENDBRANCH  25  28
BRANCH  26  36
ATOM     36  C   UNL     1       8.605   6.407   0.397  0.00  0.00    +0.173 C 
BRANCH  36  37
ATOM     37  S   UNL     1       9.790   7.321   1.416  0.00  0.00    -0.077 S 
BRANCH  37  38
ATOM     38  C   UNL     1      11.057   6.107   1.574  0.00  0.00    +0.189 A 
ATOM     39  N   UNL     1      12.145   6.394   2.275  0.00  0.00    -0.227 NA
ATOM     40  C   UNL     1      13.115   5.506   2.413  0.00  0.00    +0.043 A 
ATOM     41  C   UNL     1      12.983   4.263   1.814  0.00  0.00    +0.046 A 
ATOM     42  C   UNL     1      11.833   3.995   1.088  0.00  0.00    +0.043 A 
ATOM     43  N   UNL     1      10.901   4.928   0.989  0.00  0.00    -0.227 NA
ATOM     44  C   UNL     1      11.647   2.657   0.419  0.00  0.00    +0.066 C 
ATOM     45  C   UNL     1      14.348   5.841   3.212  0.00  0.00    +0.066 C 
ENDBRANCH  37  38
ENDBRANCH  36  37
ENDBRANCH  26  36
ENDBRANCH   1  25
TORSDOF 12
