REMARK  Name = ZINC06301750
REMARK  8 active torsions:
REMARK  status: ('A' for Active; 'I' for Inactive)
REMARK    1  A    between atoms: C_1  and  C_2
REMARK    2  A    between atoms: C_4  and  C_40
REMARK    3  A    between atoms: C_7  and  C_14
REMARK    4  A    between atoms: C_14  and  C_16
REMARK    5  A    between atoms: C_14  and  N_68
REMARK    6  A    between atoms: N_20  and  C_21
REMARK    7  A    between atoms: C_21  and  C_22
REMARK    8  A    between atoms: C_33  and  C_35
REMARK                            x       y       z     vdW  Elec       q    Type
REMARK                         _______ _______ _______ _____ _____    ______ ____
ROOT
ATOM      1  C   UNL     1       5.022  -2.921  -0.017  0.00  0.00    +0.039 C 
ENDROOT
BRANCH   1   8
ATOM      2  C   UNL     1      -1.968   0.649   1.398  0.00  0.00    +0.044 C 
ATOM      3  C   UNL     1      -0.669  -0.112   1.347  0.00  0.00    -0.048 A 
ATOM      4  C   UNL     1      -0.251  -0.834   2.457  0.00  0.00    +0.007 A 
ATOM      5  C   UNL     1       0.926  -1.527   2.433  0.00  0.00    -0.041 A 
ATOM      6  C   UNL     1       1.719  -1.507   1.281  0.00  0.00    +0.002 A 
ATOM      7  C   UNL     1       2.987  -2.236   1.222  0.00  0.00    +0.018 A 
ATOM      8  C   UNL     1       3.713  -2.181   0.078  0.00  0.00    +0.011 A 
ATOM      9  C   UNL     1       3.247  -1.433  -1.025  0.00  0.00    +0.251 A 
ATOM     10  O   UNL     1       3.916  -1.397  -2.043  0.00  0.00    -0.268 OA
ATOM     11  N   UNL     1       2.084  -0.760  -0.979  0.00  0.00    -0.322 N 
ATOM     12  H   UNL     1       1.794  -0.255  -1.755  0.00  0.00    +0.169 HD
ATOM     13  C   UNL     1       1.299  -0.776   0.154  0.00  0.00    +0.050 A 
ATOM     14  C   UNL     1       0.096  -0.079   0.201  0.00  0.00    +0.029 A 
ATOM     15  C   UNL     1       1.369  -2.308   3.643  0.00  0.00    +0.044 C 
ENDBRANCH   1   8
BRANCH   1  23
ATOM     16  C   UNL     1       3.822  -4.816  -0.927  0.00  0.00    -0.058 C 
ATOM     17  C   UNL     1       3.676  -5.699  -2.172  0.00  0.00    +0.089 C 
ATOM     18  N   UNL     1       4.968  -6.351  -2.436  0.00  0.00    -0.299 N 
ATOM     19  C   UNL     1       6.173  -5.509  -2.497  0.00  0.00    +0.089 C 
ATOM     20  C   UNL     1       6.220  -4.634  -1.240  0.00  0.00    -0.058 C 
ATOM     21  C   UNL     1       5.046  -7.684  -2.617  0.00  0.00    +0.282 C 
ATOM     22  O   UNL     1       6.133  -8.222  -2.718  0.00  0.00    -0.267 OA
ATOM     23  N   UNL     1       4.950  -3.883  -1.136  0.00  0.00    +0.391 N 
ATOM     24  H   UNL     1       4.797  -3.366  -2.010  0.00  0.00    -0.080 HD
BRANCH  21  25
ATOM     25  C   UNL     1       3.821  -8.486  -2.692  0.00  0.00    +0.189 A 
ATOM     26  C   UNL     1       3.756  -9.850  -2.735  0.00  0.00    +0.054 A 
ATOM     27  C   UNL     1       2.395 -10.187  -2.802  0.00  0.00    +0.042 A 
ATOM     28  C   UNL     1       1.698  -9.029  -2.798  0.00  0.00    +0.196 A 
ATOM     29  O   UNL     1       2.560  -8.007  -2.726  0.00  0.00    -0.458 OA
ENDBRANCH  21  25
ENDBRANCH   1  23
BRANCH   1  30
ATOM     30  C   UNL     1       5.289  -3.638   1.282  0.00  0.00    +0.143 A 
ATOM     31  N   UNL     1       4.645  -4.681   1.747  0.00  0.00    -0.115 NA
ATOM     32  N   UNL     1       5.168  -4.999   2.880  0.00  0.00    -0.023 NA
ATOM     33  N   UNL     1       6.129  -4.186   3.151  0.00  0.00    -0.044 NA
ATOM     34  N   UNL     1       6.238  -3.336   2.187  0.00  0.00    -0.226 N 
BRANCH  34  35
ATOM     35  C   UNL     1       7.211  -2.244   2.096  0.00  0.00    +0.182 C 
BRANCH  35  36
ATOM     36  C   UNL     1       6.688  -1.042   2.839  0.00  0.00    -0.026 A 
ATOM     37  C   UNL     1       5.840  -0.152   2.206  0.00  0.00    +0.005 A 
ATOM     38  C   UNL     1       5.357   0.948   2.889  0.00  0.00    +0.000 A 
ATOM     39  C   UNL     1       5.729   1.163   4.203  0.00  0.00    +0.000 A 
ATOM     40  C   UNL     1       6.580   0.277   4.835  0.00  0.00    +0.000 A 
ATOM     41  C   UNL     1       7.059  -0.826   4.153  0.00  0.00    +0.005 A 
ENDBRANCH  35  36
ENDBRANCH  34  35
ENDBRANCH   1  30
TORSDOF 6
