REMARK  Name = ZINC14020257
REMARK  6 active torsions:
REMARK  status: ('A' for Active; 'I' for Inactive)
REMARK    1  A    between atoms: C_1  and  C_2
REMARK    2  A    between atoms: C_5  and  S_8
REMARK    3  A    between atoms: S_8  and  N_11
REMARK    4  A    between atoms: C_15  and  C_18
REMARK    5  A    between atoms: C_24  and  O_30
REMARK    6  A    between atoms: O_30  and  C_31
REMARK                            x       y       z     vdW  Elec       q    Type
REMARK                         _______ _______ _______ _____ _____    ______ ____
ROOT
ATOM      1  N   UNL     1       0.024  -0.502   1.581  0.00  0.00    -0.176 NA
ATOM      2  C   UNL     1       1.298  -0.716   2.281  0.00  0.00    +0.109 C 
ATOM      3  C   UNL     1       1.308  -2.123   2.877  0.00  0.00    +0.018 C 
ATOM      4  C   UNL     1       0.069  -2.312   3.755  0.00  0.00    +0.015 C 
ATOM      5  C   UNL     1      -1.192  -2.156   2.901  0.00  0.00    +0.091 C 
ATOM      6  C   UNL     1      -1.230  -0.745   2.307  0.00  0.00    +0.122 C 
ENDROOT
BRANCH   5   7
ATOM      7  C   UNL     1      -2.411  -2.374   3.759  0.00  0.00    +0.223 C 
ATOM      8  O   UNL     1      -3.230  -1.489   3.885  0.00  0.00    -0.275 OA
ATOM      9  N   UNL     1      -2.590  -3.553   4.388  0.00  0.00    -0.264 N 
ATOM     10  C   UNL     1      -3.712  -3.754   5.177  0.00  0.00    +0.166 A 
ATOM     11  N   UNL     1      -4.060  -4.821   5.856  0.00  0.00    -0.221 NA
ATOM     12  C   UNL     1      -5.191  -4.876   6.593  0.00  0.00    +0.122 A 
ATOM     13  C   UNL     1      -5.678  -5.957   7.372  0.00  0.00    +0.146 A 
ATOM     14  C   UNL     1      -6.861  -5.846   8.063  0.00  0.00    +0.048 A 
ATOM     15  C   UNL     1      -7.615  -4.682   8.025  0.00  0.00    +0.005 A 
ATOM     16  C   UNL     1      -7.168  -3.609   7.276  0.00  0.00    +0.017 A 
ATOM     17  C   UNL     1      -5.987  -3.710   6.581  0.00  0.00    +0.044 A 
ATOM     18  S   UNL     1      -5.055  -2.627   5.524  0.00  0.00    -0.052 S 
ATOM     19  H   UNL     1      -1.935  -4.261   4.287  0.00  0.00    +0.157 HD
BRANCH  13  20
ATOM     20  O   UNL     1      -4.968  -7.115   7.434  0.00  0.00    -0.493 OA
ATOM     21  C   UNL     1      -5.511  -8.166   8.235  0.00  0.00    +0.277 C 
ENDBRANCH  13  20
ENDBRANCH   5   7
BRANCH   1  22
ATOM     22  S   UNL     1       0.002  -0.004   0.002  0.00  0.00    +0.061 S 
ATOM     23  O   UNL     1      -1.243  -0.424  -0.539  0.00  0.00    -0.153 OA
ATOM     24  O   UNL     1       1.248  -0.390  -0.563  0.00  0.00    -0.153 OA
BRANCH  22  29
ATOM     25  C   UNL     1      -0.080   6.029   0.033  0.00  0.00    +0.044 C 
ATOM     26  C   UNL     1      -0.059   4.522   0.026  0.00  0.00    -0.050 A 
ATOM     27  C   UNL     1       1.147   3.847   0.011  0.00  0.00    +0.005 A 
ATOM     28  C   UNL     1       1.166   2.465   0.004  0.00  0.00    +0.029 A 
ATOM     29  C   UNL     1      -0.022   1.758   0.012  0.00  0.00    +0.105 A 
ATOM     30  C   UNL     1      -1.228   2.433   0.021  0.00  0.00    +0.029 A 
ATOM     31  C   UNL     1      -1.247   3.815   0.034  0.00  0.00    +0.005 A 
ENDBRANCH  22  29
ENDBRANCH   1  22
TORSDOF 4
