REMARK  Name = ZINC33704844
REMARK  19 active torsions:
REMARK  status: ('A' for Active; 'I' for Inactive)
REMARK    1  A    between atoms: C_1  and  C_2
REMARK    2  A    between atoms: C_2  and  N_3
REMARK    3  A    between atoms: N_3  and  C_4
REMARK    4  A    between atoms: N_3  and  C_6
REMARK    5  A    between atoms: C_4  and  C_5
REMARK    6  A    between atoms: C_6  and  C_7
REMARK    7  A    between atoms: C_7  and  C_8
REMARK    8  A    between atoms: C_8  and  C_9
REMARK    9  A    between atoms: C_9  and  C_11
REMARK   10  A    between atoms: C_9  and  N_12
REMARK   11  A    between atoms: C_13  and  C_15
REMARK   12  A    between atoms: C_15  and  S_16
REMARK   13  A    between atoms: S_16  and  C_17
REMARK   14  A    between atoms: C_28  and  C_31
REMARK   15  A    between atoms: C_32  and  C_34
REMARK   16  A    between atoms: C_34  and  C_35
REMARK   17  A    between atoms: C_35  and  C_36
REMARK   18  A    between atoms: C_35  and  C_37
REMARK   19  A    between atoms: C_35  and  C_38
REMARK                            x       y       z     vdW  Elec       q    Type
REMARK                         _______ _______ _______ _____ _____    ______ ____
ROOT
ATOM      1  C   UNL     1      -5.525  -1.976  -2.760  0.00  0.00    +0.192 A 
ATOM      2  N   UNL     1      -6.413  -2.128  -3.732  0.00  0.00    -0.207 NA
ATOM      3  C   UNL     1      -7.650  -2.532  -3.462  0.00  0.00    +0.127 A 
ATOM      4  C   UNL     1      -8.004  -2.795  -2.137  0.00  0.00    +0.083 A 
ATOM      5  C   UNL     1      -7.047  -2.624  -1.153  0.00  0.00    +0.135 A 
ATOM      6  N   UNL     1      -5.830  -2.223  -1.495  0.00  0.00    -0.210 NA
ATOM      7 CL   UNL     1      -7.434  -2.937   0.510  0.00  0.00    -0.062 Cl
ATOM      8  N   UNL     1      -8.576  -2.689  -4.481  0.00  0.00    -0.312 N 
ATOM      9  C   UNL     1      -9.779  -1.885  -4.228  0.00  0.00    +0.125 C 
ATOM     10  C   UNL     1     -10.696  -1.944  -5.455  0.00  0.00    +0.127 C 
ATOM     11  N   UNL     1     -10.948  -3.355  -5.782  0.00  0.00    -0.296 N 
ATOM     12  C   UNL     1      -9.793  -4.256  -5.916  0.00  0.00    +0.090 C 
ATOM     13  C   UNL     1      -8.912  -4.107  -4.671  0.00  0.00    +0.128 C 
ATOM     14  C   UNL     1     -10.280  -5.702  -6.031  0.00  0.00    +0.029 C 
ATOM     15  C   UNL     1     -12.205  -3.811  -5.955  0.00  0.00    +0.216 C 
ATOM     16  O   UNL     1     -12.391  -4.952  -6.323  0.00  0.00    -0.276 OA
ENDROOT
BRANCH   1  17
ATOM     17  S   UNL     1      -3.895  -1.440  -3.162  0.00  0.00    -0.077 S 
BRANCH  17  18
ATOM     18  C   UNL     1      -3.157  -1.413  -1.510  0.00  0.00    +0.173 C 
BRANCH  18  20
ATOM     19  N   UNL     1      -0.965  -0.876  -0.496  0.00  0.00    -0.312 N 
ATOM     20  C   UNL     1      -1.720  -0.971  -1.609  0.00  0.00    +0.224 C 
ATOM     21  O   UNL     1      -1.242  -0.699  -2.690  0.00  0.00    -0.275 OA
ATOM     22  H   UNL     1      -1.399  -1.122   0.485  0.00  0.00    +0.149 HD
BRANCH  19  23
ATOM     23  C   UNL     1       0.432  -0.445  -0.592  0.00  0.00    +0.070 C 
ATOM     24  C   UNL     1       0.495   1.083  -0.589  0.00  0.00    +0.028 C 
BRANCH  23  25
ATOM     25  C   UNL     1       1.217  -0.991   0.602  0.00  0.00    +0.020 C 
BRANCH  25  26
ATOM     26  C   UNL     1       1.259  -2.519   0.529  0.00  0.00    -0.017 C 
BRANCH  26  27
ATOM     27  C   UNL     1       2.044  -3.065   1.723  0.00  0.00    -0.079 C 
BRANCH  27  28
ATOM     28  N   UNL     1       2.084  -4.532   1.654  0.00  0.00    +0.379 N 
ATOM     29  H   UNL     1       1.052  -4.893   1.533  0.00  0.00    -0.082 HD
BRANCH  28  31
ATOM     30  C   UNL     1       4.319  -4.558   0.654  0.00  0.00    -0.017 C 
ATOM     31  C   UNL     1       2.859  -4.983   0.490  0.00  0.00    -0.082 C 
ENDBRANCH  28  31
BRANCH  28  32
ATOM     32  C   UNL     1       2.620  -5.103   2.897  0.00  0.00    -0.082 C 
ATOM     33  C   UNL     1       2.305  -6.600   2.947  0.00  0.00    -0.017 C 
ENDBRANCH  28  32
ENDBRANCH  27  28
ENDBRANCH  26  27
ENDBRANCH  25  26
ENDBRANCH  23  25
ENDBRANCH  19  23
ENDBRANCH  18  20
ENDBRANCH  17  18
ENDBRANCH   1  17
BRANCH  15  34
ATOM     34  C   UNL     1     -13.379  -2.904  -5.690  0.00  0.00    +0.102 C 
BRANCH  34  35
ATOM     35  C   UNL     1     -14.680  -3.662  -5.960  0.00  0.00    -0.029 C 
ATOM     36  C   UNL     1     -14.761  -4.881  -5.040  0.00  0.00    +0.011 C 
ATOM     37  C   UNL     1     -15.872  -2.740  -5.692  0.00  0.00    +0.011 C 
ATOM     38  C   UNL     1     -14.709  -4.121  -7.419  0.00  0.00    +0.011 C 
ENDBRANCH  34  35
ENDBRANCH  15  34
TORSDOF 12
