REMARK  Name = ZINC06889307
REMARK  3 active torsions:
REMARK  status: ('A' for Active; 'I' for Inactive)
REMARK    1  A    between atoms: C_4  and  O_23
REMARK    2  A    between atoms: N_13  and  C_16
REMARK    3  A    between atoms: C_16  and  C_17
REMARK                            x       y       z     vdW  Elec       q    Type
REMARK                         _______ _______ _______ _____ _____    ______ ____
ROOT
ATOM      1  C   UNL     1       0.017  -1.929   5.859  0.00  0.00    +0.001 A 
ATOM      2  C   UNL     1       1.371  -2.148   5.986  0.00  0.00    +0.012 A 
ATOM      3  C   UNL     1       2.224  -1.904   4.900  0.00  0.00    +0.025 A 
ATOM      4  C   UNL     1       3.619  -2.115   4.981  0.00  0.00    +0.125 A 
ATOM      5  C   UNL     1       4.418  -1.858   3.881  0.00  0.00    +0.047 A 
ATOM      6  C   UNL     1       3.880  -1.396   2.692  0.00  0.00    +0.017 A 
ATOM      7  C   UNL     1       2.511  -1.179   2.578  0.00  0.00    +0.046 A 
ATOM      8  C   UNL     1       1.675  -1.434   3.690  0.00  0.00    +0.010 A 
ATOM      9  C   UNL     1       0.284  -1.215   3.577  0.00  0.00    +0.046 A 
ATOM     10  C   UNL     1      -0.532  -1.467   4.671  0.00  0.00    +0.014 A 
ATOM     11  C   UNL     1      -0.252  -0.725   2.299  0.00  0.00    +0.254 C 
ATOM     12  O   UNL     1      -1.446  -0.529   2.179  0.00  0.00    -0.270 OA
ATOM     13  N   UNL     1       0.573  -0.492   1.260  0.00  0.00    -0.232 N 
ATOM     14  C   UNL     1       1.901  -0.695   1.334  0.00  0.00    +0.254 C 
ATOM     15  O   UNL     1       2.601  -0.473   0.364  0.00  0.00    -0.270 OA
ENDROOT
BRANCH   4  16
ATOM     16  O   UNL     1       4.173  -2.565   6.133  0.00  0.00    -0.506 OA
ATOM     17  H   UNL     1       4.223  -3.529   6.194  0.00  0.00    +0.292 HD
ENDBRANCH   4  16
BRANCH  13  18
ATOM     18  C   UNL     1       0.002  -0.004   0.002  0.00  0.00    +0.148 C 
BRANCH  18  19
ATOM     19  C   UNL     1      -0.019   1.526   0.010  0.00  0.00    +0.136 C 
ATOM     20  C   UNL     1      -0.723   2.047  -1.261  0.00  0.00    +0.035 C 
ATOM     21  C   UNL     1       0.144   3.280  -1.635  0.00  0.00    +0.031 C 
ATOM     22  C   UNL     1       1.548   2.799  -1.192  0.00  0.00    +0.160 C 
ATOM     23  O   UNL     1       1.322   2.030   0.000  0.00  0.00    -0.375 OA
ENDBRANCH  18  19
ENDBRANCH  13  18
TORSDOF 3
