REMARK  Name = ZINC64636476
REMARK  5 active torsions:
REMARK  status: ('A' for Active; 'I' for Inactive)
REMARK    1  A    between atoms: C_1  and  C_2
REMARK    2  A    between atoms: C_2  and  C_3
REMARK    3  A    between atoms: C_2  and  C_4
REMARK    4  A    between atoms: C_19  and  C_21
REMARK    5  A    between atoms: N_23  and  C_26
REMARK                            x       y       z     vdW  Elec       q    Type
REMARK                         _______ _______ _______ _____ _____    ______ ____
ROOT
ATOM      1  C   UNL     1      -0.811  -1.196   0.862  0.00  0.00    +0.105 C 
ATOM      2  C   UNL     1       0.445  -1.847   1.452  0.00  0.00    +0.127 C 
ATOM      3  C   UNL     1      -0.003  -2.611   2.691  0.00  0.00    -0.035 C 
ATOM      4  C   UNL     1       0.390  -3.868   2.520  0.00  0.00    -0.001 A 
ATOM      5  C   UNL     1       0.307  -5.048   3.396  0.00  0.00    +0.010 A 
ATOM      6  C   UNL     1       0.807  -6.206   2.890  0.00  0.00    +0.001 A 
ATOM      7  C   UNL     1       1.375  -6.307   1.616  0.00  0.00    +0.002 A 
ATOM      8  C   UNL     1       1.496  -5.273   0.746  0.00  0.00    +0.026 A 
ATOM      9  C   UNL     1       1.010  -4.001   1.166  0.00  0.00    +0.043 A 
ATOM     10  N   UNL     1       1.023  -2.837   0.541  0.00  0.00    -0.376 N 
ATOM     11  C   UNL     1      -0.804  -1.966   3.795  0.00  0.00    +0.052 C 
ATOM     12  C   UNL     1      -1.994  -1.258   3.123  0.00  0.00    +0.113 C 
ATOM     13  N   UNL     1      -1.520  -0.510   1.954  0.00  0.00    -0.291 N 
ATOM     14  C   UNL     1      -1.733   0.819   1.880  0.00  0.00    +0.263 C 
ATOM     15  O   UNL     1      -1.254   1.462   0.963  0.00  0.00    -0.269 OA
ATOM     16  H   UNL     1       1.348  -2.661  -0.356  0.00  0.00    +0.160 HD
ENDROOT
BRANCH  14  17
ATOM     17  C   UNL     1      -2.539   1.487   2.899  0.00  0.00    +0.120 C 
ATOM     18  C   UNL     1      -2.071   2.188   3.954  0.00  0.00    +0.119 C 
ATOM     19  N   UNL     1      -3.142   2.657   4.673  0.00  0.00    -0.253 N 
ATOM     20  N   UNL     1      -4.293   2.247   4.064  0.00  0.00    -0.160 NA
ATOM     21  N   UNL     1      -3.950   1.523   2.956  0.00  0.00    -0.259 N 
ATOM     22  H   UNL     1      -4.870   3.036   3.812  0.00  0.00    +0.168 HD
ATOM     23  H   UNL     1      -4.562   1.110   2.328  0.00  0.00    +0.168 HD
BRANCH  19  24
ATOM     24  C   UNL     1      -3.063   3.464   5.893  0.00  0.00    +0.092 C 
ATOM     25  C   UNL     1      -3.750   2.722   7.041  0.00  0.00    +0.024 C 
ATOM     26  C   UNL     1      -3.667   3.565   8.315  0.00  0.00    +0.002 C 
ATOM     27  C   UNL     1      -4.366   4.906   8.086  0.00  0.00    +0.000 C 
ATOM     28  C   UNL     1      -3.680   5.649   6.938  0.00  0.00    +0.002 C 
ATOM     29  C   UNL     1      -3.762   4.806   5.663  0.00  0.00    +0.024 C 
ENDBRANCH  19  24
ENDBRANCH  14  17
BRANCH   1  31
ATOM     30  C   UNL     1       0.671   0.746   0.337  0.00  0.00    +0.009 C 
ATOM     31  C   UNL     1      -0.413  -0.184  -0.214  0.00  0.00    +0.006 C 
ATOM     32  C   UNL     1       0.126  -0.926  -1.438  0.00  0.00    +0.009 C 
ENDBRANCH   1  31
TORSDOF 3
