REMARK  Name = ZINC25432749
REMARK  8 active torsions:
REMARK  status: ('A' for Active; 'I' for Inactive)
REMARK    1  A    between atoms: C_3  and  C_6
REMARK    2  A    between atoms: C_8  and  C_18
REMARK    3  A    between atoms: N_10  and  C_11
REMARK    4  A    between atoms: N_20  and  C_21
REMARK    5  A    between atoms: C_21  and  C_22
REMARK    6  A    between atoms: C_22  and  C_23
REMARK    7  A    between atoms: C_26  and  S_29
REMARK    8  A    between atoms: S_29  and  N_32
REMARK                            x       y       z     vdW  Elec       q    Type
REMARK                         _______ _______ _______ _____ _____    ______ ____
ROOT
ATOM      1  C   UNL     1      -4.532  -1.604  -1.120  0.00  0.00    +0.264 C 
ATOM      2  O   UNL     1      -5.702  -1.853  -0.902  0.00  0.00    -0.268 OA
ATOM      3  N   UNL     1      -3.819  -2.390  -1.949  0.00  0.00    -0.310 N 
ATOM      4  H   UNL     1      -2.760  -2.164  -2.147  0.00  0.00    +0.149 HD
ENDROOT
BRANCH   1   7
ATOM      5  C   UNL     1      -3.537   1.370   0.750  0.00  0.00    +0.110 A 
ATOM      6  C   UNL     1      -4.512   0.469   0.412  0.00  0.00    +0.066 A 
ATOM      7  C   UNL     1      -3.893  -0.438  -0.475  0.00  0.00    +0.148 A 
ATOM      8  N   UNL     1      -2.640  -0.054  -0.623  0.00  0.00    -0.161 NA
ATOM      9  N   UNL     1      -2.406   0.997   0.077  0.00  0.00    -0.228 N 
BRANCH   9  10
ATOM     10  C   UNL     1      -1.174   1.660   0.144  0.00  0.00    +0.066 A 
ATOM     11  C   UNL     1      -0.449   1.901  -1.015  0.00  0.00    +0.029 A 
ATOM     12  C   UNL     1       0.762   2.560  -0.946  0.00  0.00    +0.022 A 
ATOM     13  C   UNL     1       1.257   2.975   0.278  0.00  0.00    +0.041 A 
ATOM     14  C   UNL     1       0.539   2.732   1.436  0.00  0.00    +0.022 A 
ATOM     15  C   UNL     1      -0.674   2.074   1.372  0.00  0.00    +0.029 A 
ATOM     16 CL   UNL     1       2.780   3.804   0.361  0.00  0.00    -0.084 Cl
ENDBRANCH   9  10
BRANCH   5  19
ATOM     17  C   UNL     1      -4.438   3.941   3.191  0.00  0.00    +0.042 A 
ATOM     18  C   UNL     1      -4.711   2.731   2.524  0.00  0.00    +0.051 A 
ATOM     19  C   UNL     1      -3.679   2.518   1.661  0.00  0.00    +0.153 A 
ATOM     20  O   UNL     1      -2.809   3.539   1.789  0.00  0.00    -0.461 OA
ATOM     21  C   UNL     1      -3.268   4.404   2.709  0.00  0.00    +0.196 A 
ENDBRANCH   5  19
ENDBRANCH   1   7
BRANCH   3  22
ATOM     22  C   UNL     1      -4.452  -3.546  -2.589  0.00  0.00    +0.109 C 
BRANCH  22  23
ATOM     23  C   UNL     1      -3.431  -4.264  -3.473  0.00  0.00    +0.054 C 
BRANCH  23  24
ATOM     24  C   UNL     1      -4.082  -5.453  -4.131  0.00  0.00    -0.046 A 
ATOM     25  C   UNL     1      -4.057  -6.687  -3.508  0.00  0.00    +0.005 A 
ATOM     26  C   UNL     1      -4.659  -7.777  -4.109  0.00  0.00    +0.029 A 
ATOM     27  C   UNL     1      -5.278  -7.634  -5.337  0.00  0.00    +0.105 A 
ATOM     28  C   UNL     1      -5.299  -6.401  -5.962  0.00  0.00    +0.029 A 
ATOM     29  C   UNL     1      -4.701  -5.311  -5.359  0.00  0.00    +0.005 A 
BRANCH  27  30
ATOM     30  S   UNL     1      -6.041  -9.024  -6.105  0.00  0.00    +0.056 S 
ATOM     31  O   UNL     1      -6.358  -9.939  -5.066  0.00  0.00    -0.153 OA
ATOM     32  O   UNL     1      -7.024  -8.509  -6.993  0.00  0.00    -0.153 OA
BRANCH  30  33
ATOM     33  N   UNL     1      -4.892  -9.756  -7.046  0.00  0.00    -0.204 NA
ATOM     34  H   UNL     1      -5.330 -10.633  -7.545  0.00  0.00    +0.144 HD
ATOM     35  H   UNL     1      -4.050 -10.077  -6.414  0.00  0.00    +0.144 HD
ENDBRANCH  30  33
ENDBRANCH  27  30
ENDBRANCH  23  24
ENDBRANCH  22  23
ENDBRANCH   3  22
TORSDOF 8
