REMARK  Name = ZINC00047756
REMARK  1 active torsions:
REMARK  status: ('A' for Active; 'I' for Inactive)
REMARK    1  A    between atoms: C_4  and  C_7
REMARK                            x       y       z     vdW  Elec       q    Type
REMARK                         _______ _______ _______ _____ _____    ______ ____
ROOT
ATOM      1  C   UNL     1       4.521   4.157   0.597  0.00  0.00    +0.069 C 
ATOM      2  N   UNL     1       4.417   4.175  -0.688  0.00  0.00    -0.190 NA
ATOM      3  N   UNL     1       3.112   4.362  -1.151  0.00  0.00    -0.249 N 
ATOM      4  C   UNL     1       2.226   4.485   0.004  0.00  0.00    +0.157 C 
ATOM      5  C   UNL     1       3.152   4.351   1.217  0.00  0.00    +0.099 C 
ATOM      6  C   UNL     1       1.152   3.435   0.008  0.00  0.00    +0.010 A 
ATOM      7  C   UNL     1       1.173   2.058   0.002  0.00  0.00    +0.046 A 
ATOM      8  C   UNL     1      -0.016   1.347   0.009  0.00  0.00    +0.124 A 
ATOM      9  C   UNL     1      -1.224   2.025   0.019  0.00  0.00    +0.040 A 
ATOM     10  C   UNL     1      -1.247   3.404   0.031  0.00  0.00    +0.026 A 
ATOM     11  C   UNL     1      -0.056   4.126   0.022  0.00  0.00    +0.039 A 
ATOM     12  N   UNL     1       0.176   5.504   0.025  0.00  0.00    -0.283 N 
ATOM     13  C   UNL     1       1.491   5.798   0.013  0.00  0.00    +0.247 C 
ATOM     14  O   UNL     1       1.986   6.905   0.012  0.00  0.00    -0.273 OA
ATOM     15  F   UNL     1       0.002  -0.004   0.002  0.00  0.00    -0.205 F 
ATOM     16  H   UNL     1       2.841   4.402  -2.081  0.00  0.00    +0.170 HD
ATOM     17  H   UNL     1      -0.527   6.172   0.034  0.00  0.00    +0.155 HD
ENDROOT
BRANCH   1  21
ATOM     18  C   UNL     1       8.137   3.636   2.757  0.00  0.00    +0.000 A 
ATOM     19  C   UNL     1       8.156   3.636   1.373  0.00  0.00    +0.001 A 
ATOM     20  C   UNL     1       6.984   3.805   0.665  0.00  0.00    +0.010 A 
ATOM     21  C   UNL     1       5.777   3.975   1.348  0.00  0.00    -0.002 A 
ATOM     22  C   UNL     1       5.767   3.979   2.745  0.00  0.00    +0.010 A 
ATOM     23  C   UNL     1       6.946   3.804   3.440  0.00  0.00    +0.001 A 
ENDBRANCH   1  21
TORSDOF 1
