REMARK  Name = ZINC32598538
REMARK  10 active torsions:
REMARK  status: ('A' for Active; 'I' for Inactive)
REMARK    1  A    between atoms: C_1  and  C_2
REMARK    2  A    between atoms: C_2  and  C_3
REMARK    3  A    between atoms: C_3  and  C_35
REMARK    4  A    between atoms: N_19  and  C_34
REMARK    5  A    between atoms: C_21  and  S_22
REMARK    6  A    between atoms: S_22  and  C_23
REMARK    7  A    between atoms: C_23  and  C_24
REMARK    8  A    between atoms: N_26  and  C_27
REMARK    9  A    between atoms: C_30  and  C_33
REMARK   10  A    between atoms: C_35  and  C_36
REMARK                            x       y       z     vdW  Elec       q    Type
REMARK                         _______ _______ _______ _____ _____    ______ ____
ROOT
ATOM      1  C   UNL     1     -11.582   4.170   0.003  0.00  0.00    +0.006 C 
ATOM      2  C   UNL     1     -12.772   4.281  -0.947  0.00  0.00    +0.047 C 
ATOM      3  C   UNL     1     -13.646   3.060  -0.833  0.00  0.00    -0.038 A 
ATOM      4  C   UNL     1     -15.014   3.165  -0.973  0.00  0.00    +0.004 A 
ATOM      5  C   UNL     1     -15.807   2.035  -0.885  0.00  0.00    +0.000 A 
ATOM      6  C   UNL     1     -15.237   0.795  -0.656  0.00  0.00    +0.001 A 
ATOM      7  C   UNL     1     -13.870   0.677  -0.509  0.00  0.00    +0.010 A 
ATOM      8  C   UNL     1     -13.066   1.813  -0.592  0.00  0.00    -0.000 A 
ATOM      9  C   UNL     1     -11.603   1.716  -0.426  0.00  0.00    +0.046 C 
ATOM     10  C   UNL     1     -10.885   2.848  -0.169  0.00  0.00    +0.043 C 
ATOM     11  C   UNL     1      -9.472   2.785  -0.066  0.00  0.00    +0.253 C 
ATOM     12  O   UNL     1      -8.795   3.789   0.068  0.00  0.00    -0.270 OA
ATOM     13  N   UNL     1      -8.916   1.560  -0.123  0.00  0.00    -0.209 N 
ATOM     14  C   UNL     1      -9.698   0.338   0.189  0.00  0.00    +0.278 C 
ATOM     15  N   UNL     1     -10.975   0.487  -0.522  0.00  0.00    -0.308 N 
ATOM     16  N   UNL     1      -8.869  -0.734  -0.370  0.00  0.00    -0.219 N 
ATOM     17  N   UNL     1      -7.628  -0.146  -0.663  0.00  0.00    -0.159 NA
ATOM     18  C   UNL     1      -7.663   1.138  -0.495  0.00  0.00    +0.183 C 
ATOM     19  C   UNL     1      -9.257  -2.130  -0.584  0.00  0.00    +0.155 C 
ATOM     20  H   UNL     1     -11.387  -0.356  -1.095  0.00  0.00    +0.149 HD
ENDROOT
BRANCH   1  22
ATOM     21  C   UNL     1     -10.046   5.144  -1.709  0.00  0.00    +0.005 C 
ATOM     22  C   UNL     1     -10.596   5.302  -0.290  0.00  0.00    +0.009 C 
ENDBRANCH   1  22
BRANCH   1  23
ATOM     23  C   UNL     1     -12.077   4.295   1.446  0.00  0.00    +0.009 C 
ATOM     24  C   UNL     1     -12.684   5.684   1.658  0.00  0.00    +0.005 C 
ENDBRANCH   1  23
BRANCH  18  25
ATOM     25  S   UNL     1      -6.281   2.208  -0.723  0.00  0.00    -0.079 S 
BRANCH  25  26
ATOM     26  C   UNL     1      -4.935   1.091  -1.203  0.00  0.00    +0.173 C 
BRANCH  26  27
ATOM     27  C   UNL     1      -3.677   1.888  -1.431  0.00  0.00    +0.227 C 
ATOM     28  O   UNL     1      -3.688   3.092  -1.285  0.00  0.00    -0.275 OA
ATOM     29  N   UNL     1      -2.541   1.264  -1.798  0.00  0.00    -0.285 N 
ATOM     30  H   UNL     1      -2.550   0.185  -2.014  0.00  0.00    +0.155 HD
BRANCH  29  31
ATOM     31  C   UNL     1      -1.348   1.988  -1.904  0.00  0.00    +0.033 A 
ATOM     32  C   UNL     1      -1.104   3.056  -1.051  0.00  0.00    +0.023 A 
ATOM     33  C   UNL     1       0.077   3.765  -1.155  0.00  0.00    +0.005 A 
ATOM     34  C   UNL     1       1.014   3.414  -2.109  0.00  0.00    -0.050 A 
ATOM     35  C   UNL     1       0.772   2.354  -2.963  0.00  0.00    +0.005 A 
ATOM     36  C   UNL     1      -0.407   1.642  -2.865  0.00  0.00    +0.023 A 
ATOM     37  C   UNL     1       2.302   4.189  -2.219  0.00  0.00    +0.044 C 
ENDBRANCH  29  31
ENDBRANCH  26  27
ENDBRANCH  25  26
ENDBRANCH  18  25
TORSDOF 6
