REMARK  Name = ZINC21251197
REMARK  10 active torsions:
REMARK  status: ('A' for Active; 'I' for Inactive)
REMARK    1  A    between atoms: C_1  and  C_2
REMARK    2  A    between atoms: C_2  and  O_3
REMARK    3  A    between atoms: O_3  and  C_4
REMARK    4  A    between atoms: C_7  and  C_10
REMARK    5  A    between atoms: C_15  and  C_25
REMARK    6  A    between atoms: C_28  and  O_33
REMARK    7  A    between atoms: C_29  and  O_31
REMARK    8  A    between atoms: O_31  and  C_32
REMARK    9  A    between atoms: O_33  and  C_34
REMARK   10  A    between atoms: C_34  and  C_35
REMARK                            x       y       z     vdW  Elec       q    Type
REMARK                         _______ _______ _______ _____ _____    ______ ____
ROOT
ATOM      1  C   UNL     1       6.124  -3.058   1.576  0.00  0.00    +0.032 C 
ATOM      2  C   UNL     1       5.626  -1.648   1.263  0.00  0.00    +0.059 C 
ATOM      3  C   UNL     1       4.154  -1.691   0.883  0.00  0.00    +0.017 C 
ATOM      4  C   UNL     1       3.336  -2.600   1.436  0.00  0.00    +0.036 C 
ATOM      5  C   UNL     1       1.855  -2.737   1.171  0.00  0.00    +0.136 C 
ATOM      6  N   UNL     1       1.375  -1.964   0.045  0.00  0.00    -0.331 N 
ATOM      7  C   UNL     1       1.417  -0.571   0.058  0.00  0.00    +0.049 A 
ATOM      8  C   UNL     1       0.257   0.186   0.088  0.00  0.00    +0.025 A 
ATOM      9  C   UNL     1       0.346   1.565   0.163  0.00  0.00    +0.002 A 
ATOM     10  C   UNL     1       1.581   2.185   0.222  0.00  0.00    +0.002 A 
ATOM     11  C   UNL     1       2.743   1.431   0.187  0.00  0.00    +0.025 A 
ATOM     12  C   UNL     1       2.655   0.054   0.086  0.00  0.00    +0.052 A 
ATOM     13  N   UNL     1       3.779  -0.756  -0.027  0.00  0.00    -0.316 N 
ATOM     14  C   UNL     1       3.841  -3.548   2.357  0.00  0.00    +0.163 C 
ATOM     15  O   UNL     1       3.073  -4.349   2.854  0.00  0.00    -0.292 OA
ATOM     16  C   UNL     1       5.288  -3.600   2.743  0.00  0.00    +0.088 C 
ATOM     17  H   UNL     1       0.969  -2.476  -0.840  0.00  0.00    +0.147 HD
ATOM     18  H   UNL     1       4.382  -0.598  -0.934  0.00  0.00    +0.152 HD
ENDROOT
BRANCH   1  22
ATOM     19  C   UNL     1      10.249  -2.925   2.684  0.00  0.00    +0.121 A 
ATOM     20  C   UNL     1       9.849  -3.668   1.583  0.00  0.00    +0.046 A 
ATOM     21  C   UNL     1       8.515  -3.709   1.226  0.00  0.00    +0.007 A 
ATOM     22  C   UNL     1       7.578  -3.011   1.967  0.00  0.00    -0.043 A 
ATOM     23  C   UNL     1       7.975  -2.265   3.062  0.00  0.00    +0.007 A 
ATOM     24  C   UNL     1       9.307  -2.225   3.425  0.00  0.00    +0.046 A 
BRANCH  19  25
ATOM     25  O   UNL     1      11.561  -2.882   3.036  0.00  0.00    -0.492 OA
BRANCH  25  27
ATOM     26  C   UNL     1      13.409  -2.170   4.421  0.00  0.00    +0.048 C 
ATOM     27  C   UNL     1      11.900  -2.098   4.181  0.00  0.00    +0.225 C 
ENDBRANCH  25  27
ENDBRANCH  19  25
ENDBRANCH   1  22
BRANCH   5  28
ATOM     28  C   UNL     1       1.109  -2.297   2.405  0.00  0.00    -0.019 A 
ATOM     29  C   UNL     1       1.177  -0.980   2.819  0.00  0.00    +0.009 A 
ATOM     30  C   UNL     1       0.494  -0.572   3.950  0.00  0.00    +0.050 A 
ATOM     31  C   UNL     1      -0.260  -1.484   4.671  0.00  0.00    +0.162 A 
ATOM     32  C   UNL     1      -0.329  -2.810   4.253  0.00  0.00    +0.162 A 
ATOM     33  C   UNL     1       0.354  -3.211   3.116  0.00  0.00    +0.055 A 
BRANCH  32  34
ATOM     34  O   UNL     1      -1.068  -3.708   4.957  0.00  0.00    -0.491 OA
ATOM     35  C   UNL     1      -1.092  -5.052   4.471  0.00  0.00    +0.277 C 
ENDBRANCH  32  34
BRANCH  31  36
ATOM     36  O   UNL     1      -0.932  -1.084   5.783  0.00  0.00    -0.489 OA
BRANCH  36  37
ATOM     37  C   UNL     1      -0.817   0.292   6.152  0.00  0.00    +0.226 C 
ATOM     38  C   UNL     1      -1.635   0.551   7.418  0.00  0.00    +0.048 C 
ENDBRANCH  36  37
ENDBRANCH  31  36
ENDBRANCH   5  28
TORSDOF 7
