REMARK  Name = ZINC09244292
REMARK  9 active torsions:
REMARK  status: ('A' for Active; 'I' for Inactive)
REMARK    1  A    between atoms: C_1  and  C_2
REMARK    2  A    between atoms: C_2  and  C_3
REMARK    3  A    between atoms: C_3  and  O_4
REMARK    4  A    between atoms: O_4  and  C_5
REMARK    5  A    between atoms: C_8  and  C_11
REMARK    6  A    between atoms: C_18  and  N_32
REMARK    7  A    between atoms: C_19  and  C_30
REMARK    8  A    between atoms: C_20  and  C_22
REMARK    9  A    between atoms: C_27  and  O_28
REMARK                            x       y       z     vdW  Elec       q    Type
REMARK                         _______ _______ _______ _____ _____    ______ ____
ROOT
ATOM      1  C   UNL     1      -6.772  -4.910   0.185  0.00  0.00    +0.100 A 
ATOM      2  C   UNL     1      -6.887  -5.977  -0.710  0.00  0.00    +0.054 A 
ATOM      3  C   UNL     1      -8.160  -6.464  -0.626  0.00  0.00    +0.223 A 
ATOM      4  N   UNL     1      -8.820  -5.728   0.292  0.00  0.00    -0.246 N 
ATOM      5  H   UNL     1      -9.745  -5.848   0.561  0.00  0.00    +0.192 HD
ATOM      6  N   UNL     1      -7.934  -4.762   0.793  0.00  0.00    -0.171 NA
ATOM      7  O   UNL     1      -8.596  -7.507  -1.375  0.00  0.00    -0.423 OA
ATOM      8  C   UNL     1      -7.829  -7.894  -2.414  0.00  0.00    +0.200 C 
ATOM      9  C   UNL     1      -6.552  -7.490  -2.597  0.00  0.00    +0.098 C 
ATOM     10  C   UNL     1      -5.853  -6.559  -1.639  0.00  0.00    +0.105 C 
ENDROOT
BRANCH  10  11
ATOM     11  C   UNL     1      -4.827  -7.324  -0.843  0.00  0.00    +0.008 A 
ATOM     12  C   UNL     1      -5.230  -8.316   0.032  0.00  0.00    +0.028 A 
ATOM     13  C   UNL     1      -4.289  -9.019   0.763  0.00  0.00    +0.041 A 
ATOM     14  C   UNL     1      -2.943  -8.730   0.620  0.00  0.00    +0.023 A 
ATOM     15  C   UNL     1      -2.537  -7.740  -0.253  0.00  0.00    +0.047 A 
ATOM     16  C   UNL     1      -3.478  -7.038  -0.991  0.00  0.00    +0.121 A 
ATOM     17 CL   UNL     1      -4.798 -10.263   1.861  0.00  0.00    -0.084 Cl
BRANCH  16  18
ATOM     18  O   UNL     1      -3.080  -6.067  -1.855  0.00  0.00    -0.506 OA
ATOM     19  H   UNL     1      -2.939  -5.205  -1.440  0.00  0.00    +0.292 HD
ENDBRANCH  16  18
ENDBRANCH  10  11
BRANCH   1  23
ATOM     20  C   UNL     1      -3.284  -2.565   0.848  0.00  0.00    +0.121 A 
ATOM     21  C   UNL     1      -4.050  -2.987   1.926  0.00  0.00    +0.046 A 
ATOM     22  C   UNL     1      -5.181  -3.748   1.714  0.00  0.00    +0.013 A 
ATOM     23  C   UNL     1      -5.556  -4.091   0.416  0.00  0.00    +0.003 A 
ATOM     24  C   UNL     1      -4.785  -3.666  -0.664  0.00  0.00    +0.013 A 
ATOM     25  C   UNL     1      -3.658  -2.901  -0.446  0.00  0.00    +0.046 A 
BRANCH  20  26
ATOM     26  O   UNL     1      -2.170  -1.816   1.059  0.00  0.00    -0.492 OA
BRANCH  26  27
ATOM     27  C   UNL     1      -1.845  -1.507   2.416  0.00  0.00    +0.229 C 
BRANCH  27  29
ATOM     28  C   UNL     1      -0.220  -0.332   3.907  0.00  0.00    +0.007 C 
ATOM     29  C   UNL     1      -0.569  -0.663   2.454  0.00  0.00    +0.038 C 
ENDBRANCH  27  29
ENDBRANCH  26  27
ENDBRANCH  20  26
ENDBRANCH   1  23
BRANCH   8  30
ATOM     30  N   UNL     1      -8.377  -8.746  -3.340  0.00  0.00    -0.328 N 
ATOM     31  H   UNL     1      -9.291  -9.053  -3.236  0.00  0.00    +0.145 HD
ATOM     32  H   UNL     1      -7.850  -9.041  -4.099  0.00  0.00    +0.145 HD
ENDBRANCH   8  30
BRANCH   9  33
ATOM     33  C   UNL     1      -5.836  -7.965  -3.743  0.00  0.00    +0.101 C 
ATOM     34  N   UNL     1      -5.268  -8.342  -4.652  0.00  0.00    -0.191 NA
ENDBRANCH   9  33
TORSDOF 8
