REMARK  Name = ZINC15613612
REMARK  6 active torsions:
REMARK  status: ('A' for Active; 'I' for Inactive)
REMARK    1  A    between atoms: C_1  and  C_2
REMARK    2  A    between atoms: C_3  and  C_11
REMARK    3  A    between atoms: C_8  and  C_10
REMARK    4  A    between atoms: C_11  and  C_12
REMARK    5  A    between atoms: C_12  and  C_13
REMARK    6  A    between atoms: C_19  and  C_22
REMARK                            x       y       z     vdW  Elec       q    Type
REMARK                         _______ _______ _______ _____ _____    ______ ____
ROOT
ATOM      1  C   UNL     1      -2.492   0.017   0.015  0.00  0.00    +0.051 C 
ENDROOT
BRANCH   1   4
ATOM      2  C   UNL     1      -0.018   1.503   0.010  0.00  0.00    +0.066 C 
ATOM      3  C   UNL     1       0.002  -0.004   0.002  0.00  0.00    +0.049 A 
ATOM      4  C   UNL     1      -1.167  -0.702   0.004  0.00  0.00    +0.038 A 
ATOM      5  C   UNL     1      -1.113  -2.111  -0.005  0.00  0.00    +0.255 A 
ATOM      6  O   UNL     1      -2.136  -2.774  -0.004  0.00  0.00    -0.268 OA
ATOM      7  N   UNL     1       0.097  -2.710  -0.014  0.00  0.00    -0.311 N 
ATOM      8  H   UNL     1       0.160  -3.678  -0.020  0.00  0.00    +0.170 HD
ATOM      9  C   UNL     1       1.218  -1.962  -0.015  0.00  0.00    +0.107 A 
ATOM     10  N   UNL     1       1.167  -0.657  -0.013  0.00  0.00    -0.239 NA
ATOM     11  C   UNL     1       2.560  -2.647  -0.026  0.00  0.00    +0.086 C 
ENDBRANCH   1   4
BRANCH   1  12
ATOM     12  C   UNL     1      -3.008   0.158  -1.419  0.00  0.00    +0.101 C 
BRANCH  12  13
ATOM     13  C   UNL     1      -4.332   0.876  -1.407  0.00  0.00    +0.216 C 
ATOM     14  O   UNL     1      -4.816   1.240  -0.356  0.00  0.00    -0.276 OA
ATOM     15  N   UNL     1      -4.979   1.115  -2.566  0.00  0.00    -0.301 N 
ATOM     16  C   UNL     1      -4.409   0.676  -3.846  0.00  0.00    +0.108 C 
ATOM     17  C   UNL     1      -4.337   1.879  -4.793  0.00  0.00    +0.019 C 
ATOM     18  C   UNL     1      -5.724   2.515  -4.908  0.00  0.00    +0.006 C 
ATOM     19  C   UNL     1      -6.177   3.009  -3.532  0.00  0.00    +0.003 C 
ATOM     20  C   UNL     1      -6.271   1.815  -2.571  0.00  0.00    +0.111 C 
ATOM     21  C   UNL     1      -7.549   3.675  -3.654  0.00  0.00    +0.009 C 
ENDBRANCH  12  13
ENDBRANCH   1  12
TORSDOF 3
