REMARK  Name = ZINC14461234
REMARK  6 active torsions:
REMARK  status: ('A' for Active; 'I' for Inactive)
REMARK    1  A    between atoms: C_6  and  S_7
REMARK    2  A    between atoms: S_7  and  N_10
REMARK    3  A    between atoms: N_10  and  C_11
REMARK    4  A    between atoms: C_11  and  C_12
REMARK    5  A    between atoms: C_25  and  C_28
REMARK    6  A    between atoms: C_33  and  O_34
REMARK                            x       y       z     vdW  Elec       q    Type
REMARK                         _______ _______ _______ _____ _____    ______ ____
ROOT
ATOM      1  C   UNL     1       3.416   3.491   4.072  0.00  0.00    +0.030 A 
ATOM      2  C   UNL     1       4.147   4.663   4.082  0.00  0.00    +0.025 A 
ATOM      3  C   UNL     1       3.554   5.847   4.499  0.00  0.00    +0.031 A 
ATOM      4  C   UNL     1       2.228   5.865   4.906  0.00  0.00    -0.018 A 
ATOM      5  C   UNL     1       1.503   4.683   4.884  0.00  0.00    +0.034 A 
ATOM      6  C   UNL     1       2.092   3.506   4.468  0.00  0.00    +0.106 A 
ATOM      7  C   UNL     1       1.552   7.115   5.373  0.00  0.00    +0.049 C 
ATOM      8  C   UNL     1       0.606   7.656   4.328  0.00  0.00    -0.023 C 
ATOM      9  C   UNL     1       0.623   8.967   4.336  0.00  0.00    -0.030 C 
ATOM     10  C   UNL     1       1.581   9.479   5.394  0.00  0.00    +0.033 C 
ATOM     11  C   UNL     1       2.537   8.272   5.629  0.00  0.00    +0.029 C 
ATOM     12  C   UNL     1       3.597   8.308   4.524  0.00  0.00    +0.108 C 
ATOM     13  N   UNL     1       4.308   7.026   4.506  0.00  0.00    -0.336 N 
ATOM     14  H   UNL     1       5.277   6.996   4.499  0.00  0.00    +0.147 HD
ENDROOT
BRANCH  12  15
ATOM     15  C   UNL     1       2.929   8.534   3.191  0.00  0.00    +0.015 A 
ATOM     16  C   UNL     1       2.496   7.455   2.444  0.00  0.00    +0.024 A 
ATOM     17  C   UNL     1       1.884   7.662   1.221  0.00  0.00    +0.018 A 
ATOM     18  C   UNL     1       1.704   8.948   0.743  0.00  0.00    +0.019 A 
ATOM     19  C   UNL     1       2.135  10.028   1.488  0.00  0.00    +0.047 A 
ATOM     20  C   UNL     1       2.745   9.824   2.717  0.00  0.00    +0.122 A 
ATOM     21 BR   UNL     1       1.292   6.184   0.200  0.00  0.00    -0.050 Br
BRANCH  20  22
ATOM     22  O   UNL     1       3.165  10.886   3.453  0.00  0.00    -0.506 OA
ATOM     23  H   UNL     1       4.074  11.159   3.266  0.00  0.00    +0.292 HD
ENDBRANCH  20  22
ENDBRANCH  12  15
BRANCH   6  24
ATOM     24  S   UNL     1       1.153   2.014   4.449  0.00  0.00    +0.058 S 
ATOM     25  O   UNL     1       0.100   2.185   5.387  0.00  0.00    -0.153 OA
ATOM     26  O   UNL     1       2.087   0.946   4.537  0.00  0.00    -0.153 OA
BRANCH  24  27
ATOM     27  N   UNL     1       0.445   1.901   2.956  0.00  0.00    -0.187 NA
ATOM     28  H   UNL     1      -0.521   1.940   2.874  0.00  0.00    +0.148 HD
BRANCH  27  29
ATOM     29  C   UNL     1       1.276   1.743   1.760  0.00  0.00    +0.137 C 
BRANCH  29  30
ATOM     30  C   UNL     1       0.403   1.294   0.587  0.00  0.00    +0.134 C 
ATOM     31  C   UNL     1       1.276   1.000  -0.652  0.00  0.00    +0.035 C 
ATOM     32  C   UNL     1       0.427   1.502  -1.841  0.00  0.00    +0.031 C 
ATOM     33  C   UNL     1      -0.862   2.039  -1.182  0.00  0.00    +0.160 C 
ATOM     34  O   UNL     1      -0.476   2.365   0.171  0.00  0.00    -0.375 OA
ENDBRANCH  29  30
ENDBRANCH  27  29
ENDBRANCH  24  27
ENDBRANCH   6  24
TORSDOF 6
