REMARK  Name = ZINC49001602
REMARK  6 active torsions:
REMARK  status: ('A' for Active; 'I' for Inactive)
REMARK    1  A    between atoms: C_1  and  N_2
REMARK    2  A    between atoms: N_2  and  C_3
REMARK    3  A    between atoms: N_2  and  C_10
REMARK    4  A    between atoms: C_3  and  C_4
REMARK    5  A    between atoms: C_10  and  C_11
REMARK    6  A    between atoms: N_16  and  C_17
REMARK                            x       y       z     vdW  Elec       q    Type
REMARK                         _______ _______ _______ _____ _____    ______ ____
ROOT
ATOM      1  C   UNL     1       0.690  -0.478  -1.207  0.00  0.00    +0.019 C 
ENDROOT
BRANCH   1   2
ATOM      2  C   UNL     1      -0.106  -0.083  -2.424  0.00  0.00    +0.204 C 
ATOM      3  O   UNL     1      -1.143   0.532  -2.298  0.00  0.00    -0.277 OA
ATOM      4  N   UNL     1       0.336  -0.414  -3.654  0.00  0.00    -0.242 N 
ATOM      5  C   UNL     1      -0.375  -0.061  -4.743  0.00  0.00    +0.306 C 
ATOM      6  O   UNL     1      -1.415   0.555  -4.616  0.00  0.00    -0.252 OA
ATOM      7  N   UNL     1       0.066  -0.392  -5.973  0.00  0.00    -0.296 N 
ATOM      8  H   UNL     1       1.166  -0.906  -3.755  0.00  0.00    +0.159 HD
ATOM      9  H   UNL     1       0.896  -0.884  -6.074  0.00  0.00    +0.151 HD
BRANCH   7  10
ATOM     10  C   UNL     1      -0.707  -0.008  -7.156  0.00  0.00    +0.075 C 
ATOM     11  C   UNL     1      -0.881  -1.057  -8.257  0.00  0.00    +0.024 C 
ATOM     12  C   UNL     1       0.050   0.136  -8.478  0.00  0.00    +0.024 C 
ENDBRANCH   7  10
ENDBRANCH   1   2
BRANCH   1  14
ATOM     13  C   UNL     1      -0.018   1.465   0.010  0.00  0.00    -0.095 C 
ATOM     14  N   UNL     1       0.002  -0.004   0.002  0.00  0.00    +0.386 N 
ATOM     15  H   UNL     1      -0.945  -0.353   0.009  0.00  0.00    -0.081 HD
BRANCH  14  16
ATOM     16  C   UNL     1       0.713  -0.491   1.192  0.00  0.00    -0.042 C 
BRANCH  16  17
ATOM     17  C   UNL     1      -0.059  -0.109   2.429  0.00  0.00    -0.056 A 
ATOM     18  C   UNL     1       0.180   1.097   3.061  0.00  0.00    +0.024 A 
ATOM     19  C   UNL     1      -0.532   1.409   4.173  0.00  0.00    +0.055 A 
ATOM     20  S   UNL     1      -1.580  -0.025   4.354  0.00  0.00    -0.090 S 
ATOM     21  C   UNL     1      -1.003  -0.941   2.934  0.00  0.00    +0.048 A 
ATOM     22 BR   UNL     1      -0.439   2.960   5.250  0.00  0.00    -0.043 Br
ENDBRANCH  16  17
ENDBRANCH  14  16
ENDBRANCH   1  14
TORSDOF 5
