REMARK  Name = ZINC25382077
REMARK  11 active torsions:
REMARK  status: ('A' for Active; 'I' for Inactive)
REMARK    1  A    between atoms: C_1  and  C_2
REMARK    2  A    between atoms: N_5  and  C_8
REMARK    3  A    between atoms: C_8  and  C_10
REMARK    4  A    between atoms: C_8  and  C_27
REMARK    5  A    between atoms: C_10  and  N_11
REMARK    6  A    between atoms: C_12  and  C_14
REMARK    7  A    between atoms: C_17  and  O_22
REMARK    8  A    between atoms: C_18  and  O_20
REMARK    9  A    between atoms: O_20  and  C_21
REMARK   10  A    between atoms: O_22  and  C_23
REMARK   11  A    between atoms: C_23  and  C_24
REMARK                            x       y       z     vdW  Elec       q    Type
REMARK                         _______ _______ _______ _____ _____    ______ ____
ROOT
ATOM      1  N   UNL     1      -3.693   3.042   0.294  0.00  0.00    -0.313 N 
ATOM      2  C   UNL     1      -2.499   3.663   0.366  0.00  0.00    +0.244 C 
ATOM      3  O   UNL     1      -2.438   4.876   0.294  0.00  0.00    -0.270 OA
ATOM      4  H   UNL     1      -3.747   1.946   0.358  0.00  0.00    +0.149 HD
ENDROOT
BRANCH   2   5
ATOM      5  C   UNL     1      -1.264   2.872   0.531  0.00  0.00    +0.040 A 
ATOM      6  C   UNL     1      -1.331   1.478   0.607  0.00  0.00    +0.017 A 
ATOM      7  C   UNL     1      -0.178   0.741   0.768  0.00  0.00    +0.050 A 
ATOM      8  C   UNL     1       1.053   1.379   0.843  0.00  0.00    +0.163 A 
ATOM      9  C   UNL     1       1.127   2.768   0.761  0.00  0.00    +0.162 A 
ATOM     10  C   UNL     1      -0.025   3.514   0.606  0.00  0.00    +0.062 A 
BRANCH   9  11
ATOM     11  O   UNL     1       2.335   3.390   0.835  0.00  0.00    -0.491 OA
ATOM     12  C   UNL     1       2.337   4.816   0.745  0.00  0.00    +0.277 C 
ENDBRANCH   9  11
BRANCH   8  13
ATOM     13  O   UNL     1       2.187   0.647   0.995  0.00  0.00    -0.479 OA
BRANCH  13  14
ATOM     14  C   UNL     1       2.038  -0.772   1.071  0.00  0.00    +0.324 C 
BRANCH  14  15
ATOM     15  C   UNL     1       3.393  -1.411   1.238  0.00  0.00    +0.248 C 
ATOM     16  O   UNL     1       4.388  -0.719   1.288  0.00  0.00    -0.272 OA
ATOM     17  N   UNL     1       3.499  -2.751   1.333  0.00  0.00    -0.327 N 
ATOM     18  H   UNL     1       4.488  -3.217   1.454  0.00  0.00    +0.145 HD
ATOM     19  H   UNL     1       2.596  -3.379   1.288  0.00  0.00    +0.145 HD
ENDBRANCH  14  15
ENDBRANCH  13  14
ENDBRANCH   8  13
ENDBRANCH   2   5
BRANCH   1  20
ATOM     20  C   UNL     1      -4.918   3.828   0.129  0.00  0.00    +0.094 C 
BRANCH  20  21
ATOM     21  C   UNL     1      -6.109   2.885  -0.049  0.00  0.00    -0.013 C 
BRANCH  21  26
ATOM     22  C   UNL     1      -5.809  -0.145  -4.887  0.00  0.00    +0.007 C 
ATOM     23  C   UNL     1      -6.214   0.878  -3.823  0.00  0.00    -0.018 C 
ATOM     24  C   UNL     1      -5.007   1.750  -3.466  0.00  0.00    -0.015 C 
ATOM     25  C   UNL     1      -5.401   2.730  -2.359  0.00  0.00    -0.078 C 
ATOM     26  N   UNL     1      -5.854   1.982  -1.179  0.00  0.00    +0.386 N 
ATOM     27  C   UNL     1      -7.041   1.174  -1.486  0.00  0.00    -0.078 C 
ATOM     28  C   UNL     1      -6.695   0.147  -2.567  0.00  0.00    -0.015 C 
ATOM     29  H   UNL     1      -5.046   1.294  -0.888  0.00  0.00    -0.081 HD
ENDBRANCH  21  26
BRANCH  21  30
ATOM     30  C   UNL     1      -7.353   3.691  -0.321  0.00  0.00    -0.022 A 
ATOM     31  C   UNL     1      -8.346   4.043   0.531  0.00  0.00    +0.009 A 
ATOM     32  C   UNL     1      -9.403   4.796   0.055  0.00  0.00    +0.008 A 
ATOM     33  C   UNL     1      -9.415   5.160  -1.250  0.00  0.00    +0.045 A 
ATOM     34  S   UNL     1      -7.896   4.438  -1.849  0.00  0.00    -0.103 S 
ENDBRANCH  21  30
ENDBRANCH  20  21
ENDBRANCH   1  20
TORSDOF 9
