REMARK  Name = ZINC22485897
REMARK  5 active torsions:
REMARK  status: ('A' for Active; 'I' for Inactive)
REMARK    1  A    between atoms: C_3  and  C_12
REMARK    2  A    between atoms: C_5  and  N_7
REMARK    3  A    between atoms: N_14  and  C_15
REMARK    4  A    between atoms: C_15  and  C_16
REMARK    5  A    between atoms: C_19  and  C_21
REMARK                            x       y       z     vdW  Elec       q    Type
REMARK                         _______ _______ _______ _____ _____    ______ ____
ROOT
ATOM      1  C   UNL     1       0.002  -0.004   0.002  0.00  0.00    +0.244 C 
ATOM      2  O   UNL     1       1.063  -0.597  -0.011  0.00  0.00    -0.270 OA
ATOM      3  N   UNL     1      -1.156  -0.694   0.009  0.00  0.00    -0.304 N 
ATOM      4  H   UNL     1      -2.116  -0.157   0.021  0.00  0.00    +0.149 HD
ENDROOT
BRANCH   1   7
ATOM      5  C   UNL     1      -1.250   3.538   0.034  0.00  0.00    +0.003 A 
ATOM      6  C   UNL     1      -1.235   2.158   0.020  0.00  0.00    +0.013 A 
ATOM      7  C   UNL     1      -0.018   1.474   0.010  0.00  0.00    +0.039 A 
ATOM      8  C   UNL     1       1.179   2.191   0.003  0.00  0.00    +0.041 A 
ATOM      9  C   UNL     1       1.152   3.576   0.010  0.00  0.00    +0.069 A 
ATOM     10  C   UNL     1      -0.064   4.247   0.026  0.00  0.00    +0.028 A 
BRANCH   9  11
ATOM     11  N   UNL     1       2.354   4.300   0.003  0.00  0.00    -0.200 N 
ATOM     12  C   UNL     1       2.502   5.643   0.009  0.00  0.00    +0.250 A 
ATOM     13  N   UNL     1       3.785   5.892  -0.001  0.00  0.00    -0.116 NA
ATOM     14  N   UNL     1       4.458   4.799  -0.012  0.00  0.00    -0.023 NA
ATOM     15  N   UNL     1       3.662   3.785  -0.005  0.00  0.00    -0.039 NA
ENDBRANCH   9  11
ENDBRANCH   1   7
BRANCH   3  16
ATOM     16  C   UNL     1      -1.136  -2.159   0.001  0.00  0.00    +0.179 C 
BRANCH  16  17
ATOM     17  C   UNL     1      -2.550  -2.680   0.012  0.00  0.00    +0.123 A 
ATOM     18  C   UNL     1      -3.297  -2.946  -1.077  0.00  0.00    +0.047 A 
ATOM     19  C   UNL     1      -4.545  -3.412  -0.617  0.00  0.00    +0.050 A 
ATOM     20  C   UNL     1      -4.490  -3.404   0.741  0.00  0.00    +0.135 A 
ATOM     21  O   UNL     1      -3.272  -2.963   1.109  0.00  0.00    -0.458 OA
BRANCH  20  22
ATOM     22  C   UNL     1      -5.576  -3.814   1.656  0.00  0.00    +0.017 A 
ATOM     23  C   UNL     1      -6.797  -4.254   1.141  0.00  0.00    +0.012 A 
ATOM     24  C   UNL     1      -7.805  -4.641   2.000  0.00  0.00    +0.016 A 
ATOM     25  C   UNL     1      -7.612  -4.582   3.369  0.00  0.00    +0.018 A 
ATOM     26  C   UNL     1      -6.405  -4.141   3.886  0.00  0.00    +0.016 A 
ATOM     27  C   UNL     1      -5.388  -3.757   3.038  0.00  0.00    +0.012 A 
ATOM     28 BR   UNL     1      -9.002  -5.106   4.540  0.00  0.00    -0.050 Br
ENDBRANCH  20  22
ENDBRANCH  16  17
ENDBRANCH   3  16
TORSDOF 5
