REMARK  Name = ZINC58847271
REMARK  8 active torsions:
REMARK  status: ('A' for Active; 'I' for Inactive)
REMARK    1  A    between atoms: C_1  and  O_2
REMARK    2  A    between atoms: O_2  and  C_3
REMARK    3  A    between atoms: C_6  and  C_11
REMARK    4  A    between atoms: C_8  and  O_9
REMARK    5  A    between atoms: O_9  and  C_10
REMARK    6  A    between atoms: C_22  and  S_27
REMARK    7  A    between atoms: S_27  and  N_30
REMARK    8  A    between atoms: N_30  and  C_31
REMARK                            x       y       z     vdW  Elec       q    Type
REMARK                         _______ _______ _______ _____ _____    ______ ____
ROOT
ATOM      1  C   UNL     1       2.945  -2.728  -4.625  0.00  0.00    +0.105 C 
ATOM      2  C   UNL     1       1.949  -2.785  -5.745  0.00  0.00    +0.029 C 
ATOM      3  C   UNL     1       2.350  -3.803  -6.833  0.00  0.00    +0.033 C 
ATOM      4  C   UNL     1       1.715  -3.252  -8.093  0.00  0.00    -0.030 C 
ATOM      5  C   UNL     1       1.394  -1.994  -7.943  0.00  0.00    -0.023 C 
ATOM      6  C   UNL     1       1.796  -1.512  -6.572  0.00  0.00    +0.049 C 
ATOM      7  C   UNL     1       3.078  -0.739  -6.709  0.00  0.00    -0.018 A 
ATOM      8  C   UNL     1       3.146   0.257  -7.673  0.00  0.00    +0.034 A 
ATOM      9  C   UNL     1       4.305   0.986  -7.845  0.00  0.00    +0.109 A 
ATOM     10  C   UNL     1       5.411   0.729  -7.055  0.00  0.00    +0.030 A 
ATOM     11  C   UNL     1       5.352  -0.257  -6.092  0.00  0.00    +0.025 A 
ATOM     12  C   UNL     1       4.181  -0.990  -5.913  0.00  0.00    +0.031 A 
ATOM     13  N   UNL     1       4.123  -1.936  -4.909  0.00  0.00    -0.336 N 
ATOM     14  H   UNL     1       4.927  -2.095  -4.390  0.00  0.00    +0.147 HD
ENDROOT
BRANCH   1  18
ATOM     15  C   UNL     1       1.014  -1.086  -1.181  0.00  0.00    +0.162 A 
ATOM     16  C   UNL     1       1.514  -0.247  -2.164  0.00  0.00    +0.050 A 
ATOM     17  C   UNL     1       2.138  -0.781  -3.276  0.00  0.00    +0.009 A 
ATOM     18  C   UNL     1       2.264  -2.151  -3.410  0.00  0.00    -0.023 A 
ATOM     19  C   UNL     1       1.767  -2.994  -2.433  0.00  0.00    +0.055 A 
ATOM     20  C   UNL     1       1.146  -2.465  -1.313  0.00  0.00    +0.162 A 
BRANCH  15  22
ATOM     21  C   UNL     1       0.301   0.862  -0.017  0.00  0.00    +0.277 C 
ATOM     22  O   UNL     1       0.400  -0.562  -0.086  0.00  0.00    -0.491 OA
ENDBRANCH  15  22
BRANCH  20  23
ATOM     23  O   UNL     1       0.662  -3.292  -0.348  0.00  0.00    -0.491 OA
ATOM     24  C   UNL     1       0.833  -4.696  -0.551  0.00  0.00    +0.277 C 
ENDBRANCH  20  23
ENDBRANCH   1  18
BRANCH   9  25
ATOM     25  S   UNL     1       4.376   2.248  -9.072  0.00  0.00    +0.072 S 
ATOM     26  O   UNL     1       5.748   2.416  -9.403  0.00  0.00    -0.150 OA
ATOM     27  O   UNL     1       3.392   1.924 -10.045  0.00  0.00    -0.150 OA
BRANCH  25  28
ATOM     28  N   UNL     1       3.886   3.658  -8.355  0.00  0.00    -0.215 N 
ATOM     29  H   UNL     1       3.106   4.127  -8.690  0.00  0.00    +0.174 HD
BRANCH  28  30
ATOM     30  C   UNL     1       4.596   4.171  -7.266  0.00  0.00    +0.066 A 
ATOM     31  C   UNL     1       5.977   4.036  -7.210  0.00  0.00    +0.026 A 
ATOM     32  C   UNL     1       6.676   4.545  -6.133  0.00  0.00    +0.002 A 
ATOM     33  C   UNL     1       6.003   5.188  -5.110  0.00  0.00    +0.002 A 
ATOM     34  C   UNL     1       4.628   5.324  -5.162  0.00  0.00    +0.022 A 
ATOM     35  C   UNL     1       3.922   4.822  -6.239  0.00  0.00    +0.063 A 
ATOM     36 CL   UNL     1       2.197   4.999  -6.307  0.00  0.00    -0.082 Cl
ENDBRANCH  28  30
ENDBRANCH  25  28
ENDBRANCH   9  25
TORSDOF 6
