REMARK  Name = ZINC38140286
REMARK  4 active torsions:
REMARK  status: ('A' for Active; 'I' for Inactive)
REMARK    1  A    between atoms: C_4  and  C_7
REMARK    2  A    between atoms: C_7  and  N_8
REMARK    3  A    between atoms: C_9  and  C_11
REMARK    4  A    between atoms: N_19  and  C_20
REMARK                            x       y       z     vdW  Elec       q    Type
REMARK                         _______ _______ _______ _____ _____    ______ ____
ROOT
ATOM      1  C   UNL     1       3.727  -4.079  -3.431  0.00  0.00    +0.078 C 
ATOM      2  C   UNL     1       4.530  -4.484  -2.193  0.00  0.00    +0.032 C 
ATOM      3  C   UNL     1       4.629  -6.012  -2.130  0.00  0.00    +0.110 C 
ATOM      4  N   UNL     1       5.187  -6.502  -3.398  0.00  0.00    -0.286 N 
ATOM      5  C   UNL     1       4.544  -6.097  -4.656  0.00  0.00    +0.110 C 
ATOM      6  C   UNL     1       4.446  -4.569  -4.690  0.00  0.00    +0.032 C 
ATOM      7  C   UNL     1       6.268  -7.306  -3.407  0.00  0.00    +0.302 C 
ATOM      8  O   UNL     1       6.848  -7.557  -2.368  0.00  0.00    -0.253 OA
ATOM      9  N   UNL     1       6.706  -7.834  -4.568  0.00  0.00    -0.296 N 
ATOM     10  H   UNL     1       6.289  -7.577  -5.405  0.00  0.00    +0.151 HD
ENDROOT
BRANCH   9  11
ATOM     11  C   UNL     1       7.812  -8.794  -4.565  0.00  0.00    +0.074 C 
ATOM     12  C   UNL     1       7.267 -10.199  -4.302  0.00  0.00    +0.022 C 
ATOM     13  C   UNL     1       8.423 -11.202  -4.298  0.00  0.00    +0.002 C 
ATOM     14  C   UNL     1       9.126 -11.174  -5.657  0.00  0.00    +0.000 C 
ATOM     15  C   UNL     1       9.671  -9.769  -5.920  0.00  0.00    +0.002 C 
ATOM     16  C   UNL     1       8.516  -8.766  -5.923  0.00  0.00    +0.022 C 
ENDBRANCH   9  11
BRANCH   1  18
ATOM     17  N   UNL     1       2.994  -1.923  -2.467  0.00  0.00    -0.315 N 
ATOM     18  C   UNL     1       3.598  -2.579  -3.478  0.00  0.00    +0.216 C 
ATOM     19  O   UNL     1       4.038  -1.961  -4.424  0.00  0.00    -0.276 OA
ATOM     20  H   UNL     1       2.642  -2.416  -1.710  0.00  0.00    +0.149 HD
BRANCH  17  21
ATOM     21  C   UNL     1       2.869  -0.464  -2.512  0.00  0.00    +0.107 C 
BRANCH  21  25
ATOM     22  C   UNL     1      -0.025   1.516   0.024  0.00  0.00    +0.000 C 
ATOM     23  C   UNL     1       1.410   2.045   0.018  0.00  0.00    +0.000 C 
ATOM     24  C   UNL     1       2.129   1.556  -1.240  0.00  0.00    +0.005 C 
ATOM     25  C   UNL     1       2.150   0.026  -1.254  0.00  0.00    +0.006 C 
ATOM     26  C   UNL     1       0.714  -0.503  -1.248  0.00  0.00    +0.005 C 
ATOM     27  C   UNL     1      -0.005  -0.014   0.010  0.00  0.00    +0.000 C 
ENDBRANCH  21  25
ENDBRANCH  17  21
ENDBRANCH   1  18
TORSDOF 4
