REMARK  Name = ZINC20764385
REMARK  11 active torsions:
REMARK  status: ('A' for Active; 'I' for Inactive)
REMARK    1  A    between atoms: C_1  and  C_2
REMARK    2  A    between atoms: C_2  and  O_3
REMARK    3  A    between atoms: O_3  and  C_4
REMARK    4  A    between atoms: C_7  and  C_10
REMARK    5  A    between atoms: C_12  and  C_28
REMARK    6  A    between atoms: C_15  and  C_18
REMARK    7  A    between atoms: C_22  and  O_25
REMARK    8  A    between atoms: C_23  and  O_24
REMARK    9  A    between atoms: O_25  and  C_26
REMARK   10  A    between atoms: C_26  and  C_27
REMARK   11  A    between atoms: C_31  and  C_34
REMARK                            x       y       z     vdW  Elec       q    Type
REMARK                         _______ _______ _______ _____ _____    ______ ____
ROOT
ATOM      1  C   UNL     1      -2.518   3.868   0.044  0.00  0.00    +0.040 C 
ATOM      2  N   UNL     1      -2.497   5.148   0.055  0.00  0.00    -0.299 NA
ATOM      3  C   UNL     1      -3.691   5.985   0.075  0.00  0.00    +0.081 C 
ATOM      4  N   UNL     1      -4.873   5.213  -0.326  0.00  0.00    +0.401 N 
ATOM      5  C   UNL     1      -4.959   3.970   0.458  0.00  0.00    -0.028 C 
ATOM      6  C   UNL     1      -3.790   3.067   0.053  0.00  0.00    +0.044 C 
ATOM      7  H   UNL     1      -5.779   5.813  -0.151  0.00  0.00    -0.081 HD
ATOM      8  H   UNL     1      -4.802   4.961  -1.394  0.00  0.00    -0.081 HD
ENDROOT
BRANCH   1  12
ATOM      9  C   UNL     1       1.182   1.786   0.000  0.00  0.00    +0.121 A 
ATOM     10  C   UNL     1      -0.013   1.076   0.008  0.00  0.00    +0.046 A 
ATOM     11  C   UNL     1      -1.215   1.747   0.017  0.00  0.00    +0.013 A 
ATOM     12  C   UNL     1      -1.233   3.145   0.029  0.00  0.00    -0.004 A 
ATOM     13  C   UNL     1      -0.029   3.855   0.021  0.00  0.00    +0.013 A 
ATOM     14  C   UNL     1       1.169   3.175   0.007  0.00  0.00    +0.046 A 
BRANCH   9  15
ATOM     15  O   UNL     1       2.365   1.120  -0.014  0.00  0.00    -0.492 OA
BRANCH  15  17
ATOM     16  C   UNL     1       4.778   0.994  -0.037  0.00  0.00    +0.048 C 
ATOM     17  C   UNL     1       3.555   1.912  -0.021  0.00  0.00    +0.225 C 
ENDBRANCH  15  17
ENDBRANCH   9  15
ENDBRANCH   1  12
BRANCH   5  18
ATOM     18  C   UNL     1      -6.264   3.274   0.167  0.00  0.00    -0.016 A 
ATOM     19  C   UNL     1      -6.928   3.519  -1.021  0.00  0.00    +0.006 A 
ATOM     20  C   UNL     1      -8.122   2.878  -1.294  0.00  0.00    +0.004 A 
ATOM     21  C   UNL     1      -8.663   1.998  -0.376  0.00  0.00    +0.049 A 
ATOM     22  C   UNL     1      -8.006   1.752   0.818  0.00  0.00    +0.162 A 
ATOM     23  C   UNL     1      -6.801   2.393   1.091  0.00  0.00    +0.160 A 
BRANCH  23  24
ATOM     24  O   UNL     1      -6.152   2.155   2.262  0.00  0.00    -0.503 OA
ATOM     25  H   UNL     1      -6.579   1.455   2.995  0.00  0.00    +0.292 HD
ENDBRANCH  23  24
BRANCH  22  26
ATOM     26  O   UNL     1      -8.537   0.886   1.723  0.00  0.00    -0.489 OA
BRANCH  26  27
ATOM     27  C   UNL     1      -9.776   0.265   1.376  0.00  0.00    +0.226 C 
ATOM     28  C   UNL     1     -10.213  -0.668   2.507  0.00  0.00    +0.048 C 
ENDBRANCH  26  27
ENDBRANCH  22  26
ENDBRANCH   5  18
BRANCH   3  29
ATOM     29  C   UNL     1      -3.506   7.140  -0.875  0.00  0.00    -0.040 A 
ATOM     30  C   UNL     1      -4.604   7.710  -1.492  0.00  0.00    +0.004 A 
ATOM     31  C   UNL     1      -4.435   8.773  -2.359  0.00  0.00    +0.012 A 
ATOM     32  C   UNL     1      -3.167   9.259  -2.617  0.00  0.00    +0.055 A 
ATOM     33  C   UNL     1      -2.068   8.686  -2.005  0.00  0.00    +0.012 A 
ATOM     34  C   UNL     1      -2.238   7.627  -1.133  0.00  0.00    +0.004 A 
BRANCH  32  35
ATOM     35  C   UNL     1      -2.982  10.415  -3.567  0.00  0.00    +0.417 C 
ATOM     36  F   UNL     1      -2.805   9.928  -4.866  0.00  0.00    -0.166 F 
ATOM     37  F   UNL     1      -4.114  11.237  -3.527  0.00  0.00    -0.166 F 
ATOM     38  F   UNL     1      -1.856  11.154  -3.188  0.00  0.00    -0.166 F 
ENDBRANCH  32  35
ENDBRANCH   3  29
TORSDOF 9
