REMARK  Name = ZINC37543678
REMARK  5 active torsions:
REMARK  status: ('A' for Active; 'I' for Inactive)
REMARK    1  A    between atoms: C_1  and  C_2
REMARK    2  A    between atoms: C_2  and  C_3
REMARK    3  A    between atoms: C_2  and  C_4
REMARK    4  A    between atoms: N_6  and  C_10
REMARK    5  A    between atoms: C_15  and  N_16
REMARK                            x       y       z     vdW  Elec       q    Type
REMARK                         _______ _______ _______ _____ _____    ______ ____
ROOT
ATOM      1  C   UNL     1      -4.934  -0.072   0.184  0.00  0.00    +0.081 A 
ATOM      2  C   UNL     1      -5.876  -0.372  -0.789  0.00  0.00    +0.029 A 
ATOM      3  C   UNL     1      -7.154   0.144  -0.696  0.00  0.00    +0.022 A 
ATOM      4  C   UNL     1      -7.499   0.962   0.366  0.00  0.00    +0.043 A 
ATOM      5  C   UNL     1      -6.566   1.266   1.341  0.00  0.00    +0.044 A 
ATOM      6  C   UNL     1      -5.282   0.747   1.258  0.00  0.00    +0.050 A 
ATOM      7 CL   UNL     1      -9.107   1.608   0.475  0.00  0.00    -0.083 Cl
ENDROOT
BRANCH   1  10
ATOM      8  C   UNL     1      -1.412  -0.526   0.013  0.00  0.00    +0.049 C 
ATOM      9  N   UNL     1      -2.476   0.172   0.111  0.00  0.00    -0.181 NA
ATOM     10  N   UNL     1      -3.636  -0.595   0.091  0.00  0.00    -0.159 N 
ATOM     11  C   UNL     1      -3.350  -1.909  -0.029  0.00  0.00    +0.245 C 
ATOM     12  O   UNL     1      -4.133  -2.834  -0.076  0.00  0.00    -0.273 OA
ATOM     13  C   UNL     1      -1.836  -1.975  -0.097  0.00  0.00    +0.150 C 
BRANCH   8  15
ATOM     14  C   UNL     1      -0.019   1.526   0.010  0.00  0.00    +0.013 C 
ATOM     15  C   UNL     1       0.002  -0.004   0.002  0.00  0.00    +0.029 C 
ATOM     16  C   UNL     1       0.742  -0.511   1.242  0.00  0.00    +0.013 C 
ENDBRANCH   8  15
ENDBRANCH   1  10
BRANCH   6  17
ATOM     17  N   UNL     1      -4.339   1.049   2.245  0.00  0.00    -0.356 N 
ATOM     18  H   UNL     1      -3.440   0.688   2.183  0.00  0.00    +0.142 HD
ATOM     19  H   UNL     1      -4.583   1.618   2.991  0.00  0.00    +0.142 HD
ENDBRANCH   6  17
TORSDOF 3
