REMARK  Name = ZINC37782923
REMARK  5 active torsions:
REMARK  status: ('A' for Active; 'I' for Inactive)
REMARK    1  A    between atoms: C_1  and  C_2
REMARK    2  A    between atoms: C_2  and  C_4
REMARK    3  A    between atoms: C_2  and  N_11
REMARK    4  A    between atoms: C_4  and  N_5
REMARK    5  A    between atoms: N_11  and  C_12
REMARK                            x       y       z     vdW  Elec       q    Type
REMARK                         _______ _______ _______ _____ _____    ______ ____
ROOT
ATOM      1  N   UNL     1       0.814  -0.489   1.126  0.00  0.00    +0.392 N 
ATOM      2  H   UNL     1       1.011  -1.476   1.054  0.00  0.00    -0.084 HD
ATOM      3  H   UNL     1       1.679   0.030   1.107  0.00  0.00    -0.084 HD
ENDROOT
BRANCH   1   4
ATOM      4  C   UNL     1       0.111  -0.222   2.389  0.00  0.00    +0.049 C 
ATOM      5  C   UNL     1      -1.028  -1.196   2.576  0.00  0.00    -0.031 A 
ATOM      6  C   UNL     1      -2.170  -1.454   1.850  0.00  0.00    +0.005 A 
ATOM      7  C   UNL     1      -3.054  -2.429   2.276  0.00  0.00    +0.015 A 
ATOM      8  C   UNL     1      -2.787  -3.143   3.432  0.00  0.00    +0.020 A 
ATOM      9  C   UNL     1      -1.644  -2.886   4.161  0.00  0.00    +0.038 A 
ATOM     10  C   UNL     1      -0.749  -1.905   3.738  0.00  0.00    +0.036 A 
ATOM     11  N   UNL     1       0.454  -1.468   4.293  0.00  0.00    -0.286 N 
ATOM     12  C   UNL     1       1.023  -0.485   3.568  0.00  0.00    +0.208 C 
ATOM     13  O   UNL     1       2.066   0.083   3.813  0.00  0.00    -0.277 OA
ATOM     14 BR   UNL     1      -3.995  -4.475   4.015  0.00  0.00    -0.050 Br
ATOM     15  H   UNL     1       0.837  -1.829   5.107  0.00  0.00    +0.155 HD
ENDBRANCH   1   4
BRANCH   1  17
ATOM     16  C   UNL     1      -0.240   1.440   0.048  0.00  0.00    -0.012 C 
ATOM     17  C   UNL     1      -0.031  -0.074  -0.002  0.00  0.00    -0.056 C 
BRANCH  17  18
ATOM     18  C   UNL     1       0.653  -0.452  -1.317  0.00  0.00    +0.092 C 
BRANCH  18  19
ATOM     19  N   UNL     1       0.961  -1.884  -1.314  0.00  0.00    -0.303 N 
ATOM     20  C   UNL     1       2.214  -2.460  -0.812  0.00  0.00    +0.108 C 
ATOM     21  C   UNL     1       1.922  -3.963  -0.603  0.00  0.00    +0.028 C 
ATOM     22  C   UNL     1       0.768  -4.202  -1.604  0.00  0.00    +0.097 C 
ATOM     23  C   UNL     1       0.130  -2.840  -1.765  0.00  0.00    +0.216 C 
ATOM     24  O   UNL     1      -0.970  -2.639  -2.235  0.00  0.00    -0.276 OA
ENDBRANCH  18  19
ENDBRANCH  17  18
ENDBRANCH   1  17
TORSDOF 4
