REMARK  Name = ZINC10099565
REMARK  8 active torsions:
REMARK  status: ('A' for Active; 'I' for Inactive)
REMARK    1  A    between atoms: C_1  and  C_2
REMARK    2  A    between atoms: C_10  and  N_15
REMARK    3  A    between atoms: C_11  and  C_12
REMARK    4  A    between atoms: C_16  and  C_18
REMARK    5  A    between atoms: C_21  and  S_24
REMARK    6  A    between atoms: S_24  and  N_27
REMARK    7  A    between atoms: N_27  and  C_28
REMARK    8  A    between atoms: N_27  and  C_29
REMARK                            x       y       z     vdW  Elec       q    Type
REMARK                         _______ _______ _______ _____ _____    ______ ____
ROOT
ATOM      1  N   UNL     1       1.467   2.081   2.485  0.00  0.00    -0.275 N 
ATOM      2  C   UNL     1       2.212   2.520   3.518  0.00  0.00    +0.249 C 
ATOM      3  O   UNL     1       3.240   3.134   3.309  0.00  0.00    -0.270 OA
ATOM      4  H   UNL     1       0.647   1.591   2.653  0.00  0.00    +0.156 HD
ENDROOT
BRANCH   1  14
ATOM      5  C   UNL     1       5.717   2.626  -4.213  0.00  0.00    +0.109 C 
ATOM      6  C   UNL     1       4.227   2.562  -4.429  0.00  0.00    +0.213 C 
ATOM      7  O   UNL     1       3.783   2.103  -5.460  0.00  0.00    -0.276 OA
ATOM      8  N   UNL     1       3.388   3.015  -3.477  0.00  0.00    -0.297 N 
ATOM      9  C   UNL     1       1.930   2.966  -3.659  0.00  0.00    +0.113 C 
ATOM     10  C   UNL     1       1.315   2.024  -2.622  0.00  0.00    +0.056 C 
ATOM     11  C   UNL     1       1.880   2.355  -1.247  0.00  0.00    -0.020 A 
ATOM     12  C   UNL     1       3.034   3.045  -1.109  0.00  0.00    +0.013 A 
ATOM     13  S   UNL     1       3.284   3.172   0.638  0.00  0.00    -0.076 S 
ATOM     14  C   UNL     1       1.871   2.330   1.184  0.00  0.00    +0.085 A 
ATOM     15  C   UNL     1       1.245   1.963   0.001  0.00  0.00    +0.068 A 
ATOM     16  C   UNL     1       3.899   3.579  -2.211  0.00  0.00    +0.150 C 
BRANCH  15  17
ATOM     17  C   UNL     1      -0.014   1.213   0.009  0.00  0.00    +0.244 C 
ATOM     18  O   UNL     1       0.002  -0.004   0.002  0.00  0.00    -0.270 OA
ATOM     19  N   UNL     1      -1.191   1.871   0.018  0.00  0.00    -0.325 N 
ATOM     20  H   UNL     1      -2.024   1.375   0.019  0.00  0.00    +0.145 HD
ATOM     21  H   UNL     1      -1.204   2.841   0.023  0.00  0.00    +0.145 HD
ENDBRANCH  15  17
ENDBRANCH   1  14
BRANCH   2  22
ATOM     22  C   UNL     1       1.781   2.254   4.907  0.00  0.00    +0.037 A 
ATOM     23  C   UNL     1       0.598   1.554   5.151  0.00  0.00    +0.015 A 
ATOM     24  C   UNL     1       0.204   1.304   6.449  0.00  0.00    +0.029 A 
ATOM     25  C   UNL     1       0.972   1.756   7.508  0.00  0.00    +0.106 A 
ATOM     26  C   UNL     1       2.142   2.456   7.273  0.00  0.00    +0.029 A 
ATOM     27  C   UNL     1       2.551   2.707   5.979  0.00  0.00    +0.015 A 
BRANCH  25  28
ATOM     28  S   UNL     1       0.457   1.439   9.163  0.00  0.00    +0.061 S 
ATOM     29  O   UNL     1      -0.385   0.295   9.115  0.00  0.00    -0.153 OA
ATOM     30  O   UNL     1       1.626   1.490   9.969  0.00  0.00    -0.153 OA
BRANCH  28  31
ATOM     31  N   UNL     1      -0.497   2.709   9.631  0.00  0.00    -0.177 NA
ATOM     32  C   UNL     1      -1.943   2.663   9.403  0.00  0.00    +0.132 C 
BRANCH  31  33
ATOM     33  C   UNL     1       0.106   3.880  10.273  0.00  0.00    +0.080 C 
ATOM     34  C   UNL     1      -0.840   4.928  10.863  0.00  0.00    +0.022 C 
ATOM     35  C   UNL     1      -0.066   5.233   9.580  0.00  0.00    +0.022 C 
ENDBRANCH  31  33
ENDBRANCH  28  31
ENDBRANCH  25  28
ENDBRANCH   2  22
TORSDOF 6
