REMARK  Name = ZINC12697605
REMARK  6 active torsions:
REMARK  status: ('A' for Active; 'I' for Inactive)
REMARK    1  A    between atoms: C_1  and  C_2
REMARK    2  A    between atoms: C_2  and  C_4
REMARK    3  A    between atoms: C_2  and  S_14
REMARK    4  A    between atoms: C_7  and  C_9
REMARK    5  A    between atoms: S_14  and  C_15
REMARK    6  A    between atoms: C_19  and  C_21
REMARK                            x       y       z     vdW  Elec       q    Type
REMARK                         _______ _______ _______ _____ _____    ______ ____
ROOT
ATOM      1  S   UNL     1      -1.700  -0.632   0.015  0.00  0.00    -0.074 S 
ENDROOT
BRANCH   1   2
ATOM      2  C   UNL     1      -2.335  -0.110   1.573  0.00  0.00    +0.185 A 
ATOM      3  N   UNL     1      -3.579  -0.350   2.045  0.00  0.00    -0.253 N 
ATOM      4  H   UNL     1      -4.286  -0.839   1.595  0.00  0.00    +0.191 HD
ATOM      5  N   UNL     1      -3.646   0.245   3.314  0.00  0.00    -0.152 NA
ATOM      6  C   UNL     1      -2.476   0.799   3.540  0.00  0.00    +0.183 A 
ATOM      7  N   UNL     1      -1.680   0.577   2.484  0.00  0.00    -0.201 NA
BRANCH   6   8
ATOM      8  C   UNL     1      -2.095   1.543   4.766  0.00  0.00    +0.035 A 
ATOM      9  C   UNL     1      -0.819   2.091   4.883  0.00  0.00    +0.013 A 
ATOM     10  C   UNL     1      -0.471   2.782   6.026  0.00  0.00    +0.001 A 
ATOM     11  C   UNL     1      -1.385   2.932   7.053  0.00  0.00    +0.001 A 
ATOM     12  C   UNL     1      -2.652   2.390   6.943  0.00  0.00    +0.016 A 
ATOM     13  C   UNL     1      -3.014   1.701   5.802  0.00  0.00    +0.029 A 
ATOM     14 BR   UNL     1      -4.750   0.967   5.649  0.00  0.00    -0.050 Br
ENDBRANCH   6   8
ENDBRANCH   1   2
BRANCH   1  16
ATOM     15  C   UNL     1      -0.019   1.526   0.010  0.00  0.00    +0.029 C 
ATOM     16  C   UNL     1       0.002  -0.004   0.002  0.00  0.00    +0.139 C 
BRANCH  16  17
ATOM     17  C   UNL     1       0.707  -0.490  -1.238  0.00  0.00    +0.231 A 
ATOM     18  N   UNL     1       0.226  -0.484  -2.449  0.00  0.00    -0.111 NA
ATOM     19  N   UNL     1       1.097  -0.970  -3.262  0.00  0.00    -0.107 NA
ATOM     20  C   UNL     1       2.176  -1.306  -2.590  0.00  0.00    +0.255 A 
ATOM     21  O   UNL     1       1.950  -1.003  -1.295  0.00  0.00    -0.419 OA
BRANCH  20  22
ATOM     22  C   UNL     1       3.402  -1.897  -3.147  0.00  0.00    +0.076 A 
ATOM     23  C   UNL     1       3.697  -2.219  -4.458  0.00  0.00    +0.021 A 
ATOM     24  C   UNL     1       4.926  -2.769  -4.737  0.00  0.00    +0.008 A 
ATOM     25  C   UNL     1       5.807  -2.977  -3.724  0.00  0.00    +0.046 A 
ATOM     26  S   UNL     1       4.902  -2.378  -2.306  0.00  0.00    -0.092 S 
ENDBRANCH  20  22
ENDBRANCH  16  17
ENDBRANCH   1  16
TORSDOF 5
