REMARK  Name = ZINC10339296
REMARK  5 active torsions:
REMARK  status: ('A' for Active; 'I' for Inactive)
REMARK    1  A    between atoms: C_1  and  C_2
REMARK    2  A    between atoms: C_7  and  C_21
REMARK    3  A    between atoms: C_9  and  C_17
REMARK    4  A    between atoms: C_17  and  O_19
REMARK    5  A    between atoms: O_19  and  C_20
REMARK                            x       y       z     vdW  Elec       q    Type
REMARK                         _______ _______ _______ _____ _____    ______ ____
ROOT
ATOM      1  C   UNL     1       0.131   1.129  -2.451  0.00  0.00    +0.008 C 
ATOM      2  C   UNL     1      -0.586   1.666  -1.211  0.00  0.00    -0.001 C 
ATOM      3  C   UNL     1       0.048   1.069   0.048  0.00  0.00    +0.055 C 
ATOM      4  C   UNL     1      -0.687   1.567   1.269  0.00  0.00    +0.019 C 
ATOM      5  C   UNL     1      -2.003   1.854   1.218  0.00  0.00    +0.024 C 
ATOM      6  C   UNL     1      -2.748   2.325   2.441  0.00  0.00    +0.093 C 
ATOM      7  C   UNL     1      -1.800   2.777   3.511  0.00  0.00    +0.075 C 
ATOM      8  C   UNL     1      -0.492   2.453   3.474  0.00  0.00    +0.107 C 
ATOM      9  N   UNL     1       0.028   1.721   2.429  0.00  0.00    -0.297 N 
ATOM     10  C   UNL     1       1.354   1.120   2.538  0.00  0.00    +0.129 C 
ATOM     11  C   UNL     1       2.329   1.992   3.305  0.00  0.00    +0.124 C 
ATOM     12  N   UNL     1       1.736   2.651   4.454  0.00  0.00    -0.309 N 
ATOM     13  C   UNL     1       0.419   2.881   4.567  0.00  0.00    +0.259 C 
ATOM     14  O   UNL     1      -0.025   3.434   5.553  0.00  0.00    -0.269 OA
ATOM     15  C   UNL     1      -2.729   1.716   0.020  0.00  0.00    +0.162 C 
ATOM     16  O   UNL     1      -3.917   1.972   0.011  0.00  0.00    -0.292 OA
ATOM     17  C   UNL     1      -2.063   1.260  -1.249  0.00  0.00    +0.083 C 
ATOM     18  H   UNL     1       2.319   2.940   5.173  0.00  0.00    +0.149 HD
ENDROOT
BRANCH   6  19
ATOM     19  C   UNL     1      -3.589   1.194   2.974  0.00  0.00    -0.035 A 
ATOM     20  C   UNL     1      -2.988   0.013   3.370  0.00  0.00    +0.004 A 
ATOM     21  C   UNL     1      -3.759  -1.023   3.863  0.00  0.00    +0.000 A 
ATOM     22  C   UNL     1      -5.132  -0.882   3.951  0.00  0.00    +0.000 A 
ATOM     23  C   UNL     1      -5.733   0.296   3.550  0.00  0.00    +0.000 A 
ATOM     24  C   UNL     1      -4.961   1.334   3.061  0.00  0.00    +0.004 A 
ENDBRANCH   6  19
BRANCH   7  25
ATOM     25  C   UNL     1      -2.305   3.589   4.621  0.00  0.00    +0.338 C 
ATOM     26  O   UNL     1      -2.875   3.056   5.554  0.00  0.00    -0.245 OA
BRANCH  25  27
ATOM     27  O   UNL     1      -2.139   4.927   4.608  0.00  0.00    -0.465 OA
ATOM     28  C   UNL     1      -2.666   5.668   5.740  0.00  0.00    +0.280 C 
ENDBRANCH  25  27
ENDBRANCH   7  25
TORSDOF 3
