REMARK  Name = ZINC32565766
REMARK  9 active torsions:
REMARK  status: ('A' for Active; 'I' for Inactive)
REMARK    1  A    between atoms: C_3  and  O_28
REMARK    2  A    between atoms: C_4  and  C_8
REMARK    3  A    between atoms: N_9  and  N_10
REMARK    4  A    between atoms: C_11  and  C_13
REMARK    5  A    between atoms: C_13  and  C_14
REMARK    6  A    between atoms: C_14  and  C_15
REMARK    7  A    between atoms: N_17  and  N_18
REMARK    8  A    between atoms: C_19  and  C_20
REMARK    9  A    between atoms: C_25  and  O_26
REMARK                            x       y       z     vdW  Elec       q    Type
REMARK                         _______ _______ _______ _____ _____    ______ ____
ROOT
ATOM      1  C   UNL     1       8.762  -0.710  -2.007  0.00  0.00    +0.107 C 
ENDROOT
BRANCH   1   3
ATOM      2  N   UNL     1       6.420  -0.651  -2.800  0.00  0.00    -0.207 N 
ATOM      3  C   UNL     1       7.576   0.010  -2.595  0.00  0.00    +0.233 C 
ATOM      4  O   UNL     1       7.662   1.185  -2.884  0.00  0.00    -0.274 OA
ATOM      5  H   UNL     1       6.351  -1.591  -2.569  0.00  0.00    +0.177 HD
BRANCH   2   7
ATOM      6  C   UNL     1       4.204  -0.619  -3.545  0.00  0.00    +0.142 C 
ATOM      7  N   UNL     1       5.317   0.018  -3.347  0.00  0.00    -0.188 NA
BRANCH   6  11
ATOM      8  C   UNL     1       0.861   1.411  -5.204  0.00  0.00    +0.019 A 
ATOM      9  C   UNL     1       2.043   2.096  -4.995  0.00  0.00    +0.047 A 
ATOM     10  C   UNL     1       3.139   1.443  -4.455  0.00  0.00    +0.126 A 
ATOM     11  C   UNL     1       3.044   0.086  -4.120  0.00  0.00    +0.037 A 
ATOM     12  C   UNL     1       1.844  -0.596  -4.334  0.00  0.00    +0.028 A 
ATOM     13  C   UNL     1       0.762   0.069  -4.874  0.00  0.00    +0.019 A 
ATOM     14 BR   UNL     1      -0.862  -0.855  -5.165  0.00  0.00    -0.050 Br
BRANCH  10  15
ATOM     15  O   UNL     1       4.301   2.116  -4.250  0.00  0.00    -0.506 OA
ATOM     16  H   UNL     1       4.368   2.530  -3.379  0.00  0.00    +0.292 HD
ENDBRANCH  10  15
ENDBRANCH   6  11
ENDBRANCH   2   7
ENDBRANCH   1   3
BRANCH   1  17
ATOM     17  C   UNL     1       9.937   0.262  -1.879  0.00  0.00    +0.107 C 
BRANCH  17  18
ATOM     18  C   UNL     1      11.123  -0.459  -1.291  0.00  0.00    +0.233 C 
ATOM     19  O   UNL     1      11.037  -1.634  -1.002  0.00  0.00    -0.274 OA
ATOM     20  N   UNL     1      12.279   0.203  -1.086  0.00  0.00    -0.207 N 
ATOM     21  H   UNL     1      12.348   1.142  -1.317  0.00  0.00    +0.177 HD
BRANCH  20  22
ATOM     22  N   UNL     1      13.381  -0.467  -0.539  0.00  0.00    -0.188 NA
ATOM     23  C   UNL     1      14.459   0.193  -0.241  0.00  0.00    +0.142 C 
BRANCH  23  24
ATOM     24  C   UNL     1      14.443   1.666  -0.234  0.00  0.00    +0.037 A 
ATOM     25  C   UNL     1      13.248   2.354  -0.009  0.00  0.00    +0.028 A 
ATOM     26  C   UNL     1      13.240   3.734  -0.003  0.00  0.00    +0.019 A 
ATOM     27  C   UNL     1      14.412   4.440  -0.221  0.00  0.00    +0.019 A 
ATOM     28  C   UNL     1      15.600   3.770  -0.446  0.00  0.00    +0.047 A 
ATOM     29  C   UNL     1      15.627   2.385  -0.448  0.00  0.00    +0.126 A 
ATOM     30 BR   UNL     1      11.623   4.665   0.301  0.00  0.00    -0.050 Br
BRANCH  29  31
ATOM     31  O   UNL     1      16.795   1.726  -0.662  0.00  0.00    -0.506 OA
ATOM     32  H   UNL     1      16.939   1.471  -1.584  0.00  0.00    +0.292 HD
ENDBRANCH  29  31
ENDBRANCH  23  24
ENDBRANCH  20  22
ENDBRANCH  17  18
ENDBRANCH   1  17
TORSDOF 9
