REMARK  Name = ZINC16740607
REMARK  6 active torsions:
REMARK  status: ('A' for Active; 'I' for Inactive)
REMARK    1  A    between atoms: C_1  and  C_2
REMARK    2  A    between atoms: C_2  and  C_3
REMARK    3  A    between atoms: C_8  and  C_31
REMARK    4  A    between atoms: C_12  and  C_15
REMARK    5  A    between atoms: C_13  and  O_14
REMARK    6  A    between atoms: C_15  and  N_65
REMARK                            x       y       z     vdW  Elec       q    Type
REMARK                         _______ _______ _______ _____ _____    ______ ____
ROOT
ATOM      1  C   UNL     1      -5.738   1.779  -3.432  0.00  0.00    -0.005 A 
ATOM      2  C   UNL     1      -6.315   3.009  -3.291  0.00  0.00    +0.022 A 
ATOM      3  C   UNL     1      -6.246   3.670  -2.064  0.00  0.00    +0.065 A 
ATOM      4  C   UNL     1      -6.856   4.998  -1.876  0.00  0.00    +0.202 A 
ATOM      5  O   UNL     1      -7.442   5.567  -2.781  0.00  0.00    -0.286 OA
ATOM      6  C   UNL     1      -6.723   5.606  -0.539  0.00  0.00    +0.089 A 
ATOM      7  C   UNL     1      -6.056   4.918   0.428  0.00  0.00    +0.210 A 
ATOM      8  O   UNL     1      -5.520   3.716   0.212  0.00  0.00    -0.462 OA
ATOM      9  C   UNL     1      -5.591   3.075  -0.971  0.00  0.00    +0.143 A 
ATOM     10  C   UNL     1      -5.005   1.826  -1.133  0.00  0.00    +0.021 A 
ATOM     11  C   UNL     1      -5.082   1.183  -2.357  0.00  0.00    +0.125 A 
ENDROOT
BRANCH   6  12
ATOM     12  C   UNL     1      -7.302   6.934  -0.254  0.00  0.00    +0.116 A 
ATOM     13  N   UNL     1      -7.280   7.621   0.868  0.00  0.00    -0.239 NA
ATOM     14  C   UNL     1      -7.856   8.835   0.985  0.00  0.00    +0.079 A 
ATOM     15  C   UNL     1      -7.904   9.672   2.125  0.00  0.00    +0.029 A 
ATOM     16  C   UNL     1      -8.530  10.879   2.077  0.00  0.00    +0.002 A 
ATOM     17  C   UNL     1      -9.143  11.336   0.919  0.00  0.00    +0.001 A 
ATOM     18  C   UNL     1      -9.118  10.548  -0.217  0.00  0.00    +0.017 A 
ATOM     19  C   UNL     1      -8.489   9.329  -0.179  0.00  0.00    +0.040 A 
ATOM     20  S   UNL     1      -8.204   8.022  -1.349  0.00  0.00    -0.067 S 
ENDBRANCH   6  12
BRANCH   1  22
ATOM     21  C   UNL     1      -7.002   0.102  -4.751  0.00  0.00    +0.009 C 
ATOM     22  C   UNL     1      -5.812   1.063  -4.756  0.00  0.00    +0.035 C 
ENDBRANCH   1  22
BRANCH  11  23
ATOM     23  O   UNL     1      -4.513  -0.040  -2.511  0.00  0.00    -0.506 OA
ATOM     24  H   UNL     1      -5.104  -0.777  -2.307  0.00  0.00    +0.292 HD
ENDBRANCH  11  23
BRANCH  10  25
ATOM     25  C   UNL     1      -4.292   1.171   0.021  0.00  0.00    -0.036 C 
BRANCH  25  39
ATOM     26  C   UNL     1      -2.203   1.140   1.240  0.00  0.00    -0.073 C 
ATOM     27  C   UNL     1      -0.748   1.589   1.253  0.00  0.00    -0.007 C 
ATOM     28  C   UNL     1      -0.013   1.086   0.008  0.00  0.00    +0.011 C 
ATOM     29  C   UNL     1      -0.773   1.603  -1.219  0.00  0.00    +0.020 C 
ATOM     30  C   UNL     1      -2.194   1.016  -1.180  0.00  0.00    -0.069 C 
ATOM     31  C   UNL     1      -0.888   3.108  -1.134  0.00  0.00    +0.023 A 
ATOM     32  C   UNL     1      -1.007   3.792  -2.303  0.00  0.00    +0.022 A 
ATOM     33  C   UNL     1      -1.180   5.180  -2.301  0.00  0.00    +0.007 A 
ATOM     34  C   UNL     1      -1.248   5.833  -1.105  0.00  0.00    +0.070 A 
ATOM     35  C   UNL     1      -1.152   5.090   0.099  0.00  0.00    +0.251 A 
ATOM     36  O   UNL     1      -1.265   5.651   1.177  0.00  0.00    -0.268 OA
ATOM     37  N   UNL     1      -0.901   3.757   0.061  0.00  0.00    -0.312 N 
ATOM     38  C   UNL     1      -0.621   3.100   1.338  0.00  0.00    +0.126 C 
ATOM     39  N   UNL     1      -2.875   1.587   0.004  0.00  0.00    +0.383 N 
ATOM     40  H   UNL     1      -2.829   2.612  -0.048  0.00  0.00    -0.081 HD
ENDBRANCH  25  39
ENDBRANCH  10  25
TORSDOF 5
