REMARK  Name = ZINC39483045
REMARK  12 active torsions:
REMARK  status: ('A' for Active; 'I' for Inactive)
REMARK    1  A    between atoms: C_1  and  C_2
REMARK    2  A    between atoms: C_2  and  O_3
REMARK    3  A    between atoms: O_3  and  C_4
REMARK    4  A    between atoms: N_7  and  C_11
REMARK    5  A    between atoms: C_13  and  S_28
REMARK    6  A    between atoms: C_16  and  N_17
REMARK    7  A    between atoms: N_17  and  S_18
REMARK    8  A    between atoms: S_18  and  C_21
REMARK    9  A    between atoms: C_26  and  O_27
REMARK   10  A    between atoms: S_28  and  C_31
REMARK   11  A    between atoms: C_31  and  C_32
REMARK   12  A    between atoms: C_31  and  C_33
REMARK                            x       y       z     vdW  Elec       q    Type
REMARK                         _______ _______ _______ _____ _____    ______ ____
ROOT
ATOM      1  C   UNL     1      -3.036  -5.153   0.580  0.00  0.00    +0.054 A 
ATOM      2  C   UNL     1      -4.306  -5.621   0.276  0.00  0.00    +0.052 A 
ATOM      3  C   UNL     1      -4.969  -6.447   1.165  0.00  0.00    +0.090 A 
ATOM      4  C   UNL     1      -4.370  -6.809   2.357  0.00  0.00    +0.029 A 
ATOM      5  C   UNL     1      -3.105  -6.347   2.668  0.00  0.00    +0.028 A 
ATOM      6  C   UNL     1      -2.430  -5.522   1.780  0.00  0.00    +0.069 A 
ENDROOT
BRANCH   1   9
ATOM      7  C   UNL     1      -1.101  -2.233  -0.216  0.00  0.00    +0.203 C 
ATOM      8  C   UNL     1      -2.502  -2.854  -0.238  0.00  0.00    +0.153 C 
ATOM      9  N   UNL     1      -2.363  -4.316  -0.318  0.00  0.00    -0.323 N 
ATOM     10  C   UNL     1      -1.497  -4.876  -1.367  0.00  0.00    +0.120 C 
ATOM     11  C   UNL     1      -0.136  -4.175  -1.301  0.00  0.00    +0.102 C 
ATOM     12  N   UNL     1      -0.333  -2.721  -1.369  0.00  0.00    -0.289 NA
ATOM     13  H   UNL     1      -0.776  -2.457  -2.236  0.00  0.00    +0.124 HD
BRANCH   7  14
ATOM     14  O   UNL     1      -1.210  -0.809  -0.284  0.00  0.00    -0.361 OA
BRANCH  14  16
ATOM     15  C   UNL     1      -0.215   1.388  -0.142  0.00  0.00    +0.034 C 
ATOM     16  C   UNL     1       0.019  -0.121  -0.045  0.00  0.00    +0.158 C 
ENDBRANCH  14  16
ENDBRANCH   7  14
ENDBRANCH   1   9
BRANCH   3  17
ATOM     17  S   UNL     1      -6.582  -7.040   0.776  0.00  0.00    -0.001 S 
ATOM     18  O   UNL     1      -7.189  -7.291   2.036  0.00  0.00    -0.169 OA
ATOM     19  O   UNL     1      -7.123  -6.066  -0.107  0.00  0.00    -0.169 OA
BRANCH  17  20
ATOM     20  C   UNL     1      -6.306  -8.600  -0.107  0.00  0.00    +0.130 C 
ATOM     21  C   UNL     1      -7.644  -9.147  -0.606  0.00  0.00    +0.032 C 
ATOM     22  C   UNL     1      -5.379  -8.354  -1.299  0.00  0.00    +0.032 C 
ENDBRANCH  17  20
ENDBRANCH   3  17
BRANCH   6  23
ATOM     23  N   UNL     1      -1.146  -5.058   2.091  0.00  0.00    -0.214 N 
ATOM     24  H   UNL     1      -0.874  -4.168   1.818  0.00  0.00    +0.174 HD
BRANCH  23  25
ATOM     25  S   UNL     1      -0.094  -6.028   2.924  0.00  0.00    +0.076 S 
ATOM     26  O   UNL     1      -0.151  -7.309   2.312  0.00  0.00    -0.150 OA
ATOM     27  O   UNL     1       1.119  -5.297   3.050  0.00  0.00    -0.150 OA
BRANCH  25  28
ATOM     28  C   UNL     1      -0.739  -6.218   4.553  0.00  0.00    +0.150 A 
ATOM     29  C   UNL     1      -1.120  -7.467   5.004  0.00  0.00    +0.032 A 
ATOM     30  C   UNL     1      -1.626  -7.618   6.281  0.00  0.00    +0.002 A 
ATOM     31  C   UNL     1      -1.752  -6.519   7.111  0.00  0.00    +0.004 A 
ATOM     32  C   UNL     1      -1.372  -5.268   6.665  0.00  0.00    +0.047 A 
ATOM     33  C   UNL     1      -0.859  -5.115   5.385  0.00  0.00    +0.143 A 
BRANCH  33  34
ATOM     34  O   UNL     1      -0.479  -3.886   4.946  0.00  0.00    -0.505 OA
ATOM     35  H   UNL     1      -1.191  -3.380   4.532  0.00  0.00    +0.292 HD
ENDBRANCH  33  34
ENDBRANCH  25  28
ENDBRANCH  23  25
ENDBRANCH   6  23
TORSDOF 9
