REMARK  Name = ZINC11212858
REMARK  6 active torsions:
REMARK  status: ('A' for Active; 'I' for Inactive)
REMARK    1  A    between atoms: C_1  and  C_2
REMARK    2  A    between atoms: C_2  and  O_3
REMARK    3  A    between atoms: O_3  and  C_4
REMARK    4  A    between atoms: C_4  and  C_6
REMARK    5  A    between atoms: C_7  and  C_24
REMARK    6  A    between atoms: C_12  and  C_14
REMARK                            x       y       z     vdW  Elec       q    Type
REMARK                         _______ _______ _______ _____ _____    ______ ____
ROOT
ATOM      1  C   UNL     1       1.234   2.976   0.006  0.00  0.00    +0.078 C 
ATOM      2  C   UNL     1       1.183   1.626  -0.001  0.00  0.00    +0.019 C 
ATOM      3  N   UNL     1      -0.011   0.966   0.007  0.00  0.00    -0.300 N 
ATOM      4  C   UNL     1      -1.200   1.581   0.017  0.00  0.00    +0.135 C 
ATOM      5  S   UNL     1      -2.624   0.631   0.018  0.00  0.00    -0.019 S 
ATOM      6  N   UNL     1      -1.312   2.924   0.030  0.00  0.00    -0.315 N 
ATOM      7  C   UNL     1      -0.080   3.731   0.023  0.00  0.00    +0.141 C 
ATOM      8  C   UNL     1       2.467   0.836  -0.017  0.00  0.00    +0.061 C 
ATOM      9  H   UNL     1       0.002  -0.004   0.002  0.00  0.00    +0.154 HD
ATOM     10  H   UNL     1      -2.184   3.350   0.041  0.00  0.00    +0.149 HD
ENDROOT
BRANCH   7  11
ATOM     11  C   UNL     1      -0.094   4.612   1.245  0.00  0.00    -0.018 A 
ATOM     12  C   UNL     1       0.204   5.957   1.129  0.00  0.00    +0.055 A 
ATOM     13  C   UNL     1       0.192   6.770   2.251  0.00  0.00    +0.168 A 
ATOM     14  C   UNL     1      -0.121   6.229   3.495  0.00  0.00    +0.184 A 
ATOM     15  C   UNL     1      -0.419   4.880   3.605  0.00  0.00    +0.087 A 
ATOM     16  C   UNL     1      -0.410   4.075   2.479  0.00  0.00    +0.029 A 
ATOM     17 CL   UNL     1      -0.810   4.200   5.154  0.00  0.00    -0.080 Cl
ATOM     18  O   UNL     1      -0.065   7.222   4.430  0.00  0.00    -0.451 OA
ATOM     19  C   UNL     1      -0.115   8.454   3.685  0.00  0.00    +0.466 C 
ATOM     20  O   UNL     1       0.444   8.103   2.406  0.00  0.00    -0.453 OA
ENDBRANCH   7  11
BRANCH   1  21
ATOM     21  C   UNL     1       2.471   3.661  -0.001  0.00  0.00    +0.339 C 
ATOM     22  O   UNL     1       3.514   3.034  -0.014  0.00  0.00    -0.245 OA
BRANCH  21  23
ATOM     23  O   UNL     1       2.494   5.011   0.006  0.00  0.00    -0.462 OA
BRANCH  23  25
ATOM     24  C   UNL     1       3.605   7.157   0.007  0.00  0.00    +0.048 C 
ATOM     25  C   UNL     1       3.779   5.637  -0.003  0.00  0.00    +0.229 C 
ENDBRANCH  23  25
ENDBRANCH  21  23
ENDBRANCH   1  21
TORSDOF 4
