REMARK  Name = ZINC35659376
REMARK  4 active torsions:
REMARK  status: ('A' for Active; 'I' for Inactive)
REMARK    1  A    between atoms: C_1  and  C_2
REMARK    2  A    between atoms: C_4  and  C_9
REMARK    3  A    between atoms: C_7  and  N_8
REMARK    4  A    between atoms: C_11  and  C_14
REMARK                            x       y       z     vdW  Elec       q    Type
REMARK                         _______ _______ _______ _____ _____    ______ ____
ROOT
ATOM      1  C   UNL     1       0.028  -2.816  -2.483  0.00  0.00    +0.259 A 
ATOM      2  N   UNL     1       0.040  -4.122  -2.622  0.00  0.00    -0.187 NA
ATOM      3  C   UNL     1       0.039  -4.442  -3.926  0.00  0.00    +0.202 A 
ATOM      4  N   UNL     1       0.027  -3.339  -4.633  0.00  0.00    -0.056 NA
ATOM      5  O   UNL     1       0.014  -2.262  -3.708  0.00  0.00    -0.332 OA
ENDROOT
BRANCH   1   9
ATOM      6  C   UNL     1      -0.018   1.503   0.010  0.00  0.00    +0.045 C 
ATOM      7  C   UNL     1       0.002  -0.004   0.002  0.00  0.00    -0.029 A 
ATOM      8  C   UNL     1       0.006  -0.685  -1.195  0.00  0.00    +0.018 A 
ATOM      9  C   UNL     1       0.025  -2.082  -1.202  0.00  0.00    +0.040 A 
ATOM     10  C   UNL     1       0.040  -2.784   0.007  0.00  0.00    +0.015 A 
ATOM     11  C   UNL     1       0.036  -2.097   1.200  0.00  0.00    +0.024 A 
ATOM     12  C   UNL     1       0.023  -0.705   1.203  0.00  0.00    +0.028 A 
BRANCH  12  13
ATOM     13  N   UNL     1       0.025  -0.013   2.412  0.00  0.00    -0.358 N 
ATOM     14  H   UNL     1       0.013   0.956   2.416  0.00  0.00    +0.142 HD
ATOM     15  H   UNL     1       0.040  -0.501   3.250  0.00  0.00    +0.142 HD
ENDBRANCH  12  13
ENDBRANCH   1   9
BRANCH   3  16
ATOM     16  C   UNL     1       0.051  -5.821  -4.476  0.00  0.00    +0.023 A 
ATOM     17  C   UNL     1       0.058  -6.917  -3.615  0.00  0.00    +0.013 A 
ATOM     18  C   UNL     1       0.068  -8.196  -4.132  0.00  0.00    +0.016 A 
ATOM     19  C   UNL     1       0.073  -8.392  -5.502  0.00  0.00    +0.018 A 
ATOM     20  C   UNL     1       0.066  -7.307  -6.361  0.00  0.00    +0.016 A 
ATOM     21  C   UNL     1       0.049  -6.023  -5.854  0.00  0.00    +0.013 A 
ATOM     22 BR   UNL     1       0.088 -10.148  -6.203  0.00  0.00    -0.050 Br
ENDBRANCH   3  16
TORSDOF 3
