REMARK  Name = ZINC49435288
REMARK  5 active torsions:
REMARK  status: ('A' for Active; 'I' for Inactive)
REMARK    1  A    between atoms: C_3  and  S_6
REMARK    2  A    between atoms: S_6  and  N_9
REMARK    3  A    between atoms: C_13  and  C_15
REMARK    4  A    between atoms: C_20  and  O_23
REMARK    5  A    between atoms: O_23  and  C_24
REMARK                            x       y       z     vdW  Elec       q    Type
REMARK                         _______ _______ _______ _____ _____    ______ ____
ROOT
ATOM      1  C   UNL     1       4.234  -0.164   2.449  0.00  0.00    +0.234 C 
ATOM      2  O   UNL     1       3.155  -0.163   1.895  0.00  0.00    -0.274 OA
ATOM      3  N   UNL     1       4.633  -1.246   3.146  0.00  0.00    -0.300 N 
ATOM      4  C   UNL     1       5.935  -1.259   3.827  0.00  0.00    +0.111 C 
ATOM      5  C   UNL     1       6.716  -2.497   3.375  0.00  0.00    +0.063 C 
ATOM      6  C   UNL     1       5.867  -3.747   3.617  0.00  0.00    +0.179 C 
ATOM      7  C   UNL     1       4.581  -3.660   2.792  0.00  0.00    +0.063 C 
ATOM      8  C   UNL     1       3.773  -2.433   3.243  0.00  0.00    +0.111 C 
ENDROOT
BRANCH   1  13
ATOM      9  N   UNL     1       4.477   2.089   1.552  0.00  0.00    -0.164 NA
ATOM     10  C   UNL     1       4.313   3.296   2.382  0.00  0.00    +0.110 C 
ATOM     11  C   UNL     1       4.313   2.777   3.842  0.00  0.00    +0.019 C 
ATOM     12  C   UNL     1       5.362   1.635   3.766  0.00  0.00    +0.031 C 
ATOM     13  C   UNL     1       5.127   1.046   2.359  0.00  0.00    +0.166 C 
BRANCH   9  14
ATOM     14  S   UNL     1       4.001   1.932  -0.026  0.00  0.00    +0.068 S 
ATOM     15  O   UNL     1       4.799   0.900  -0.590  0.00  0.00    -0.152 OA
ATOM     16  O   UNL     1       3.957   3.244  -0.570  0.00  0.00    -0.152 OA
BRANCH  14  19
ATOM     17  C   UNL     1      -0.016   1.351   0.009  0.00  0.00    +0.010 A 
ATOM     18  C   UNL     1       1.183   2.038   0.002  0.00  0.00    +0.036 A 
ATOM     19  C   UNL     1       2.343   1.336  -0.013  0.00  0.00    +0.143 A 
ATOM     20  S   UNL     1       1.754  -0.349  -0.017  0.00  0.00    -0.077 S 
ATOM     21  C   UNL     1       0.002  -0.004   0.002  0.00  0.00    +0.047 A 
ENDBRANCH  14  19
ENDBRANCH   9  14
ENDBRANCH   1  13
BRANCH   6  22
ATOM     22  O   UNL     1       6.606  -4.907   3.226  0.00  0.00    -0.468 OA
BRANCH  22  23
ATOM     23  C   UNL     1       6.343  -6.056   3.891  0.00  0.00    +0.258 A 
ATOM     24  N   UNL     1       5.487  -6.267   4.861  0.00  0.00    -0.203 NA
ATOM     25  C   UNL     1       5.328  -7.479   5.440  0.00  0.00    +0.117 A 
ATOM     26  C   UNL     1       4.446  -7.838   6.487  0.00  0.00    +0.153 A 
ATOM     27  C   UNL     1       4.410  -9.125   6.963  0.00  0.00    +0.079 A 
ATOM     28  C   UNL     1       5.231 -10.115   6.439  0.00  0.00    +0.127 A 
ATOM     29  C   UNL     1       6.105  -9.797   5.413  0.00  0.00    +0.055 A 
ATOM     30  C   UNL     1       6.147  -8.511   4.932  0.00  0.00    +0.048 A 
ATOM     31  S   UNL     1       7.070  -7.673   3.666  0.00  0.00    -0.029 S 
ATOM     32  F   UNL     1       5.178 -11.374   6.924  0.00  0.00    -0.205 F 
ATOM     33  F   UNL     1       3.631  -6.904   7.025  0.00  0.00    -0.203 F 
ENDBRANCH  22  23
ENDBRANCH   6  22
TORSDOF 5
