REMARK  Name = ZINC18281219
REMARK  5 active torsions:
REMARK  status: ('A' for Active; 'I' for Inactive)
REMARK    1  A    between atoms: C_1  and  C_2
REMARK    2  A    between atoms: C_7  and  C_8
REMARK    3  A    between atoms: C_8  and  N_9
REMARK    4  A    between atoms: C_10  and  C_12
REMARK    5  A    between atoms: C_12  and  N_13
REMARK                            x       y       z     vdW  Elec       q    Type
REMARK                         _______ _______ _______ _____ _____    ______ ____
ROOT
ATOM      1  N   UNL     1      -2.979   2.337   5.555  0.00  0.00    -0.215 N 
ATOM      2  C   UNL     1      -3.149   1.754   6.762  0.00  0.00    +0.251 C 
ATOM      3  O   UNL     1      -3.324   0.577   6.993  0.00  0.00    -0.272 OA
ATOM      4  C   UNL     1      -3.071   2.880   7.760  0.00  0.00    +0.138 C 
ATOM      5  C   UNL     1      -1.929   2.659   8.759  0.00  0.00    +0.045 C 
ATOM      6  C   UNL     1      -2.661   2.005   9.952  0.00  0.00    +0.038 C 
ATOM      7  C   UNL     1      -4.096   2.478   9.846  0.00  0.00    -0.042 A 
ATOM      8  C   UNL     1      -4.330   2.983   8.578  0.00  0.00    -0.012 A 
ATOM      9  C   UNL     1      -5.584   3.475   8.257  0.00  0.00    +0.006 A 
ATOM     10  C   UNL     1      -6.599   3.464   9.194  0.00  0.00    +0.000 A 
ATOM     11  C   UNL     1      -6.364   2.960  10.459  0.00  0.00    +0.000 A 
ATOM     12  C   UNL     1      -5.114   2.469  10.783  0.00  0.00    +0.004 A 
ATOM     13  N   UNL     1      -2.849   4.077   6.949  0.00  0.00    -0.281 N 
ATOM     14  C   UNL     1      -2.803   3.660   5.667  0.00  0.00    +0.310 C 
ATOM     15  O   UNL     1      -2.626   4.401   4.721  0.00  0.00    -0.252 OA
ATOM     16  H   UNL     1      -2.751   4.987   7.269  0.00  0.00    +0.152 HD
ENDROOT
BRANCH   1  17
ATOM     17  C   UNL     1      -2.982   1.611   4.282  0.00  0.00    +0.213 C 
BRANCH  17  19
ATOM     18  N   UNL     1      -1.338   0.477   2.823  0.00  0.00    -0.310 N 
ATOM     19  C   UNL     1      -1.579   1.167   3.955  0.00  0.00    +0.231 C 
ATOM     20  O   UNL     1      -0.668   1.431   4.710  0.00  0.00    -0.274 OA
ATOM     21  H   UNL     1      -2.067   0.266   2.219  0.00  0.00    +0.149 HD
BRANCH  18  22
ATOM     22  C   UNL     1       0.025   0.045   2.504  0.00  0.00    +0.139 C 
BRANCH  22  29
ATOM     23  C   UNL     1      -0.018   1.503   0.010  0.00  0.00    +0.044 C 
ATOM     24  C   UNL     1       0.002  -0.004   0.002  0.00  0.00    -0.046 A 
ATOM     25  C   UNL     1       0.006  -0.689  -1.199  0.00  0.00    +0.003 A 
ATOM     26  C   UNL     1       0.025  -2.071  -1.207  0.00  0.00    +0.000 A 
ATOM     27  C   UNL     1       0.040  -2.768  -0.013  0.00  0.00    +0.000 A 
ATOM     28  C   UNL     1       0.037  -2.084   1.188  0.00  0.00    +0.005 A 
ATOM     29  C   UNL     1       0.023  -0.702   1.195  0.00  0.00    -0.027 A 
ENDBRANCH  22  29
ENDBRANCH  18  22
ENDBRANCH  17  19
ENDBRANCH   1  17
TORSDOF 4
