REMARK  Name = ZINC16788691
REMARK  11 active torsions:
REMARK  status: ('A' for Active; 'I' for Inactive)
REMARK    1  A    between atoms: C_1  and  C_2
REMARK    2  A    between atoms: C_2  and  C_4
REMARK    3  A    between atoms: C_2  and  S_20
REMARK    4  A    between atoms: N_6  and  C_7
REMARK    5  A    between atoms: C_12  and  S_13
REMARK    6  A    between atoms: S_13  and  C_14
REMARK    7  A    between atoms: S_20  and  C_21
REMARK    8  A    between atoms: C_24  and  C_27
REMARK    9  A    between atoms: N_25  and  N_26
REMARK   10  A    between atoms: C_27  and  O_28
REMARK   11  A    between atoms: O_28  and  C_29
REMARK                            x       y       z     vdW  Elec       q    Type
REMARK                         _______ _______ _______ _____ _____    ______ ____
ROOT
ATOM      1  C   UNL     1       2.005   2.106   0.368  0.00  0.00    +0.029 C 
ATOM      2  C   UNL     1       1.196   2.207  -0.927  0.00  0.00    +0.137 C 
ENDROOT
BRANCH   2   3
ATOM      3  C   UNL     1      -0.056   1.377  -0.803  0.00  0.00    +0.230 C 
ATOM      4  O   UNL     1      -0.073   0.239  -1.221  0.00  0.00    -0.274 OA
ATOM      5  N   UNL     1      -1.158   1.902  -0.232  0.00  0.00    -0.284 N 
ATOM      6  H   UNL     1      -1.123   2.785   0.168  0.00  0.00    +0.155 HD
BRANCH   5   7
ATOM      7  C   UNL     1      -2.354   1.172  -0.217  0.00  0.00    +0.047 A 
ATOM      8  C   UNL     1      -2.323  -0.214  -0.229  0.00  0.00    +0.024 A 
ATOM      9  C   UNL     1      -3.504  -0.932  -0.208  0.00  0.00    +0.002 A 
ATOM     10  C   UNL     1      -4.720  -0.272  -0.186  0.00  0.00    +0.001 A 
ATOM     11  C   UNL     1      -4.761   1.109  -0.179  0.00  0.00    +0.017 A 
ATOM     12  C   UNL     1      -3.580   1.839  -0.194  0.00  0.00    +0.034 A 
BRANCH  12  13
ATOM     13  S   UNL     1      -3.628   3.600  -0.185  0.00  0.00    -0.088 S 
BRANCH  13  14
ATOM     14  C   UNL     1      -3.187   4.030   1.466  0.00  0.00    +0.013 A 
ATOM     15  C   UNL     1      -3.028   3.037   2.425  0.00  0.00    +0.015 A 
ATOM     16  C   UNL     1      -2.678   3.377   3.717  0.00  0.00    +0.001 A 
ATOM     17  C   UNL     1      -2.496   4.705   4.059  0.00  0.00    +0.000 A 
ATOM     18  C   UNL     1      -2.658   5.696   3.108  0.00  0.00    +0.001 A 
ATOM     19  C   UNL     1      -3.003   5.363   1.813  0.00  0.00    +0.015 A 
ENDBRANCH  13  14
ENDBRANCH  12  13
ENDBRANCH   5   7
ENDBRANCH   2   3
BRANCH   2  20
ATOM     20  S   UNL     1       2.192   1.594  -2.309  0.00  0.00    -0.072 S 
BRANCH  20  21
ATOM     21  C   UNL     1       3.475   2.801  -2.321  0.00  0.00    +0.209 A 
ATOM     22  N   UNL     1       3.587   3.829  -1.512  0.00  0.00    -0.121 NA
ATOM     23  N   UNL     1       4.644   4.500  -1.803  0.00  0.00    -0.128 NA
ATOM     24  C   UNL     1       5.261   3.949  -2.810  0.00  0.00    +0.189 A 
ATOM     25  N   UNL     1       4.538   2.847  -3.176  0.00  0.00    -0.225 N 
BRANCH  25  26
ATOM     26  N   UNL     1       4.822   1.974  -4.188  0.00  0.00    -0.295 N 
ATOM     27  H   UNL     1       4.394   2.271  -5.052  0.00  0.00    +0.163 HD
ATOM     28  H   UNL     1       5.818   1.859  -4.298  0.00  0.00    +0.163 HD
ENDBRANCH  25  26
BRANCH  24  29
ATOM     29  C   UNL     1       6.534   4.436  -3.452  0.00  0.00    +0.306 C 
BRANCH  29  30
ATOM     30  O   UNL     1       6.218   5.345  -4.508  0.00  0.00    -0.481 OA
BRANCH  30  31
ATOM     31  C   UNL     1       7.262   5.880  -5.195  0.00  0.00    +0.156 A 
ATOM     32  C   UNL     1       8.563   5.542  -4.856  0.00  0.00    +0.048 A 
ATOM     33  C   UNL     1       9.622   6.084  -5.559  0.00  0.00    +0.004 A 
ATOM     34  C   UNL     1       9.387   6.971  -6.593  0.00  0.00    +0.003 A 
ATOM     35  C   UNL     1       8.091   7.315  -6.931  0.00  0.00    +0.042 A 
ATOM     36  C   UNL     1       7.027   6.772  -6.234  0.00  0.00    +0.165 A 
ATOM     37  F   UNL     1       5.760   7.108  -6.564  0.00  0.00    -0.202 F 
ENDBRANCH  30  31
ENDBRANCH  29  30
ENDBRANCH  24  29
ENDBRANCH  20  21
ENDBRANCH   2  20
TORSDOF 10
