REMARK  Name = ZINC17078146
REMARK  6 active torsions:
REMARK  status: ('A' for Active; 'I' for Inactive)
REMARK    1  A    between atoms: C_1  and  C_2
REMARK    2  A    between atoms: N_6  and  N_7
REMARK    3  A    between atoms: C_8  and  C_10
REMARK    4  A    between atoms: C_13  and  C_16
REMARK    5  A    between atoms: N_18  and  N_19
REMARK    6  A    between atoms: C_22  and  C_27
REMARK                            x       y       z     vdW  Elec       q    Type
REMARK                         _______ _______ _______ _____ _____    ______ ____
ROOT
ATOM      1  C   UNL     1       0.606  -6.357  -3.119  0.00  0.00    +0.038 A 
ATOM      2  C   UNL     1       1.149  -6.939  -1.972  0.00  0.00    +0.014 A 
ATOM      3  C   UNL     1       1.369  -8.298  -1.927  0.00  0.00    +0.014 A 
ATOM      4  C   UNL     1       1.048  -9.094  -3.029  0.00  0.00    +0.038 A 
ATOM      5  C   UNL     1       0.504  -8.512  -4.175  0.00  0.00    +0.014 A 
ATOM      6  C   UNL     1       0.281  -7.153  -4.219  0.00  0.00    +0.014 A 
ENDROOT
BRANCH   1   8
ATOM      7  N   UNL     1       0.685  -4.128  -2.106  0.00  0.00    -0.203 N 
ATOM      8  C   UNL     1       0.370  -4.897  -3.168  0.00  0.00    +0.263 C 
ATOM      9  O   UNL     1      -0.107  -4.391  -4.165  0.00  0.00    -0.268 OA
ATOM     10  H   UNL     1       1.066  -4.532  -1.311  0.00  0.00    +0.178 HD
BRANCH   7  15
ATOM     11  C   UNL     1       0.013   1.543  -0.016  0.00  0.00    +0.008 C 
ATOM     12  C   UNL     1       0.016   0.013  -0.016  0.00  0.00    -0.009 C 
ATOM     13  C   UNL     1       0.736  -0.497  -1.269  0.00  0.00    +0.055 C 
ATOM     14  C   UNL     1       0.844  -2.003  -1.182  0.00  0.00    +0.037 C 
ATOM     15  N   UNL     1       0.461  -2.746  -2.152  0.00  0.00    -0.189 NA
ATOM     16  C   UNL     1       1.416  -2.610   0.080  0.00  0.00    +0.052 C 
ATOM     17  C   UNL     1       0.671  -2.023   1.284  0.00  0.00    +0.006 C 
ATOM     18  C   UNL     1       0.741  -0.496   1.230  0.00  0.00    +0.004 C 
ENDBRANCH   7  15
ENDBRANCH   1   8
BRANCH   4  19
ATOM     19  C   UNL     1       1.285 -10.554  -2.981  0.00  0.00    +0.263 C 
ATOM     20  O   UNL     1       1.758 -11.060  -1.982  0.00  0.00    -0.268 OA
ATOM     21  N   UNL     1       0.975 -11.322  -4.044  0.00  0.00    -0.203 N 
ATOM     22  H   UNL     1       0.597 -10.918  -4.841  0.00  0.00    +0.178 HD
BRANCH  21  23
ATOM     23  N   UNL     1       1.199 -12.704  -3.999  0.00  0.00    -0.189 NA
ATOM     24  C   UNL     1       1.001 -13.419  -5.042  0.00  0.00    +0.037 C 
ATOM     25  C   UNL     1       1.335 -14.895  -5.046  0.00  0.00    +0.055 C 
ATOM     26  C   UNL     1       2.207 -15.194  -6.269  0.00  0.00    -0.009 C 
ATOM     27  C   UNL     1       1.496 -14.705  -7.532  0.00  0.00    +0.004 C 
ATOM     28  C   UNL     1       1.332 -13.185  -7.480  0.00  0.00    +0.006 C 
ATOM     29  C   UNL     1       0.421 -12.812  -6.300  0.00  0.00    +0.052 C 
ATOM     30  C   UNL     1       2.446 -16.702  -6.369  0.00  0.00    +0.008 C 
ENDBRANCH  21  23
ENDBRANCH   4  19
TORSDOF 4
