REMARK  Name = ZINC11296628
REMARK  6 active torsions:
REMARK  status: ('A' for Active; 'I' for Inactive)
REMARK    1  A    between atoms: C_1  and  O_2
REMARK    2  A    between atoms: O_2  and  C_3
REMARK    3  A    between atoms: C_6  and  C_10
REMARK    4  A    between atoms: C_11  and  C_12
REMARK    5  A    between atoms: C_11  and  C_14
REMARK    6  A    between atoms: N_20  and  C_21
REMARK                            x       y       z     vdW  Elec       q    Type
REMARK                         _______ _______ _______ _____ _____    ______ ____
ROOT
ATOM      1  C   UNL     1       3.082  -4.527  -5.692  0.00  0.00    +0.177 A 
ATOM      2  N   UNL     1       3.506  -3.817  -6.736  0.00  0.00    -0.194 NA
ATOM      3  C   UNL     1       4.199  -4.408  -7.704  0.00  0.00    +0.217 A 
ATOM      4  N   UNL     1       4.468  -5.708  -7.630  0.00  0.00    -0.181 NA
ATOM      5  C   UNL     1       4.046  -6.418  -6.589  0.00  0.00    +0.224 A 
ATOM      6  N   UNL     1       3.357  -5.828  -5.617  0.00  0.00    -0.194 NA
ATOM      7  N   UNL     1       4.327  -7.769  -6.514  0.00  0.00    -0.283 N 
ATOM      8  N   UNL     1       4.638  -3.673  -8.786  0.00  0.00    -0.327 N 
ATOM      9  H   UNL     1       3.970  -8.299  -5.784  0.00  0.00    +0.155 HD
ATOM     10  H   UNL     1       4.441  -2.724  -8.840  0.00  0.00    +0.145 HD
ATOM     11  H   UNL     1       5.144  -4.104  -9.493  0.00  0.00    +0.145 HD
ENDROOT
BRANCH   7  12
ATOM     12  C   UNL     1       5.126  -8.372  -7.491  0.00  0.00    +0.034 A 
ATOM     13  C   UNL     1       6.164  -7.660  -8.078  0.00  0.00    +0.023 A 
ATOM     14  C   UNL     1       6.951  -8.259  -9.041  0.00  0.00    +0.002 A 
ATOM     15  C   UNL     1       6.707  -9.565  -9.422  0.00  0.00    +0.000 A 
ATOM     16  C   UNL     1       5.674 -10.277  -8.840  0.00  0.00    +0.002 A 
ATOM     17  C   UNL     1       4.886  -9.686  -7.871  0.00  0.00    +0.023 A 
ENDBRANCH   7  12
BRANCH   1  19
ATOM     18  C   UNL     1       2.030  -2.538  -4.692  0.00  0.00    +0.030 C 
ATOM     19  C   UNL     1       2.312  -3.871  -4.615  0.00  0.00    +0.097 C 
BRANCH  18  23
ATOM     20  C   UNL     1       0.230  -0.558  -1.405  0.00  0.00    +0.134 A 
ATOM     21  C   UNL     1       1.077  -1.639  -1.184  0.00  0.00    +0.047 A 
ATOM     22  C   UNL     1       1.664  -2.286  -2.247  0.00  0.00    +0.011 A 
ATOM     23  C   UNL     1       1.407  -1.853  -3.555  0.00  0.00    -0.022 A 
ATOM     24  C   UNL     1       0.553  -0.764  -3.773  0.00  0.00    +0.027 A 
ATOM     25  C   UNL     1      -0.033  -0.128  -2.701  0.00  0.00    +0.060 A 
ATOM     26 BR   UNL     1      -1.192   1.337  -2.993  0.00  0.00    -0.047 Br
BRANCH  20  28
ATOM     27  C   UNL     1      -0.033  -0.417   0.952  0.00  0.00    +0.277 C 
ATOM     28  O   UNL     1      -0.346   0.076  -0.352  0.00  0.00    -0.494 OA
ENDBRANCH  20  28
ENDBRANCH  18  23
BRANCH  19  29
ATOM     29  C   UNL     1       1.862  -4.633  -3.490  0.00  0.00    +0.103 C 
ATOM     30  N   UNL     1       1.504  -5.239  -2.597  0.00  0.00    -0.191 NA
ENDBRANCH  19  29
ENDBRANCH   1  19
TORSDOF 5
