REMARK  Name = ZINC21722147
REMARK  7 active torsions:
REMARK  status: ('A' for Active; 'I' for Inactive)
REMARK    1  A    between atoms: C_1  and  C_2
REMARK    2  A    between atoms: C_2  and  C_37
REMARK    3  A    between atoms: C_6  and  C_26
REMARK    4  A    between atoms: N_18  and  C_19
REMARK    5  A    between atoms: C_19  and  C_20
REMARK    6  A    between atoms: C_29  and  O_32
REMARK    7  A    between atoms: O_32  and  C_33
REMARK                            x       y       z     vdW  Elec       q    Type
REMARK                         _______ _______ _______ _____ _____    ______ ____
ROOT
ATOM      1  C   UNL     1      -9.280   1.999   5.058  0.00  0.00    +0.011 C 
ATOM      2  C   UNL     1     -10.494   1.947   4.127  0.00  0.00    -0.023 C 
ATOM      3  C   UNL     1     -10.138   1.180   2.854  0.00  0.00    +0.058 C 
ATOM      4  C   UNL     1      -8.982   1.866   2.145  0.00  0.00    +0.017 C 
ATOM      5  C   UNL     1      -8.852   3.201   2.194  0.00  0.00    +0.037 C 
ATOM      6  C   UNL     1      -7.779   4.010   1.514  0.00  0.00    +0.148 C 
ATOM      7  N   UNL     1      -6.686   3.230   0.974  0.00  0.00    -0.242 N 
ATOM      8  C   UNL     1      -6.894   2.319  -0.063  0.00  0.00    +0.060 A 
ATOM      9  C   UNL     1      -6.320   2.499  -1.311  0.00  0.00    +0.025 A 
ATOM     10  C   UNL     1      -6.592   1.593  -2.322  0.00  0.00    +0.002 A 
ATOM     11  C   UNL     1      -7.431   0.518  -2.092  0.00  0.00    +0.002 A 
ATOM     12  C   UNL     1      -7.992   0.326  -0.841  0.00  0.00    +0.025 A 
ATOM     13  C   UNL     1      -7.704   1.220   0.176  0.00  0.00    +0.053 A 
ATOM     14  N   UNL     1      -8.148   1.027   1.479  0.00  0.00    -0.316 N 
ATOM     15  C   UNL     1      -5.448   3.382   1.484  0.00  0.00    +0.307 C 
ATOM     16  O   UNL     1      -5.255   4.173   2.387  0.00  0.00    -0.252 OA
ATOM     17  N   UNL     1      -4.423   2.658   0.992  0.00  0.00    -0.296 N 
ATOM     18  C   UNL     1      -9.769   3.980   2.939  0.00  0.00    +0.163 C 
ATOM     19  O   UNL     1      -9.638   5.188   2.950  0.00  0.00    -0.292 OA
ATOM     20  C   UNL     1     -10.895   3.369   3.717  0.00  0.00    +0.086 C 
ATOM     21  C   UNL     1     -11.663   1.262   4.837  0.00  0.00    +0.011 C 
ATOM     22  H   UNL     1      -7.772   0.118   1.973  0.00  0.00    +0.152 HD
ATOM     23  H   UNL     1      -4.597   1.942   0.175  0.00  0.00    +0.150 HD
ENDROOT
BRANCH   6  24
ATOM     24  C   UNL     1      -8.413   4.789   0.390  0.00  0.00    -0.022 A 
ATOM     25  C   UNL     1      -8.464   6.169   0.451  0.00  0.00    +0.009 A 
ATOM     26  C   UNL     1      -9.039   6.886  -0.581  0.00  0.00    +0.046 A 
ATOM     27  C   UNL     1      -9.575   6.219  -1.673  0.00  0.00    +0.120 A 
ATOM     28  C   UNL     1      -9.527   4.833  -1.728  0.00  0.00    +0.046 A 
ATOM     29  C   UNL     1      -8.946   4.122  -0.697  0.00  0.00    +0.009 A 
BRANCH  27  30
ATOM     30  O   UNL     1     -10.147   6.921  -2.686  0.00  0.00    -0.495 OA
ATOM     31  C   UNL     1     -10.162   8.344  -2.561  0.00  0.00    +0.277 C 
ENDBRANCH  27  30
ENDBRANCH   6  24
BRANCH  17  32
ATOM     32  C   UNL     1      -3.077   2.823   1.546  0.00  0.00    +0.137 C 
BRANCH  32  33
ATOM     33  C   UNL     1      -2.107   1.892   0.817  0.00  0.00    +0.135 C 
ATOM     34  C   UNL     1      -0.682   2.012   1.428  0.00  0.00    +0.035 C 
ATOM     35  C   UNL     1       0.187   1.559   0.223  0.00  0.00    +0.031 C 
ATOM     36  C   UNL     1      -0.611   2.097  -0.983  0.00  0.00    +0.160 C 
ATOM     37  O   UNL     1      -1.963   2.296  -0.554  0.00  0.00    -0.375 OA
ENDBRANCH  32  33
ENDBRANCH  17  32
TORSDOF 4
