REMARK  Name = ZINC40987798
REMARK  6 active torsions:
REMARK  status: ('A' for Active; 'I' for Inactive)
REMARK    1  A    between atoms: C_4  and  C_7
REMARK    2  A    between atoms: C_8  and  C_9
REMARK    3  A    between atoms: C_9  and  S_10
REMARK    4  A    between atoms: S_10  and  C_11
REMARK    5  A    between atoms: C_17  and  C_19
REMARK    6  A    between atoms: N_22  and  C_24
REMARK                            x       y       z     vdW  Elec       q    Type
REMARK                         _______ _______ _______ _____ _____    ______ ____
ROOT
ATOM      1  C   UNL     1       6.792  -4.466   1.307  0.00  0.00    +0.160 A 
ATOM      2  N   UNL     1       7.665  -4.418   0.312  0.00  0.00    -0.133 NA
ATOM      3  N   UNL     1       8.755  -5.052   0.349  0.00  0.00    -0.125 NA
ATOM      4  C   UNL     1       9.093  -5.804   1.384  0.00  0.00    +0.189 A 
ATOM      5  S   UNL     1       7.662  -5.556   2.430  0.00  0.00    -0.024 S 
ATOM      6  N   UNL     1      10.238  -6.566   1.599  0.00  0.00    -0.258 N 
ATOM      7  C   UNL     1      11.207  -6.605   0.664  0.00  0.00    +0.270 C 
ATOM      8  O   UNL     1      11.082  -5.975  -0.368  0.00  0.00    -0.268 OA
ATOM      9  H   UNL     1      10.337  -7.069   2.423  0.00  0.00    +0.157 HD
ENDROOT
BRANCH   7  10
ATOM     10  C   UNL     1      12.422  -7.414   0.893  0.00  0.00    +0.151 A 
ATOM     11  C   UNL     1      13.515  -7.551   0.022  0.00  0.00    +0.006 A 
ATOM     12  C   UNL     1      14.386  -8.384   0.644  0.00  0.00    +0.044 A 
ATOM     13  N   UNL     1      13.838  -8.722   1.823  0.00  0.00    -0.263 N 
ATOM     14  N   UNL     1      12.694  -8.146   1.960  0.00  0.00    -0.166 NA
ATOM     15  C   UNL     1      15.706  -8.811   0.056  0.00  0.00    +0.055 C 
ATOM     16  C   UNL     1      15.687  -8.506  -1.447  0.00  0.00    +0.006 C 
ATOM     17  C   UNL     1      15.233  -7.061  -1.674  0.00  0.00    +0.005 C 
ATOM     18  C   UNL     1      13.743  -6.931  -1.330  0.00  0.00    +0.039 C 
BRANCH  13  19
ATOM     19  C   UNL     1      14.455  -9.610   2.811  0.00  0.00    +0.130 C 
ATOM     20  C   UNL     1      14.640  -8.850   4.135  0.00  0.00    +0.051 C 
ATOM     21  C   UNL     1      14.996  -9.884   5.241  0.00  0.00    +0.168 C 
ATOM     22  S   UNL     1      13.853 -11.260   4.797  0.00  0.00    -0.029 S 
ATOM     23  O   UNL     1      14.562 -12.490   4.865  0.00  0.00    -0.174 OA
ATOM     24  O   UNL     1      12.643 -11.109   5.527  0.00  0.00    -0.174 OA
ATOM     25  C   UNL     1      13.545 -10.842   3.034  0.00  0.00    +0.192 C 
ENDBRANCH  13  19
ENDBRANCH   7  10
BRANCH   1  26
ATOM     26  S   UNL     1       5.226  -3.676   1.480  0.00  0.00    -0.093 S 
BRANCH  26  27
ATOM     27  C   UNL     1       5.033  -2.743  -0.063  0.00  0.00    +0.103 C 
BRANCH  27  29
ATOM     28  C   UNL     1       3.695  -0.685  -0.038  0.00  0.00    +0.004 C 
ATOM     29  C   UNL     1       3.716  -2.010  -0.046  0.00  0.00    -0.015 C 
BRANCH  28  33
ATOM     30  C   UNL     1      -0.017   1.379   0.010  0.00  0.00    +0.000 A 
ATOM     31  C   UNL     1       1.168   2.093   0.002  0.00  0.00    +0.001 A 
ATOM     32  C   UNL     1       2.377   1.429  -0.013  0.00  0.00    +0.008 A 
ATOM     33  C   UNL     1       2.403   0.034  -0.021  0.00  0.00    -0.025 A 
ATOM     34  C   UNL     1       1.204  -0.681  -0.013  0.00  0.00    +0.008 A 
ATOM     35  C   UNL     1       0.002  -0.004   0.002  0.00  0.00    +0.001 A 
ENDBRANCH  28  33
ENDBRANCH  27  29
ENDBRANCH  26  27
ENDBRANCH   1  26
TORSDOF 6
