REMARK  Name = ZINC37711415
REMARK  7 active torsions:
REMARK  status: ('A' for Active; 'I' for Inactive)
REMARK    1  A    between atoms: C_1  and  C_2
REMARK    2  A    between atoms: C_2  and  N_3
REMARK    3  A    between atoms: N_3  and  C_4
REMARK    4  A    between atoms: C_4  and  C_5
REMARK    5  A    between atoms: C_10  and  O_11
REMARK    6  A    between atoms: O_11  and  C_12
REMARK    7  A    between atoms: C_19  and  O_21
REMARK                            x       y       z     vdW  Elec       q    Type
REMARK                         _______ _______ _______ _____ _____    ______ ____
ROOT
ATOM      1  C   UNL     1       1.415  -2.433  -2.455  0.00  0.00    -0.020 A 
ATOM      2  C   UNL     1       0.681  -2.858  -3.546  0.00  0.00    +0.025 A 
ATOM      3  C   UNL     1       1.327  -3.304  -4.684  0.00  0.00    +0.043 A 
ATOM      4  C   UNL     1       2.710  -3.327  -4.733  0.00  0.00    +0.043 A 
ATOM      5  C   UNL     1       3.448  -2.903  -3.644  0.00  0.00    +0.084 A 
ATOM      6  C   UNL     1       2.801  -2.448  -2.503  0.00  0.00    +0.141 A 
ATOM      7 CL   UNL     1       5.183  -2.931  -3.706  0.00  0.00    -0.080 Cl
ATOM      8 CL   UNL     1       0.403  -3.838  -6.053  0.00  0.00    -0.083 Cl
ENDROOT
BRANCH   1   9
ATOM      9  C   UNL     1       0.710  -1.947  -1.215  0.00  0.00    -0.043 C 
BRANCH   9  10
ATOM     10  N   UNL     1       0.690  -0.478  -1.207  0.00  0.00    +0.382 N 
ATOM     11  H   UNL     1       0.202  -0.144  -2.024  0.00  0.00    -0.085 HD
ATOM     12  H   UNL     1       1.636  -0.129  -1.214  0.00  0.00    -0.085 HD
BRANCH  10  14
ATOM     13  C   UNL     1      -0.019   1.526   0.010  0.00  0.00    -0.017 C 
ATOM     14  C   UNL     1       0.002  -0.004   0.002  0.00  0.00    -0.086 C 
ENDBRANCH  10  14
ENDBRANCH   9  10
ENDBRANCH   1   9
BRANCH   6  15
ATOM     15  O   UNL     1       3.524  -2.025  -1.433  0.00  0.00    -0.483 OA
BRANCH  15  16
ATOM     16  C   UNL     1       3.872  -3.008  -0.456  0.00  0.00    +0.224 C 
ATOM     17  C   UNL     1       5.243  -3.639  -0.827  0.00  0.00    +0.213 C 
ATOM     18  S   UNL     1       5.723  -4.324   0.819  0.00  0.00    -0.025 S 
ATOM     19  O   UNL     1       5.058  -5.564   1.022  0.00  0.00    -0.174 OA
ATOM     20  O   UNL     1       7.135  -4.253   0.962  0.00  0.00    -0.174 OA
ATOM     21  C   UNL     1       4.940  -3.037   1.878  0.00  0.00    +0.201 C 
ATOM     22  C   UNL     1       3.950  -2.348   0.920  0.00  0.00    +0.177 C 
BRANCH  22  23
ATOM     23  O   UNL     1       4.346  -0.986   0.753  0.00  0.00    -0.386 OA
ATOM     24  H   UNL     1       4.420  -0.493   1.581  0.00  0.00    +0.210 HD
ENDBRANCH  22  23
ENDBRANCH  15  16
ENDBRANCH   6  15
TORSDOF 6
