REMARK  Name = ZINC39494845
REMARK  11 active torsions:
REMARK  status: ('A' for Active; 'I' for Inactive)
REMARK    1  A    between atoms: C_4  and  C_7
REMARK    2  A    between atoms: C_7  and  C_8
REMARK    3  A    between atoms: C_8  and  C_10
REMARK    4  A    between atoms: C_10  and  C_12
REMARK    5  A    between atoms: C_10  and  C_19
REMARK    6  A    between atoms: C_17  and  O_18
REMARK    7  A    between atoms: C_19  and  C_21
REMARK    8  A    between atoms: C_19  and  N_27
REMARK    9  A    between atoms: C_28  and  S_30
REMARK   10  A    between atoms: S_30  and  O_33
REMARK   11  A    between atoms: O_33  and  C_34
REMARK                            x       y       z     vdW  Elec       q    Type
REMARK                         _______ _______ _______ _____ _____    ______ ____
ROOT
ATOM      1  C   UNL     1       6.002  -1.287   3.010  0.00  0.00    +0.119 C 
ENDROOT
BRANCH   1   2
ATOM      2  C   UNL     1       6.242   0.200   3.045  0.00  0.00    -0.026 A 
ATOM      3  C   UNL     1       7.385   0.729   2.475  0.00  0.00    +0.005 A 
ATOM      4  C   UNL     1       7.606   2.093   2.507  0.00  0.00    +0.000 A 
ATOM      5  C   UNL     1       6.683   2.929   3.109  0.00  0.00    +0.000 A 
ATOM      6  C   UNL     1       5.540   2.400   3.678  0.00  0.00    +0.000 A 
ATOM      7  C   UNL     1       5.317   1.036   3.643  0.00  0.00    +0.005 A 
ENDBRANCH   1   2
BRANCH   1   8
ATOM      8  N   UNL     1       7.261  -1.992   3.261  0.00  0.00    -0.286 N 
ATOM      9  C   UNL     1       7.667  -2.217   4.527  0.00  0.00    +0.391 C 
ATOM     10  O   UNL     1       6.989  -1.837   5.458  0.00  0.00    -0.246 OA
ATOM     11  H   UNL     1       7.804  -2.296   2.517  0.00  0.00    +0.151 HD
BRANCH   9  12
ATOM     12  S   UNL     1       9.182  -3.064   4.829  0.00  0.00    +0.203 S 
ATOM     13  O   UNL     1       9.228  -3.329   6.224  0.00  0.00    -0.127 OA
ATOM     14  O   UNL     1       9.272  -4.095   3.854  0.00  0.00    -0.127 OA
BRANCH  12  15
ATOM     15  O   UNL     1      10.310  -2.087   4.534  0.00  0.00    -0.339 OA
BRANCH  15  16
ATOM     16  C   UNL     1      10.484  -1.138   5.491  0.00  0.00    +0.157 A 
ATOM     17  C   UNL     1       9.796   0.064   5.410  0.00  0.00    +0.048 A 
ATOM     18  C   UNL     1       9.973   1.027   6.385  0.00  0.00    +0.004 A 
ATOM     19  C   UNL     1      10.836   0.794   7.439  0.00  0.00    +0.000 A 
ATOM     20  C   UNL     1      11.523  -0.403   7.522  0.00  0.00    +0.004 A 
ATOM     21  C   UNL     1      11.345  -1.371   6.554  0.00  0.00    +0.048 A 
ENDBRANCH  15  16
ENDBRANCH  12  15
ENDBRANCH   9  12
ENDBRANCH   1   8
BRANCH   1  22
ATOM     22  C   UNL     1       5.460  -1.684   1.635  0.00  0.00    +0.114 C 
BRANCH  22  23
ATOM     23  C   UNL     1       5.220  -3.171   1.601  0.00  0.00    +0.006 A 
ATOM     24  C   UNL     1       4.328  -3.748   2.484  0.00  0.00    +0.008 A 
ATOM     25  C   UNL     1       4.107  -5.113   2.453  0.00  0.00    +0.001 A 
ATOM     26  C   UNL     1       4.778  -5.903   1.538  0.00  0.00    +0.004 A 
ATOM     27  C   UNL     1       5.670  -5.331   0.652  0.00  0.00    +0.046 A 
ATOM     28  C   UNL     1       5.889  -3.961   0.678  0.00  0.00    +0.121 A 
BRANCH  28  29
ATOM     29  O   UNL     1       6.763  -3.395  -0.196  0.00  0.00    -0.506 OA
ATOM     30  H   UNL     1       7.672  -3.351   0.129  0.00  0.00    +0.292 HD
ENDBRANCH  28  29
ENDBRANCH  22  23
BRANCH  22  31
ATOM     31  C   UNL     1       4.164  -0.959   1.377  0.00  0.00    +0.147 C 
ATOM     32  O   UNL     1       3.489  -0.581   2.304  0.00  0.00    -0.296 OA
BRANCH  31  33
ATOM     33  C   UNL     1       3.711  -0.707  -0.038  0.00  0.00    +0.110 C 
BRANCH  33  37
ATOM     34  C   UNL     1      -0.017   1.378   0.010  0.00  0.00    +0.000 A 
ATOM     35  C   UNL     1       1.171   2.086   0.002  0.00  0.00    +0.000 A 
ATOM     36  C   UNL     1       2.377   1.411  -0.013  0.00  0.00    +0.004 A 
ATOM     37  C   UNL     1       2.396   0.029  -0.020  0.00  0.00    -0.040 A 
ATOM     38  C   UNL     1       1.208  -0.679  -0.012  0.00  0.00    +0.004 A 
ATOM     39  C   UNL     1       0.002  -0.004   0.002  0.00  0.00    +0.000 A 
ENDBRANCH  33  37
ENDBRANCH  31  33
ENDBRANCH  22  31
ENDBRANCH   1  22
TORSDOF 11
