REMARK  Name = ZINC43139394
REMARK  7 active torsions:
REMARK  status: ('A' for Active; 'I' for Inactive)
REMARK    1  A    between atoms: C_1  and  O_2
REMARK    2  A    between atoms: O_2  and  C_3
REMARK    3  A    between atoms: C_6  and  C_9
REMARK    4  A    between atoms: C_9  and  C_11
REMARK    5  A    between atoms: C_9  and  N_23
REMARK    6  A    between atoms: C_11  and  N_12
REMARK    7  A    between atoms: C_19  and  O_22
REMARK                            x       y       z     vdW  Elec       q    Type
REMARK                         _______ _______ _______ _____ _____    ______ ____
ROOT
ATOM      1  C   UNL     1       2.695  -2.398   4.159  0.00  0.00    -0.020 C 
ENDROOT
BRANCH   1   2
ATOM      2  N   UNL     1       3.386  -3.484   3.451  0.00  0.00    +0.385 N 
ATOM      3  C   UNL     1       3.988  -4.398   4.429  0.00  0.00    -0.078 C 
ATOM      4  C   UNL     1       4.640  -5.575   3.700  0.00  0.00    -0.019 C 
ATOM      5  C   UNL     1       5.724  -5.047   2.757  0.00  0.00    -0.004 C 
ATOM      6  C   UNL     1       5.099  -4.038   1.789  0.00  0.00    -0.019 C 
ATOM      7  C   UNL     1       4.431  -2.918   2.589  0.00  0.00    -0.078 C 
ATOM      8  H   UNL     1       2.722  -3.991   2.885  0.00  0.00    -0.081 HD
ENDBRANCH   1   2
BRANCH   1  12
ATOM      9  C   UNL     1       0.788   0.165   1.320  0.00  0.00    +0.120 A 
ATOM     10  C   UNL     1       1.424   0.706   2.428  0.00  0.00    +0.046 A 
ATOM     11  C   UNL     1       2.039  -0.124   3.344  0.00  0.00    +0.005 A 
ATOM     12  C   UNL     1       2.023  -1.494   3.158  0.00  0.00    -0.059 A 
ATOM     13  C   UNL     1       1.391  -2.036   2.054  0.00  0.00    +0.005 A 
ATOM     14  C   UNL     1       0.768  -1.210   1.138  0.00  0.00    +0.046 A 
BRANCH   9  16
ATOM     15  C   UNL     1       0.242   2.385   0.668  0.00  0.00    +0.277 C 
ATOM     16  O   UNL     1       0.182   0.980   0.417  0.00  0.00    -0.495 OA
ENDBRANCH   9  16
ENDBRANCH   1  12
BRANCH   1  17
ATOM     17  C   UNL     1       1.643  -2.989   5.099  0.00  0.00    +0.095 C 
BRANCH  17  18
ATOM     18  N   UNL     1       0.998  -1.910   5.850  0.00  0.00    -0.300 N 
ATOM     19  C   UNL     1       0.102  -2.202   6.814  0.00  0.00    +0.302 C 
ATOM     20  O   UNL     1      -0.234  -3.355   7.003  0.00  0.00    -0.253 OA
ATOM     21  N   UNL     1      -0.421  -1.215   7.569  0.00  0.00    -0.283 N 
ATOM     22  C   UNL     1      -1.311  -1.527   8.696  0.00  0.00    +0.109 C 
ATOM     23  C   UNL     1      -0.767  -0.847   9.956  0.00  0.00    +0.022 C 
ATOM     24  C   UNL     1      -0.592   0.650   9.688  0.00  0.00    +0.034 C 
ATOM     25  C   UNL     1       0.417   0.853   8.556  0.00  0.00    +0.132 C 
ATOM     26  C   UNL     1      -0.109   0.192   7.283  0.00  0.00    +0.140 C 
ATOM     27  H   UNL     1       1.214  -0.985   5.653  0.00  0.00    +0.150 HD
BRANCH  25  28
ATOM     28  O   UNL     1       0.604   2.251   8.328  0.00  0.00    -0.390 OA
ATOM     29  H   UNL     1       1.232   2.454   7.622  0.00  0.00    +0.210 HD
ENDBRANCH  25  28
ENDBRANCH  17  18
ENDBRANCH   1  17
TORSDOF 6
