REMARK  Name = ZINC57733837
REMARK  3 active torsions:
REMARK  status: ('A' for Active; 'I' for Inactive)
REMARK    1  A    between atoms: C_3  and  S_9
REMARK    2  A    between atoms: S_9  and  N_12
REMARK    3  A    between atoms: N_12  and  C_13
REMARK                            x       y       z     vdW  Elec       q    Type
REMARK                         _______ _______ _______ _____ _____    ______ ____
ROOT
ATOM      1  N   UNL     1       4.667   1.989   1.402  0.00  0.00    -0.070 NA
ENDROOT
BRANCH   1   2
ATOM      2  C   UNL     1       5.892   2.567   1.671  0.00  0.00    +0.202 A 
ATOM      3  N   UNL     1       6.589   3.400   0.933  0.00  0.00    -0.219 NA
ATOM      4  C   UNL     1       7.786   3.891   1.327  0.00  0.00    +0.118 A 
ATOM      5  C   UNL     1       8.243   3.452   2.589  0.00  0.00    +0.047 A 
ATOM      6  S   UNL     1       6.927   2.380   3.115  0.00  0.00    -0.049 S 
ATOM      7  C   UNL     1       9.437   3.860   3.130  0.00  0.00    +0.058 A 
ATOM      8  C   UNL     1      10.243   4.738   2.425  0.00  0.00    +0.162 A 
ATOM      9  C   UNL     1       9.826   5.193   1.179  0.00  0.00    +0.196 A 
ATOM     10  C   UNL     1       8.632   4.788   0.632  0.00  0.00    +0.188 A 
ATOM     11  F   UNL     1       8.262   5.252  -0.581  0.00  0.00    -0.200 F 
ATOM     12  F   UNL     1      10.611   6.051   0.492  0.00  0.00    -0.199 F 
ATOM     13  F   UNL     1      11.420   5.150   2.944  0.00  0.00    -0.202 F 
ENDBRANCH   1   2
BRANCH   1  14
ATOM     14  S   UNL     1       3.890   2.319  -0.023  0.00  0.00    +0.096 S 
ATOM     15  O   UNL     1       4.688   1.764  -1.059  0.00  0.00    -0.148 OA
ATOM     16  O   UNL     1       3.540   3.696   0.015  0.00  0.00    -0.148 OA
BRANCH  14  19
ATOM     17  C   UNL     1      -0.017   1.380   0.010  0.00  0.00    +0.040 A 
ATOM     18  C   UNL     1       1.171   2.088   0.002  0.00  0.00    +0.034 A 
ATOM     19  C   UNL     1       2.377   1.415  -0.013  0.00  0.00    +0.146 A 
ATOM     20  C   UNL     1       2.399   0.030  -0.021  0.00  0.00    +0.153 A 
ATOM     21  C   UNL     1       1.210  -0.679  -0.014  0.00  0.00    +0.078 A 
ATOM     22  C   UNL     1       0.002  -0.004   0.002  0.00  0.00    +0.126 A 
ATOM     23  F   UNL     1      -1.158  -0.696   0.010  0.00  0.00    -0.205 F 
ATOM     24  F   UNL     1       3.579  -0.627  -0.037  0.00  0.00    -0.203 F 
ENDBRANCH  14  19
ENDBRANCH   1  14
TORSDOF 3
