REMARK  Name = ZINC21148625
REMARK  11 active torsions:
REMARK  status: ('A' for Active; 'I' for Inactive)
REMARK    1  A    between atoms: C_1  and  C_2
REMARK    2  A    between atoms: C_5  and  O_32
REMARK    3  A    between atoms: C_6  and  C_8
REMARK    4  A    between atoms: N_16  and  C_28
REMARK    5  A    between atoms: C_17  and  C_19
REMARK    6  A    between atoms: C_22  and  C_25
REMARK    7  A    between atoms: C_25  and  C_26
REMARK    8  A    between atoms: C_25  and  C_27
REMARK    9  A    between atoms: C_28  and  C_29
REMARK   10  A    between atoms: C_29  and  C_30
REMARK   11  A    between atoms: C_30  and  O_31
REMARK                            x       y       z     vdW  Elec       q    Type
REMARK                         _______ _______ _______ _____ _____    ______ ____
ROOT
ATOM      1  C   UNL     1       0.272  -2.913   2.866  0.00  0.00    +0.102 A 
ATOM      2  C   UNL     1       0.254  -4.312   2.823  0.00  0.00    +0.035 A 
ATOM      3  C   UNL     1       0.181  -4.728   4.139  0.00  0.00    +0.126 A 
ATOM      4  N   UNL     1       0.159  -3.591   4.896  0.00  0.00    -0.272 N 
ATOM      5  H   UNL     1       0.110  -3.568   5.865  0.00  0.00    +0.189 HD
ATOM      6  N   UNL     1       0.218  -2.557   4.135  0.00  0.00    -0.173 NA
ATOM      7  C   UNL     1       0.159  -6.195   4.163  0.00  0.00    +0.265 C 
ATOM      8  O   UNL     1       0.098  -6.872   5.172  0.00  0.00    -0.268 OA
ATOM      9  N   UNL     1       0.216  -6.685   2.912  0.00  0.00    -0.285 N 
ATOM     10  C   UNL     1       0.280  -5.555   1.977  0.00  0.00    +0.141 C 
ENDROOT
BRANCH   1  16
ATOM     11  C   UNL     1      -1.312  -1.568  -1.673  0.00  0.00    +0.044 C 
ATOM     12  C   UNL     1      -0.413  -1.349  -0.483  0.00  0.00    -0.050 A 
ATOM     13  C   UNL     1       0.482  -0.293  -0.481  0.00  0.00    +0.007 A 
ATOM     14  C   UNL     1       1.310  -0.084   0.605  0.00  0.00    +0.046 A 
ATOM     15  C   UNL     1       1.248  -0.933   1.699  0.00  0.00    +0.126 A 
ATOM     16  C   UNL     1       0.345  -1.999   1.700  0.00  0.00    +0.044 A 
ATOM     17  C   UNL     1      -0.489  -2.198   0.603  0.00  0.00    +0.017 A 
BRANCH  15  18
ATOM     18  O   UNL     1       2.063  -0.729   2.767  0.00  0.00    -0.506 OA
ATOM     19  H   UNL     1       1.714  -0.099   3.413  0.00  0.00    +0.292 HD
ENDBRANCH  15  18
ENDBRANCH   1  16
BRANCH  10  20
ATOM     20  C   UNL     1       1.557  -5.613   1.179  0.00  0.00    -0.022 A 
ATOM     21  C   UNL     1       2.748  -5.930   1.804  0.00  0.00    +0.006 A 
ATOM     22  C   UNL     1       3.920  -5.983   1.072  0.00  0.00    +0.004 A 
ATOM     23  C   UNL     1       3.900  -5.719  -0.285  0.00  0.00    -0.045 A 
ATOM     24  C   UNL     1       2.708  -5.403  -0.910  0.00  0.00    +0.004 A 
ATOM     25  C   UNL     1       1.536  -5.354  -0.179  0.00  0.00    +0.006 A 
BRANCH  23  26
ATOM     26  C   UNL     1       5.177  -5.776  -1.083  0.00  0.00    +0.013 C 
ATOM     27  C   UNL     1       5.045  -6.832  -2.182  0.00  0.00    +0.012 C 
ATOM     28  C   UNL     1       5.444  -4.410  -1.717  0.00  0.00    +0.012 C 
ENDBRANCH  23  26
ENDBRANCH  10  20
BRANCH   9  29
ATOM     29  C   UNL     1       0.214  -8.104   2.545  0.00  0.00    +0.111 C 
BRANCH  29  30
ATOM     30  C   UNL     1      -1.227  -8.576   2.344  0.00  0.00    +0.047 C 
BRANCH  30  31
ATOM     31  C   UNL     1      -1.230 -10.057   1.960  0.00  0.00    +0.157 C 
BRANCH  31  32
ATOM     32  O   UNL     1      -2.575 -10.499   1.772  0.00  0.00    -0.395 OA
ATOM     33  H   UNL     1      -2.653 -11.431   1.527  0.00  0.00    +0.209 HD
ENDBRANCH  31  32
ENDBRANCH  30  31
ENDBRANCH  29  30
ENDBRANCH   9  29
TORSDOF 8
