REMARK  Name = ZINC16649026
REMARK  4 active torsions:
REMARK  status: ('A' for Active; 'I' for Inactive)
REMARK    1  A    between atoms: C_1  and  C_2
REMARK    2  A    between atoms: C_9  and  C_11
REMARK    3  A    between atoms: C_11  and  C_12
REMARK    4  A    between atoms: C_17  and  C_20
REMARK                            x       y       z     vdW  Elec       q    Type
REMARK                         _______ _______ _______ _____ _____    ______ ____
ROOT
ATOM      1  C   UNL     1      -1.725  -1.734   2.738  0.00  0.00    +0.105 C 
ATOM      2  C   UNL     1      -1.622  -3.216   2.368  0.00  0.00    +0.158 C 
ATOM      3  N   UNL     1      -0.247  -3.665   2.598  0.00  0.00    -0.249 N 
ATOM      4  C   UNL     1       0.551  -3.116   3.552  0.00  0.00    +0.131 A 
ATOM      5  C   UNL     1       1.761  -3.759   3.498  0.00  0.00    +0.042 A 
ATOM      6  C   UNL     1       1.672  -4.726   2.474  0.00  0.00    +0.144 A 
ATOM      7  N   UNL     1       0.475  -4.660   1.948  0.00  0.00    -0.177 NA
ATOM      8  N   UNL     1       0.114  -2.087   4.382  0.00  0.00    -0.270 N 
ATOM      9  C   UNL     1      -1.025  -1.445   4.036  0.00  0.00    +0.224 C 
ATOM     10  O   UNL     1      -1.492  -0.618   4.790  0.00  0.00    -0.275 OA
ATOM     11  H   UNL     1       0.608  -1.841   5.179  0.00  0.00    +0.156 HD
ENDROOT
BRANCH   5  12
ATOM     12  C   UNL     1       2.941  -3.489   4.356  0.00  0.00    -0.013 A 
ATOM     13  C   UNL     1       3.409  -2.185   4.511  0.00  0.00    +0.010 A 
ATOM     14  C   UNL     1       4.503  -1.938   5.314  0.00  0.00    +0.020 A 
ATOM     15  C   UNL     1       5.144  -2.985   5.956  0.00  0.00    +0.041 A 
ATOM     16  C   UNL     1       4.686  -4.282   5.801  0.00  0.00    +0.020 A 
ATOM     17  C   UNL     1       3.589  -4.538   5.004  0.00  0.00    +0.010 A 
ATOM     18 CL   UNL     1       6.524  -2.669   6.960  0.00  0.00    -0.084 Cl
ENDBRANCH   5  12
BRANCH   1  19
ATOM     19  C   UNL     1      -1.088  -0.896   1.628  0.00  0.00    +0.110 C 
BRANCH  19  27
ATOM     20  C   UNL     1      -1.796   3.109   2.641  0.00  0.00    +0.028 C 
ATOM     21  C   UNL     1      -0.952   2.929   1.378  0.00  0.00    +0.073 C 
ATOM     22  C   UNL     1      -1.629   3.643   0.203  0.00  0.00    +0.022 C 
ATOM     23  C   UNL     1      -0.856   3.343  -1.084  0.00  0.00    +0.003 C 
ATOM     24  C   UNL     1      -0.877   1.837  -1.356  0.00  0.00    +0.019 C 
ATOM     25  C   UNL     1      -0.192   1.104  -0.198  0.00  0.00    +0.108 C 
ATOM     26  N   UNL     1      -0.835   1.499   1.062  0.00  0.00    -0.299 N 
ATOM     27  C   UNL     1      -1.312   0.567   1.911  0.00  0.00    +0.217 C 
ATOM     28  O   UNL     1      -1.921   0.906   2.904  0.00  0.00    -0.276 OA
ENDBRANCH  19  27
ENDBRANCH   1  19
TORSDOF 3
