REMARK  Name = ZINC36660363
REMARK  10 active torsions:
REMARK  status: ('A' for Active; 'I' for Inactive)
REMARK    1  A    between atoms: C_1  and  C_2
REMARK    2  A    between atoms: C_2  and  N_3
REMARK    3  A    between atoms: N_3  and  C_4
REMARK    4  A    between atoms: N_3  and  C_6
REMARK    5  A    between atoms: C_4  and  C_5
REMARK    6  A    between atoms: C_6  and  C_7
REMARK    7  A    between atoms: C_7  and  N_8
REMARK    8  A    between atoms: C_19  and  C_21
REMARK    9  A    between atoms: N_26  and  S_27
REMARK   10  A    between atoms: S_27  and  C_30
REMARK                            x       y       z     vdW  Elec       q    Type
REMARK                         _______ _______ _______ _____ _____    ______ ____
ROOT
ATOM      1  N   UNL     1      -0.650  -3.682  -1.952  0.00  0.00    -0.251 N 
ATOM      2  C   UNL     1      -0.392  -4.436  -0.819  0.00  0.00    +0.168 A 
ATOM      3  N   UNL     1      -0.309  -4.043   0.431  0.00  0.00    -0.221 NA
ATOM      4  C   UNL     1      -0.048  -4.896   1.445  0.00  0.00    +0.115 A 
ATOM      5  C   UNL     1       0.067  -4.604   2.826  0.00  0.00    +0.150 A 
ATOM      6  C   UNL     1       0.339  -5.599   3.732  0.00  0.00    +0.040 A 
ATOM      7  C   UNL     1       0.509  -6.916   3.332  0.00  0.00    +0.004 A 
ATOM      8  C   UNL     1       0.403  -7.237   1.991  0.00  0.00    +0.017 A 
ATOM      9  C   UNL     1       0.131  -6.248   1.077  0.00  0.00    +0.044 A 
ATOM     10  S   UNL     1      -0.093  -6.193  -0.685  0.00  0.00    -0.052 S 
ATOM     11  F   UNL     1      -0.091  -3.333   3.255  0.00  0.00    -0.203 F 
ATOM     12  C   UNL     1      -0.810  -4.290  -3.144  0.00  0.00    +0.240 C 
ATOM     13  O   UNL     1      -0.943  -3.627  -4.150  0.00  0.00    -0.273 OA
ENDROOT
BRANCH  12  14
ATOM     14  C   UNL     1      -0.822  -5.795  -3.227  0.00  0.00    +0.166 C 
ATOM     15  C   UNL     1      -2.119  -6.345  -2.597  0.00  0.00    +0.031 C 
ATOM     16  C   UNL     1      -3.036  -6.567  -3.829  0.00  0.00    +0.019 C 
ATOM     17  C   UNL     1      -2.013  -7.022  -4.900  0.00  0.00    +0.110 C 
ATOM     18  N   UNL     1      -0.802  -6.219  -4.635  0.00  0.00    -0.165 NA
BRANCH  18  19
ATOM     19  S   UNL     1       0.379  -5.853  -5.736  0.00  0.00    +0.062 S 
ATOM     20  O   UNL     1      -0.222  -5.945  -7.021  0.00  0.00    -0.153 OA
ATOM     21  O   UNL     1       1.012  -4.667  -5.275  0.00  0.00    -0.153 OA
BRANCH  19  22
ATOM     22  C   UNL     1       1.585  -7.134  -5.651  0.00  0.00    +0.106 A 
ATOM     23  C   UNL     1       2.648  -7.025  -4.774  0.00  0.00    +0.031 A 
ATOM     24  C   UNL     1       3.595  -8.029  -4.706  0.00  0.00    +0.040 A 
ATOM     25  C   UNL     1       3.479  -9.145  -5.517  0.00  0.00    +0.124 A 
ATOM     26  C   UNL     1       2.414  -9.254  -6.395  0.00  0.00    +0.040 A 
ATOM     27  C   UNL     1       1.465  -8.251  -6.457  0.00  0.00    +0.031 A 
ATOM     28  F   UNL     1       4.404 -10.128  -5.452  0.00  0.00    -0.205 F 
ENDBRANCH  19  22
ENDBRANCH  18  19
ENDBRANCH  12  14
BRANCH   1  29
ATOM     29  C   UNL     1      -0.751  -2.224  -1.855  0.00  0.00    +0.097 C 
BRANCH  29  30
ATOM     30  C   UNL     1       0.631  -1.602  -2.068  0.00  0.00    -0.059 C 
BRANCH  30  31
ATOM     31  N   UNL     1       0.530  -0.140  -1.970  0.00  0.00    +0.380 N 
ATOM     32  H   UNL     1      -0.166   0.194  -2.620  0.00  0.00    -0.082 HD
BRANCH  31  34
ATOM     33  C   UNL     1      -0.101   1.743  -0.537  0.00  0.00    -0.017 C 
ATOM     34  C   UNL     1       0.143   0.234  -0.603  0.00  0.00    -0.082 C 
ENDBRANCH  31  34
BRANCH  31  35
ATOM     35  C   UNL     1       1.830   0.463  -2.293  0.00  0.00    -0.082 C 
ATOM     36  C   UNL     1       2.166   0.195  -3.761  0.00  0.00    -0.017 C 
ENDBRANCH  31  35
ENDBRANCH  30  31
ENDBRANCH  29  30
ENDBRANCH   1  29
TORSDOF 8
