REMARK  Name = ZINC36062816
REMARK  3 active torsions:
REMARK  status: ('A' for Active; 'I' for Inactive)
REMARK    1  A    between atoms: C_3  and  N_18
REMARK    2  A    between atoms: C_4  and  N_8
REMARK    3  A    between atoms: C_9  and  C_11
REMARK                            x       y       z     vdW  Elec       q    Type
REMARK                         _______ _______ _______ _____ _____    ______ ____
ROOT
ATOM      1  C   UNL     1       0.012   1.630   0.047  0.00  0.00    +0.022 A 
ATOM      2  C   UNL     1       1.144   1.980   0.759  0.00  0.00    +0.031 A 
ATOM      3  C   UNL     1       2.274   1.179   0.704  0.00  0.00    +0.088 A 
ATOM      4  C   UNL     1       2.265   0.020  -0.071  0.00  0.00    +0.061 A 
ATOM      5  C   UNL     1       1.126  -0.326  -0.782  0.00  0.00    +0.045 A 
ATOM      6  C   UNL     1       0.003   0.479  -0.722  0.00  0.00    +0.043 A 
ATOM      7 CL   UNL     1      -1.422   0.045  -1.613  0.00  0.00    -0.083 Cl
ENDROOT
BRANCH   3   8
ATOM      8  N   UNL     1       3.424   1.535   1.425  0.00  0.00    -0.218 N 
ATOM      9  C   UNL     1       3.615   2.664   2.134  0.00  0.00    +0.225 A 
ATOM     10  N   UNL     1       4.814   2.615   2.657  0.00  0.00    -0.222 NA
ATOM     11  C   UNL     1       5.415   1.479   2.307  0.00  0.00    +0.245 A 
ATOM     12  N   UNL     1       4.601   0.781   1.558  0.00  0.00    -0.153 NA
ENDBRANCH   3   8
BRANCH   4  13
ATOM     13  N   UNL     1       3.404  -0.793  -0.130  0.00  0.00    -0.283 N 
ATOM     14  C   UNL     1       3.273  -2.125  -0.285  0.00  0.00    +0.221 C 
ATOM     15  O   UNL     1       2.175  -2.611  -0.457  0.00  0.00    -0.275 OA
ATOM     16  H   UNL     1       4.287  -0.397  -0.061  0.00  0.00    +0.155 HD
BRANCH  14  17
ATOM     17  C   UNL     1       4.491  -3.011  -0.245  0.00  0.00    +0.079 C 
ATOM     18  C   UNL     1       4.073  -4.472  -0.455  0.00  0.00    +0.017 C 
ATOM     19  C   UNL     1       5.298  -5.363  -0.232  0.00  0.00    +0.027 C 
ATOM     20  C   UNL     1       6.465  -4.843  -1.019  0.00  0.00    -0.031 C 
ATOM     21  C   UNL     1       6.534  -3.647  -1.509  0.00  0.00    -0.030 C 
ATOM     22  C   UNL     1       5.455  -2.613  -1.365  0.00  0.00    +0.039 C 
ENDBRANCH  14  17
ENDBRANCH   4  13
TORSDOF 3
