REMARK  Name = ZINC20758630
REMARK  5 active torsions:
REMARK  status: ('A' for Active; 'I' for Inactive)
REMARK    1  A    between atoms: C_1  and  C_2
REMARK    2  A    between atoms: C_2  and  C_3
REMARK    3  A    between atoms: C_2  and  C_4
REMARK    4  A    between atoms: N_12  and  C_15
REMARK    5  A    between atoms: C_15  and  C_16
REMARK                            x       y       z     vdW  Elec       q    Type
REMARK                         _______ _______ _______ _____ _____    ______ ____
ROOT
ATOM      1  C   UNL     1       0.722  -0.511  -1.250  0.00  0.00    +0.070 C 
ATOM      2  C   UNL     1       0.607  -2.047  -1.350  0.00  0.00    +0.107 C 
ATOM      3  C   UNL     1       0.431  -2.336  -2.867  0.00  0.00    +0.122 C 
ATOM      4  C   UNL     1      -0.961  -2.923  -2.949  0.00  0.00    +0.228 C 
ATOM      5  O   UNL     1      -1.502  -3.301  -3.966  0.00  0.00    -0.275 OA
ATOM      6  N   UNL     1      -1.501  -2.959  -1.726  0.00  0.00    -0.239 N 
ATOM      7  C   UNL     1      -0.703  -2.491  -0.740  0.00  0.00    +0.227 C 
ATOM      8  O   UNL     1      -0.983  -2.432   0.438  0.00  0.00    -0.275 OA
ATOM      9  C   UNL     1       0.462  -0.953  -3.529  0.00  0.00    +0.136 C 
ATOM     10  N   UNL     1       0.055   0.005  -2.474  0.00  0.00    -0.295 NA
ATOM     11  C   UNL     1      -0.467  -0.883  -4.707  0.00  0.00    +0.003 A 
ATOM     12  C   UNL     1      -1.823  -1.068  -4.857  0.00  0.00    +0.008 A 
ATOM     13  C   UNL     1      -2.407  -0.932  -6.105  0.00  0.00    +0.000 A 
ATOM     14  C   UNL     1      -1.625  -0.610  -7.199  0.00  0.00    +0.002 A 
ATOM     15  C   UNL     1      -0.266  -0.425  -7.053  0.00  0.00    +0.023 A 
ATOM     16  C   UNL     1       0.330  -0.560  -5.801  0.00  0.00    +0.039 A 
ATOM     17  N   UNL     1       1.662  -0.425  -5.405  0.00  0.00    -0.283 N 
ATOM     18  C   UNL     1       1.824  -0.641  -4.086  0.00  0.00    +0.243 C 
ATOM     19  O   UNL     1       2.866  -0.593  -3.466  0.00  0.00    -0.273 OA
ATOM     20  H   UNL     1      -0.948   0.025  -2.359  0.00  0.00    +0.124 HD
ATOM     21  H   UNL     1       2.387  -0.202  -6.010  0.00  0.00    +0.155 HD
ENDROOT
BRANCH   1  23
ATOM     22  C   UNL     1       0.777  -0.439   1.247  0.00  0.00    +0.009 C 
ATOM     23  C   UNL     1       0.002  -0.004   0.002  0.00  0.00    +0.001 C 
ATOM     24  C   UNL     1      -0.079   1.523  -0.040  0.00  0.00    +0.009 C 
ENDBRANCH   1  23
BRANCH   6  25
ATOM     25  C   UNL     1      -2.850  -3.472  -1.471  0.00  0.00    +0.148 C 
BRANCH  25  26
ATOM     26  C   UNL     1      -2.779  -4.973  -1.183  0.00  0.00    +0.136 C 
ATOM     27  C   UNL     1      -4.200  -5.543  -0.945  0.00  0.00    +0.035 C 
ATOM     28  C   UNL     1      -3.986  -7.035  -1.322  0.00  0.00    +0.031 C 
ATOM     29  C   UNL     1      -2.946  -6.940  -2.458  0.00  0.00    +0.160 C 
ATOM     30  O   UNL     1      -2.277  -5.678  -2.330  0.00  0.00    -0.375 OA
ENDBRANCH  25  26
ENDBRANCH   6  25
TORSDOF 3
