REMARK  Name = ZINC48758905
REMARK  4 active torsions:
REMARK  status: ('A' for Active; 'I' for Inactive)
REMARK    1  A    between atoms: C_3  and  O_12
REMARK    2  A    between atoms: C_6  and  S_7
REMARK    3  A    between atoms: S_7  and  N_10
REMARK    4  A    between atoms: O_12  and  C_13
REMARK                            x       y       z     vdW  Elec       q    Type
REMARK                         _______ _______ _______ _____ _____    ______ ____
ROOT
ATOM      1  C   UNL     1      -0.008   1.338  -0.019  0.00  0.00    +0.032 A 
ATOM      2  C   UNL     1       1.170   2.060  -0.029  0.00  0.00    +0.050 A 
ATOM      3  C   UNL     1       2.388   1.398  -0.011  0.00  0.00    +0.147 A 
ATOM      4  C   UNL     1       2.420   0.009   0.018  0.00  0.00    +0.085 A 
ATOM      5  C   UNL     1       1.239  -0.708   0.028  0.00  0.00    +0.052 A 
ATOM      6  C   UNL     1       0.026  -0.043   0.010  0.00  0.00    +0.107 A 
ATOM      7 CL   UNL     1       3.943  -0.824   0.041  0.00  0.00    -0.080 Cl
ENDROOT
BRANCH   6   8
ATOM      8  S   UNL     1      -1.479  -0.960   0.023  0.00  0.00    +0.056 S 
ATOM      9  O   UNL     1      -1.180  -2.224   0.601  0.00  0.00    -0.153 OA
ATOM     10  O   UNL     1      -2.476  -0.097   0.552  0.00  0.00    -0.153 OA
BRANCH   8  11
ATOM     11  N   UNL     1      -1.891  -1.248  -1.555  0.00  0.00    -0.204 NA
ATOM     12  H   UNL     1      -1.325  -0.919  -2.272  0.00  0.00    +0.144 HD
ATOM     13  H   UNL     1      -2.697  -1.744  -1.763  0.00  0.00    +0.144 HD
ENDBRANCH   8  11
ENDBRANCH   6   8
BRANCH   3  14
ATOM     14  O   UNL     1       3.548   2.106  -0.021  0.00  0.00    -0.453 OA
BRANCH  14  15
ATOM     15  C   UNL     1       4.192   2.259  -1.208  0.00  0.00    +0.147 A 
ATOM     16  C   UNL     1       3.604   1.804  -2.380  0.00  0.00    +0.049 A 
ATOM     17  C   UNL     1       4.260   1.961  -3.586  0.00  0.00    +0.023 A 
ATOM     18  C   UNL     1       5.501   2.571  -3.627  0.00  0.00    +0.043 A 
ATOM     19  C   UNL     1       6.090   3.025  -2.459  0.00  0.00    +0.043 A 
ATOM     20  C   UNL     1       5.435   2.875  -1.251  0.00  0.00    +0.085 A 
ATOM     21 CL   UNL     1       6.170   3.451   0.212  0.00  0.00    -0.080 Cl
ATOM     22 CL   UNL     1       6.322   2.767  -5.144  0.00  0.00    -0.083 Cl
ENDBRANCH  14  15
ENDBRANCH   3  14
TORSDOF 4
