REMARK  Name = ZINC35526820
REMARK  8 active torsions:
REMARK  status: ('A' for Active; 'I' for Inactive)
REMARK    1  A    between atoms: C_1  and  C_2
REMARK    2  A    between atoms: C_7  and  C_8
REMARK    3  A    between atoms: C_8  and  N_9
REMARK    4  A    between atoms: C_10  and  C_12
REMARK    5  A    between atoms: C_12  and  C_24
REMARK    6  A    between atoms: N_20  and  C_21
REMARK    7  A    between atoms: C_21  and  C_22
REMARK    8  A    between atoms: C_21  and  C_23
REMARK                            x       y       z     vdW  Elec       q    Type
REMARK                         _______ _______ _______ _____ _____    ______ ____
ROOT
ATOM      1  C   UNL     1      -2.983   1.607   4.283  0.00  0.00    +0.060 C 
ATOM      2  C   UNL     1      -2.981   2.368   5.611  0.00  0.00    +0.019 C 
ATOM      3  C   UNL     1      -4.409   2.792   5.960  0.00  0.00    +0.020 C 
ATOM      4  C   UNL     1      -4.942   3.726   4.869  0.00  0.00    +0.109 C 
ATOM      5  N   UNL     1      -4.813   3.056   3.568  0.00  0.00    -0.285 N 
ATOM      6  C   UNL     1      -3.500   2.528   3.173  0.00  0.00    +0.125 C 
ATOM      7  C   UNL     1      -5.878   2.926   2.753  0.00  0.00    +0.302 C 
ATOM      8  O   UNL     1      -5.740   2.452   1.642  0.00  0.00    -0.253 OA
ATOM      9  N   UNL     1      -7.097   3.323   3.170  0.00  0.00    -0.297 N 
ATOM     10  C   UNL     1      -3.894   0.384   4.396  0.00  0.00    +0.022 C 
ATOM     11  H   UNL     1      -7.196   3.768   4.026  0.00  0.00    +0.150 HD
ENDROOT
BRANCH   1  13
ATOM     12  N   UNL     1      -1.340   0.473   2.823  0.00  0.00    -0.311 N 
ATOM     13  C   UNL     1      -1.581   1.163   3.956  0.00  0.00    +0.221 C 
ATOM     14  O   UNL     1      -0.670   1.425   4.712  0.00  0.00    -0.275 OA
ATOM     15  H   UNL     1      -2.069   0.263   2.218  0.00  0.00    +0.149 HD
BRANCH  12  16
ATOM     16  C   UNL     1       0.023   0.040   2.505  0.00  0.00    +0.139 C 
BRANCH  16  23
ATOM     17  C   UNL     1      -0.018   1.500   0.012  0.00  0.00    +0.044 C 
ATOM     18  C   UNL     1       0.001  -0.007   0.003  0.00  0.00    -0.046 A 
ATOM     19  C   UNL     1       0.005  -0.691  -1.199  0.00  0.00    +0.003 A 
ATOM     20  C   UNL     1       0.022  -2.073  -1.208  0.00  0.00    +0.000 A 
ATOM     21  C   UNL     1       0.037  -2.771  -0.015  0.00  0.00    +0.000 A 
ATOM     22  C   UNL     1       0.034  -2.088   1.187  0.00  0.00    +0.005 A 
ATOM     23  C   UNL     1       0.021  -0.705   1.195  0.00  0.00    -0.027 A 
ENDBRANCH  16  23
ENDBRANCH  12  16
ENDBRANCH   1  13
BRANCH   9  24
ATOM     24  C   UNL     1      -8.273   3.081   2.330  0.00  0.00    +0.068 C 
ATOM     25  C   UNL     1      -8.805   1.670   2.591  0.00  0.00    +0.027 C 
ATOM     26  C   UNL     1      -9.359   4.105   2.666  0.00  0.00    +0.027 C 
ENDBRANCH   9  24
TORSDOF 4
