REMARK  Name = ZINC11784757
REMARK  10 active torsions:
REMARK  status: ('A' for Active; 'I' for Inactive)
REMARK    1  A    between atoms: C_1  and  C_2
REMARK    2  A    between atoms: C_4  and  C_10
REMARK    3  A    between atoms: C_7  and  O_8
REMARK    4  A    between atoms: O_8  and  C_9
REMARK    5  A    between atoms: C_10  and  N_62
REMARK    6  A    between atoms: C_12  and  S_26
REMARK    7  A    between atoms: C_15  and  C_17
REMARK    8  A    between atoms: N_19  and  C_20
REMARK    9  A    between atoms: C_20  and  C_21
REMARK   10  A    between atoms: S_26  and  C_27
REMARK                            x       y       z     vdW  Elec       q    Type
REMARK                         _______ _______ _______ _____ _____    ______ ____
ROOT
ATOM      1  C   UNL     1      -2.034   0.912  -1.322  0.00  0.00    -0.063 C 
ATOM      2  C   UNL     1      -2.063   0.243  -2.712  0.00  0.00    +0.037 C 
ATOM      3  C   UNL     1      -0.993   1.038  -3.505  0.00  0.00    +0.006 C 
ATOM      4  C   UNL     1       0.064   1.321  -2.408  0.00  0.00    +0.021 C 
ATOM      5  N   UNL     1      -0.729   1.586  -1.194  0.00  0.00    +0.391 N 
ATOM      6  H   UNL     1      -0.877   2.598  -1.099  0.00  0.00    -0.080 HD
ENDROOT
BRANCH   4   7
ATOM      7  C   UNL     1       0.879   2.537  -2.767  0.00  0.00    +0.200 C 
ATOM      8  O   UNL     1       0.822   3.531  -2.074  0.00  0.00    -0.278 OA
ATOM      9  N   UNL     1       1.672   2.519  -3.857  0.00  0.00    -0.313 N 
ATOM     10  H   UNL     1       1.717   1.724  -4.410  0.00  0.00    +0.149 HD
BRANCH   9  11
ATOM     11  C   UNL     1       2.464   3.701  -4.205  0.00  0.00    +0.140 C 
BRANCH  11  12
ATOM     12  C   UNL     1       3.257   3.423  -5.456  0.00  0.00    -0.023 A 
ATOM     13  C   UNL     1       2.725   3.704  -6.700  0.00  0.00    +0.013 A 
ATOM     14  C   UNL     1       3.464   3.442  -7.806  0.00  0.00    +0.045 A 
ATOM     15  S   UNL     1       4.963   2.778  -7.099  0.00  0.00    -0.105 S 
ATOM     16  C   UNL     1       4.505   2.900  -5.378  0.00  0.00    +0.050 A 
ENDBRANCH  11  12
ENDBRANCH   9  11
ENDBRANCH   4   7
BRANCH   5  17
ATOM     17  C   UNL     1      -0.013   1.086   0.008  0.00  0.00    -0.042 C 
BRANCH  17  21
ATOM     18  C   UNL     1      -3.459   0.416   3.573  0.00  0.00    +0.047 C 
ATOM     19  C   UNL     1      -2.368   1.250   2.954  0.00  0.00    -0.009 A 
ATOM     20  C   UNL     1      -1.719   0.807   1.817  0.00  0.00    +0.008 A 
ATOM     21  C   UNL     1      -0.718   1.572   1.248  0.00  0.00    -0.063 A 
ATOM     22  C   UNL     1      -0.359   2.780   1.818  0.00  0.00    +0.005 A 
ATOM     23  C   UNL     1      -1.008   3.230   2.951  0.00  0.00    +0.046 A 
ATOM     24  C   UNL     1      -2.013   2.464   3.524  0.00  0.00    +0.123 A 
BRANCH  24  25
ATOM     25  O   UNL     1      -2.649   2.902   4.642  0.00  0.00    -0.495 OA
ATOM     26  C   UNL     1      -2.232   4.161   5.174  0.00  0.00    +0.277 C 
ENDBRANCH  24  25
ENDBRANCH  17  21
ENDBRANCH   5  17
BRANCH   2  27
ATOM     27  S   UNL     1      -3.693   0.425  -3.476  0.00  0.00    -0.086 S 
BRANCH  27  28
ATOM     28  C   UNL     1      -4.628  -0.679  -2.471  0.00  0.00    +0.167 A 
ATOM     29  N   UNL     1      -5.963  -0.934  -2.614  0.00  0.00    -0.333 N 
ATOM     30  H   UNL     1      -6.573  -0.533  -3.298  0.00  0.00    +0.168 HD
ATOM     31  C   UNL     1      -6.314  -1.851  -1.637  0.00  0.00    +0.067 A 
ATOM     32  C   UNL     1      -7.501  -2.476  -1.288  0.00  0.00    +0.028 A 
ATOM     33  C   UNL     1      -7.524  -3.366  -0.234  0.00  0.00    +0.002 A 
ATOM     34  C   UNL     1      -6.367  -3.639   0.481  0.00  0.00    +0.002 A 
ATOM     35  C   UNL     1      -5.179  -3.027   0.148  0.00  0.00    +0.030 A 
ATOM     36  C   UNL     1      -5.139  -2.123  -0.917  0.00  0.00    +0.090 A 
ATOM     37  N   UNL     1      -4.146  -1.384  -1.476  0.00  0.00    -0.222 NA
ENDBRANCH  27  28
ENDBRANCH   2  27
TORSDOF 8
