REMARK  Name = ZINC14506862
REMARK  9 active torsions:
REMARK  status: ('A' for Active; 'I' for Inactive)
REMARK    1  A    between atoms: C_1  and  O_2
REMARK    2  A    between atoms: O_2  and  C_3
REMARK    3  A    between atoms: C_3  and  C_4
REMARK    4  A    between atoms: C_4  and  N_5
REMARK    5  A    between atoms: C_6  and  N_34
REMARK    6  A    between atoms: C_7  and  N_14
REMARK    7  A    between atoms: N_14  and  C_15
REMARK    8  A    between atoms: C_15  and  C_16
REMARK    9  A    between atoms: C_22  and  C_24
REMARK                            x       y       z     vdW  Elec       q    Type
REMARK                         _______ _______ _______ _____ _____    ______ ____
ROOT
ATOM      1  N   UNL     1       4.033  -1.016  -1.412  0.00  0.00    -0.255 N 
ATOM      2  C   UNL     1       3.568  -2.160  -1.952  0.00  0.00    +0.270 C 
ATOM      3  O   UNL     1       3.810  -2.427  -3.113  0.00  0.00    -0.268 OA
ENDROOT
BRANCH   2   4
ATOM      4  C   UNL     1       2.762  -3.093  -1.130  0.00  0.00    +0.127 A 
ATOM      5  C   UNL     1       2.344  -4.312  -1.686  0.00  0.00    +0.033 A 
ATOM      6  C   UNL     1       1.607  -5.182  -0.937  0.00  0.00    +0.012 A 
ATOM      7  C   UNL     1       1.277  -4.814   0.381  0.00  0.00    +0.000 A 
ATOM      8  C   UNL     1       0.516  -5.658   1.205  0.00  0.00    +0.010 A 
ATOM      9  C   UNL     1       0.216  -5.269   2.474  0.00  0.00    +0.001 A 
ATOM     10  C   UNL     1       0.655  -4.042   2.970  0.00  0.00    +0.002 A 
ATOM     11  C   UNL     1       1.395  -3.198   2.201  0.00  0.00    +0.028 A 
ATOM     12  C   UNL     1       1.726  -3.564   0.882  0.00  0.00    +0.072 A 
ATOM     13  N   UNL     1       2.449  -2.757   0.107  0.00  0.00    -0.242 NA
ENDBRANCH   2   4
BRANCH   1  16
ATOM     14  N   UNL     1       7.018   0.826  -2.503  0.00  0.00    -0.278 N 
ATOM     15  C   UNL     1       6.202   0.009  -1.756  0.00  0.00    +0.127 A 
ATOM     16  C   UNL     1       4.895  -0.185  -2.156  0.00  0.00    +0.140 A 
ATOM     17  C   UNL     1       4.439   0.456  -3.324  0.00  0.00    +0.277 A 
ATOM     18  O   UNL     1       3.291   0.298  -3.703  0.00  0.00    -0.266 OA
ATOM     19  N   UNL     1       5.279   1.251  -4.016  0.00  0.00    -0.273 N 
ATOM     20  H   UNL     1       4.954   1.714  -4.840  0.00  0.00    +0.173 HD
ATOM     21  C   UNL     1       6.549   1.428  -3.611  0.00  0.00    +0.331 A 
ATOM     22  O   UNL     1       7.287   2.146  -4.257  0.00  0.00    -0.246 OA
BRANCH  15  23
ATOM     23  N   UNL     1       6.681  -0.606  -0.624  0.00  0.00    -0.343 N 
ATOM     24  H   UNL     1       6.124  -1.238  -0.143  0.00  0.00    +0.144 HD
ATOM     25  H   UNL     1       7.575  -0.407  -0.306  0.00  0.00    +0.144 HD
ENDBRANCH  15  23
BRANCH  14  26
ATOM     26  C   UNL     1       8.407   1.041  -2.090  0.00  0.00    +0.156 C 
BRANCH  26  27
ATOM     27  C   UNL     1       9.301  -0.019  -2.737  0.00  0.00    +0.181 C 
BRANCH  27  29
ATOM     28  C   UNL     1      10.106  -0.788  -4.860  0.00  0.00    +0.194 C 
ATOM     29  O   UNL     1       9.297   0.156  -4.155  0.00  0.00    -0.381 OA
ENDBRANCH  27  29
ENDBRANCH  26  27
ENDBRANCH  14  26
ENDBRANCH   1  16
BRANCH   1  30
ATOM     30  C   UNL     1       3.643  -0.636  -0.052  0.00  0.00    +0.149 C 
BRANCH  30  31
ATOM     31  C   UNL     1       2.374   0.176  -0.102  0.00  0.00    -0.030 A 
ATOM     32  C   UNL     1       1.149  -0.461  -0.167  0.00  0.00    +0.005 A 
ATOM     33  C   UNL     1      -0.015   0.284  -0.212  0.00  0.00    +0.000 A 
ATOM     34  C   UNL     1       0.046   1.665  -0.194  0.00  0.00    +0.000 A 
ATOM     35  C   UNL     1       1.272   2.301  -0.129  0.00  0.00    +0.000 A 
ATOM     36  C   UNL     1       2.436   1.557  -0.083  0.00  0.00    +0.005 A 
ENDBRANCH  30  31
ENDBRANCH   1  30
TORSDOF 8
