REMARK  Name = ZINC21238059
REMARK  8 active torsions:
REMARK  status: ('A' for Active; 'I' for Inactive)
REMARK    1  A    between atoms: C_1  and  C_2
REMARK    2  A    between atoms: C_5  and  C_8
REMARK    3  A    between atoms: C_13  and  C_18
REMARK    4  A    between atoms: C_21  and  O_24
REMARK    5  A    between atoms: O_24  and  C_25
REMARK    6  A    between atoms: C_25  and  C_26
REMARK    7  A    between atoms: C_26  and  C_27
REMARK    8  A    between atoms: C_26  and  C_28
REMARK                            x       y       z     vdW  Elec       q    Type
REMARK                         _______ _______ _______ _____ _____    ______ ____
ROOT
ATOM      1  C   UNL     1      -1.293  -0.775   0.011  0.00  0.00    +0.136 C 
ATOM      2  C   UNL     1      -1.718  -1.011  -1.418  0.00  0.00    +0.036 C 
ATOM      3  C   UNL     1      -1.715  -2.195  -2.057  0.00  0.00    +0.017 C 
ATOM      4  C   UNL     1      -2.183  -2.295  -3.498  0.00  0.00    +0.059 C 
ATOM      5  C   UNL     1      -1.863  -1.000  -4.243  0.00  0.00    +0.032 C 
ATOM      6  C   UNL     1      -2.585   0.144  -3.523  0.00  0.00    +0.088 C 
ATOM      7  C   UNL     1      -2.145   0.159  -2.090  0.00  0.00    +0.163 C 
ATOM      8  O   UNL     1      -2.155   1.212  -1.483  0.00  0.00    -0.292 OA
ATOM      9  N   UNL     1      -1.327  -3.370  -1.501  0.00  0.00    -0.316 N 
ATOM     10  C   UNL     1      -0.173  -3.554  -0.748  0.00  0.00    +0.052 A 
ATOM     11  C   UNL     1       0.837  -4.414  -1.141  0.00  0.00    +0.025 A 
ATOM     12  C   UNL     1       1.905  -4.640  -0.289  0.00  0.00    +0.002 A 
ATOM     13  C   UNL     1       1.962  -4.010   0.941  0.00  0.00    +0.002 A 
ATOM     14  C   UNL     1       0.963  -3.133   1.326  0.00  0.00    +0.025 A 
ATOM     15  C   UNL     1      -0.098  -2.891   0.468  0.00  0.00    +0.049 A 
ATOM     16  N   UNL     1      -1.103  -1.980   0.790  0.00  0.00    -0.331 N 
ATOM     17  H   UNL     1      -1.945  -4.271  -1.632  0.00  0.00    +0.152 HD
ATOM     18  H   UNL     1      -1.757  -2.188   1.650  0.00  0.00    +0.147 HD
ENDROOT
BRANCH   1  23
ATOM     19  C   UNL     1       3.672   2.182  -0.023  0.00  0.00    +0.044 C 
ATOM     20  C   UNL     1       2.377   1.411  -0.014  0.00  0.00    -0.050 A 
ATOM     21  C   UNL     1       2.335   0.126  -0.522  0.00  0.00    +0.004 A 
ATOM     22  C   UNL     1       1.147  -0.582  -0.513  0.00  0.00    +0.006 A 
ATOM     23  C   UNL     1       0.002  -0.004   0.002  0.00  0.00    -0.023 A 
ATOM     24  C   UNL     1       0.044   1.281   0.509  0.00  0.00    +0.006 A 
ATOM     25  C   UNL     1       1.232   1.989   0.501  0.00  0.00    +0.004 A 
ENDBRANCH   1  23
BRANCH   5  26
ATOM     26  C   UNL     1      -2.350  -1.096  -5.666  0.00  0.00    -0.043 A 
ATOM     27  C   UNL     1      -3.692  -1.306  -5.924  0.00  0.00    +0.007 A 
ATOM     28  C   UNL     1      -4.141  -1.388  -7.228  0.00  0.00    +0.046 A 
ATOM     29  C   UNL     1      -3.243  -1.271  -8.279  0.00  0.00    +0.121 A 
ATOM     30  C   UNL     1      -1.896  -1.065  -8.017  0.00  0.00    +0.046 A 
ATOM     31  C   UNL     1      -1.452  -0.978  -6.712  0.00  0.00    +0.007 A 
BRANCH  29  32
ATOM     32  O   UNL     1      -3.682  -1.357  -9.562  0.00  0.00    -0.492 OA
BRANCH  32  33
ATOM     33  C   UNL     1      -5.082  -1.569  -9.756  0.00  0.00    +0.232 C 
BRANCH  33  34
ATOM     34  C   UNL     1      -5.384  -1.638 -11.254  0.00  0.00    +0.020 C 
ATOM     35  C   UNL     1      -6.859  -1.989 -11.461  0.00  0.00    +0.010 C 
ATOM     36  C   UNL     1      -5.088  -0.282 -11.898  0.00  0.00    +0.010 C 
ENDBRANCH  33  34
ENDBRANCH  32  33
ENDBRANCH  29  32
ENDBRANCH   5  26
TORSDOF 5
