REMARK  Name = ZINC39711368
REMARK  13 active torsions:
REMARK  status: ('A' for Active; 'I' for Inactive)
REMARK    1  A    between atoms: C_1  and  O_2
REMARK    2  A    between atoms: O_2  and  C_3
REMARK    3  A    between atoms: C_3  and  C_4
REMARK    4  A    between atoms: C_4  and  N_5
REMARK    5  A    between atoms: C_6  and  C_10
REMARK    6  A    between atoms: C_10  and  C_12
REMARK    7  A    between atoms: C_10  and  N_26
REMARK    8  A    between atoms: C_17  and  O_24
REMARK    9  A    between atoms: O_24  and  C_25
REMARK   10  A    between atoms: N_26  and  C_27
REMARK   11  A    between atoms: N_26  and  C_34
REMARK   12  A    between atoms: C_27  and  C_28
REMARK   13  A    between atoms: C_34  and  C_35
REMARK                            x       y       z     vdW  Elec       q    Type
REMARK                         _______ _______ _______ _____ _____    ______ ____
ROOT
ATOM      1  C   UNL     1      -3.162  -3.205   2.583  0.00  0.00    +0.019 C 
ENDROOT
BRANCH   1   2
ATOM      2  C   UNL     1      -2.945  -4.378   3.541  0.00  0.00    +0.092 C 
ATOM      3  C   UNL     1      -1.803  -5.215   3.000  0.00  0.00    -0.006 C 
ATOM      4  C   UNL     1      -2.061  -6.527   2.734  0.00  0.00    -0.004 A 
ATOM      5  C   UNL     1      -1.015  -7.406   2.209  0.00  0.00    +0.055 A 
ATOM      6  C   UNL     1      -1.319  -8.710   1.958  0.00  0.00    +0.121 A 
ATOM      7  C   UNL     1      -2.603  -9.215   2.193  0.00  0.00    +0.047 A 
ATOM      8  C   UNL     1      -3.613  -8.449   2.679  0.00  0.00    +0.027 A 
ATOM      9  C   UNL     1      -3.403  -7.088   2.971  0.00  0.00    +0.041 A 
ATOM     10  N   UNL     1      -4.404  -6.348   3.448  0.00  0.00    -0.285 N 
ATOM     11  C   UNL     1      -4.276  -5.066   3.742  0.00  0.00    +0.223 C 
ATOM     12  O   UNL     1      -5.227  -4.442   4.174  0.00  0.00    -0.275 OA
ATOM     13  H   UNL     1      -5.266  -6.770   3.585  0.00  0.00    +0.155 HD
BRANCH   6  14
ATOM     14  O   UNL     1      -0.356  -9.536   1.470  0.00  0.00    -0.495 OA
ATOM     15  C   UNL     1      -0.729 -10.893   1.225  0.00  0.00    +0.277 C 
ENDBRANCH   6  14
ENDBRANCH   1   2
BRANCH   1  17
ATOM     16  N   UNL     1      -2.983  -4.044   0.181  0.00  0.00    -0.229 N 
ATOM     17  C   UNL     1      -3.700  -3.720   1.273  0.00  0.00    +0.139 A 
ATOM     18  N   UNL     1      -4.958  -3.940   0.976  0.00  0.00    -0.115 NA
ATOM     19  N   UNL     1      -5.010  -4.376  -0.235  0.00  0.00    -0.023 NA
ATOM     20  N   UNL     1      -3.819  -4.435  -0.721  0.00  0.00    -0.044 NA
BRANCH  16  21
ATOM     21  C   UNL     1      -1.527  -3.962   0.041  0.00  0.00    +0.175 C 
BRANCH  21  22
ATOM     22  C   UNL     1      -1.142  -2.577  -0.484  0.00  0.00    +0.183 C 
BRANCH  22  24
ATOM     23  C   UNL     1       0.745  -1.237  -1.107  0.00  0.00    +0.194 C 
ATOM     24  O   UNL     1       0.278  -2.497  -0.621  0.00  0.00    -0.381 OA
ENDBRANCH  22  24
ENDBRANCH  21  22
ENDBRANCH  16  21
ENDBRANCH   1  17
BRANCH   1  25
ATOM     25  N   UNL     1      -4.124  -2.264   3.171  0.00  0.00    +0.393 N 
ATOM     26  H   UNL     1      -5.038  -2.689   3.197  0.00  0.00    -0.080 HD
BRANCH  25  27
ATOM     27  C   UNL     1      -3.704  -1.924   4.537  0.00  0.00    -0.041 C 
BRANCH  27  28
ATOM     28  C   UNL     1      -4.734  -1.026   5.171  0.00  0.00    -0.064 A 
ATOM     29  C   UNL     1      -4.630   0.346   5.040  0.00  0.00    +0.002 A 
ATOM     30  C   UNL     1      -5.575   1.171   5.622  0.00  0.00    +0.000 A 
ATOM     31  C   UNL     1      -6.625   0.622   6.334  0.00  0.00    +0.000 A 
ATOM     32  C   UNL     1      -6.730  -0.750   6.465  0.00  0.00    +0.000 A 
ATOM     33  C   UNL     1      -5.787  -1.574   5.880  0.00  0.00    +0.002 A 
ENDBRANCH  27  28
ENDBRANCH  25  27
BRANCH  25  34
ATOM     34  C   UNL     1      -4.175  -1.042   2.357  0.00  0.00    -0.034 C 
BRANCH  34  35
ATOM     35  C   UNL     1      -4.845  -1.344   1.041  0.00  0.00    -0.027 A 
ATOM     36  C   UNL     1      -6.167  -1.424   0.755  0.00  0.00    +0.009 A 
ATOM     37  C   UNL     1      -6.557  -1.716  -0.538  0.00  0.00    +0.008 A 
ATOM     38  C   UNL     1      -5.605  -1.914  -1.483  0.00  0.00    +0.045 A 
ATOM     39  S   UNL     1      -4.102  -1.680  -0.547  0.00  0.00    -0.103 S 
ENDBRANCH  34  35
ENDBRANCH  25  34
ENDBRANCH   1  25
TORSDOF 11
