REMARK  Name = ZINC58701859
REMARK  6 active torsions:
REMARK  status: ('A' for Active; 'I' for Inactive)
REMARK    1  A    between atoms: C_1  and  C_2
REMARK    2  A    between atoms: C_2  and  C_3
REMARK    3  A    between atoms: C_6  and  N_9
REMARK    4  A    between atoms: N_9  and  C_10
REMARK    5  A    between atoms: C_13  and  C_15
REMARK    6  A    between atoms: C_15  and  C_16
REMARK                            x       y       z     vdW  Elec       q    Type
REMARK                         _______ _______ _______ _____ _____    ______ ____
ROOT
ATOM      1  N   UNL     1       3.501  -2.565  -3.744  0.00  0.00    -0.295 N 
ATOM      2  C   UNL     1       2.959  -2.215  -4.927  0.00  0.00    +0.222 C 
ATOM      3  O   UNL     1       2.012  -1.458  -4.959  0.00  0.00    -0.275 OA
ENDROOT
BRANCH   1   7
ATOM      4  C   UNL     1       0.814  -0.612  -1.067  0.00  0.00    -0.011 C 
ATOM      5  C   UNL     1       2.272  -0.149  -1.095  0.00  0.00    +0.005 C 
ATOM      6  C   UNL     1       2.926  -0.603  -2.401  0.00  0.00    +0.023 C 
ATOM      7  C   UNL     1       2.875  -2.130  -2.493  0.00  0.00    +0.076 C 
ATOM      8  C   UNL     1       1.417  -2.593  -2.465  0.00  0.00    +0.023 C 
ATOM      9  C   UNL     1       0.762  -2.139  -1.159  0.00  0.00    +0.005 C 
BRANCH   4  11
ATOM     10  C   UNL     1       0.099   1.371   0.275  0.00  0.00    +0.004 C 
ATOM     11  C   UNL     1       0.159  -0.158   0.240  0.00  0.00    -0.000 C 
ENDBRANCH   4  11
ENDBRANCH   1   7
BRANCH   1  12
ATOM     12  C   UNL     1       4.718  -3.380  -3.708  0.00  0.00    +0.076 C 
ATOM     13  C   UNL     1       5.097  -4.026  -2.374  0.00  0.00    +0.024 C 
ATOM     14  C   UNL     1       5.906  -2.842  -2.908  0.00  0.00    +0.024 C 
ENDBRANCH   1  12
BRANCH   2  15
ATOM     15  C   UNL     1       3.529  -2.764  -6.209  0.00  0.00    +0.155 C 
BRANCH  15  16
ATOM     16  C   UNL     1       2.675  -2.321  -7.369  0.00  0.00    +0.100 A 
ATOM     17  C   UNL     1       1.515  -3.033  -7.913  0.00  0.00    +0.045 A 
ATOM     18  C   UNL     1       0.874  -4.230  -7.583  0.00  0.00    +0.013 A 
ATOM     19  C   UNL     1      -0.215  -4.636  -8.301  0.00  0.00    +0.001 A 
ATOM     20  C   UNL     1      -0.691  -3.870  -9.355  0.00  0.00    +0.004 A 
ATOM     21  C   UNL     1      -0.074  -2.686  -9.696  0.00  0.00    +0.049 A 
ATOM     22  C   UNL     1       1.036  -2.254  -8.979  0.00  0.00    +0.168 A 
ATOM     23  O   UNL     1       1.835  -1.172  -9.070  0.00  0.00    -0.354 OA
ATOM     24  N   UNL     1       2.827  -1.238  -8.065  0.00  0.00    -0.082 NA
ENDBRANCH  15  16
ENDBRANCH   2  15
TORSDOF 5
