REMARK  Name = ZINC31157360
REMARK  14 active torsions:
REMARK  status: ('A' for Active; 'I' for Inactive)
REMARK    1  A    between atoms: C_1  and  C_2
REMARK    2  A    between atoms: C_4  and  O_26
REMARK    3  A    between atoms: C_8  and  C_25
REMARK    4  A    between atoms: C_10  and  O_17
REMARK    5  A    between atoms: C_12  and  C_13
REMARK    6  A    between atoms: C_12  and  O_16
REMARK    7  A    between atoms: C_13  and  C_14
REMARK    8  A    between atoms: C_13  and  C_15
REMARK    9  A    between atoms: O_17  and  C_18
REMARK   10  A    between atoms: C_18  and  C_20
REMARK   11  A    between atoms: C_21  and  O_24
REMARK   12  A    between atoms: O_26  and  C_27
REMARK   13  A    between atoms: C_27  and  C_29
REMARK   14  A    between atoms: C_32  and  O_35
REMARK                            x       y       z     vdW  Elec       q    Type
REMARK                         _______ _______ _______ _____ _____    ______ ____
ROOT
ATOM      1  C   UNL     1       3.415   0.155   2.715  0.00  0.00    +0.039 C 
ATOM      2  C   UNL     1       2.273   0.853   2.008  0.00  0.00    -0.071 C 
ATOM      3  C   UNL     1       2.481   1.149   0.762  0.00  0.00    +0.016 C 
ATOM      4  C   UNL     1       1.523   1.933  -0.091  0.00  0.00    +0.206 C 
ATOM      5  C   UNL     1       0.091   1.421   0.064  0.00  0.00    +0.078 C 
ATOM      6  C   UNL     1      -0.581   2.163   1.227  0.00  0.00    +0.007 C 
ATOM      7  C   UNL     1      -1.060   3.507   0.661  0.00  0.00    +0.057 C 
ATOM      8  C   UNL     1      -1.049   3.361  -0.873  0.00  0.00    +0.209 C 
ATOM      9  C   UNL     1      -0.755   1.872  -1.153  0.00  0.00    +0.112 C 
ATOM     10  C   UNL     1       0.262   2.314   2.473  0.00  0.00    +0.125 C 
ATOM     11  C   UNL     1       1.014   1.031   2.794  0.00  0.00    +0.062 C 
ATOM     12  C   UNL     1      -1.844   1.373   1.631  0.00  0.00    +0.014 C 
ENDROOT
BRANCH   9  13
ATOM     13  C   UNL     1      -0.041   1.704  -2.491  0.00  0.00    +0.019 C 
ATOM     14  C   UNL     1       0.326   0.233  -2.692  0.00  0.00    +0.010 C 
ATOM     15  C   UNL     1      -0.964   2.160  -3.622  0.00  0.00    +0.010 C 
ENDBRANCH   9  13
BRANCH   9  16
ATOM     16  O   UNL     1      -1.989   1.139  -1.203  0.00  0.00    -0.384 OA
ATOM     17  H   UNL     1      -2.713   1.335  -2.008  0.00  0.00    +0.210 HD
ENDBRANCH   9  16
BRANCH  10  18
ATOM     18  O   UNL     1       1.136   3.434   2.442  0.00  0.00    -0.391 OA
ATOM     19  H   UNL     1       1.796   3.640   3.298  0.00  0.00    +0.210 HD
ENDBRANCH  10  18
BRANCH   8  20
ATOM     20  O   UNL     1      -2.345   3.724  -1.418  0.00  0.00    -0.459 OA
BRANCH  20  21
ATOM     21  C   UNL     1      -2.516   5.005  -1.780  0.00  0.00    +0.304 C 
ATOM     22  O   UNL     1      -1.613   5.797  -1.647  0.00  0.00    -0.251 OA
ATOM     23  C   UNL     1      -3.834   5.456  -2.354  0.00  0.00    +0.136 C 
ENDBRANCH  20  21
ENDBRANCH   8  20
BRANCH   4  24
ATOM     24  O   UNL     1       1.650   3.347   0.135  0.00  0.00    -0.453 OA
BRANCH  24  25
ATOM     25  C   UNL     1       2.626   3.989  -0.537  0.00  0.00    +0.340 C 
ATOM     26  O   UNL     1       3.349   3.372  -1.294  0.00  0.00    -0.245 OA
BRANCH  25  27
ATOM     27  C   UNL     1       2.816   5.439  -0.354  0.00  0.00    +0.059 A 
ATOM     28  C   UNL     1       1.981   6.152   0.512  0.00  0.00    +0.018 A 
ATOM     29  C   UNL     1       2.165   7.505   0.684  0.00  0.00    +0.046 A 
ATOM     30  C   UNL     1       3.173   8.166  -0.010  0.00  0.00    +0.117 A 
ATOM     31  C   UNL     1       4.001   7.462  -0.877  0.00  0.00    +0.046 A 
ATOM     32  C   UNL     1       3.827   6.107  -1.051  0.00  0.00    +0.018 A 
BRANCH  30  33
ATOM     33  O   UNL     1       3.347   9.501   0.158  0.00  0.00    -0.507 OA
ATOM     34  H   UNL     1       4.144  10.025  -0.391  0.00  0.00    +0.292 HD
ENDBRANCH  30  33
ENDBRANCH  25  27
ENDBRANCH  24  25
ENDBRANCH   4  24
TORSDOF 9
