REMARK  Name = ZINC15773174
REMARK  11 active torsions:
REMARK  status: ('A' for Active; 'I' for Inactive)
REMARK    1  A    between atoms: C_1  and  C_2
REMARK    2  A    between atoms: C_2  and  O_3
REMARK    3  A    between atoms: O_3  and  C_4
REMARK    4  A    between atoms: C_4  and  C_5
REMARK    5  A    between atoms: C_4  and  C_14
REMARK    6  A    between atoms: C_4  and  N_29
REMARK    7  A    between atoms: C_6  and  C_7
REMARK    8  A    between atoms: C_7  and  O_13
REMARK    9  A    between atoms: C_14  and  C_16
REMARK   10  A    between atoms: C_14  and  N_22
REMARK   11  A    between atoms: N_22  and  C_23
REMARK                            x       y       z     vdW  Elec       q    Type
REMARK                         _______ _______ _______ _____ _____    ______ ____
ROOT
ATOM      1  C   UNL     1      -3.848   3.958   0.027  0.00  0.00    +0.250 C 
ENDROOT
BRANCH   1   2
ATOM      2  N   UNL     1      -2.481   3.896   0.549  0.00  0.00    -0.199 N 
ATOM      3  C   UNL     1      -1.680   2.781   0.627  0.00  0.00    +0.093 A 
ATOM      4  C   UNL     1      -1.845   1.446   0.274  0.00  0.00    +0.030 A 
ATOM      5  C   UNL     1      -0.831   0.556   0.489  0.00  0.00    +0.002 A 
ATOM      6  C   UNL     1       0.370   0.974   1.048  0.00  0.00    +0.002 A 
ATOM      7  C   UNL     1       0.559   2.279   1.399  0.00  0.00    +0.032 A 
ATOM      8  C   UNL     1      -0.467   3.211   1.194  0.00  0.00    +0.113 A 
ATOM      9  N   UNL     1      -0.573   4.533   1.432  0.00  0.00    -0.129 NA
ATOM     10  N   UNL     1      -1.731   4.961   1.069  0.00  0.00    -0.061 NA
ENDBRANCH   1   2
BRANCH   1  11
ATOM     11  C   UNL     1      -4.739   3.162   0.886  0.00  0.00    -0.038 C 
ATOM     12  C   UNL     1      -5.449   2.526   1.571  0.00  0.00    -0.063 C 
BRANCH  12  13
ATOM     13  C   UNL     1      -6.340   1.730   2.431  0.00  0.00    +0.127 C 
ATOM     14  C   UNL     1      -6.312   2.291   3.854  0.00  0.00    +0.048 C 
ATOM     15  C   UNL     1      -4.884   2.225   4.400  0.00  0.00    +0.004 C 
ATOM     16  C   UNL     1      -4.410   0.770   4.416  0.00  0.00    +0.000 C 
ATOM     17  C   UNL     1      -4.439   0.209   2.993  0.00  0.00    +0.004 C 
ATOM     18  C   UNL     1      -5.866   0.275   2.447  0.00  0.00    +0.048 C 
BRANCH  13  19
ATOM     19  O   UNL     1      -7.673   1.791   1.921  0.00  0.00    -0.377 OA
ATOM     20  H   UNL     1      -8.039   2.685   1.882  0.00  0.00    +0.211 HD
ENDBRANCH  13  19
ENDBRANCH  12  13
ENDBRANCH   1  11
BRANCH   1  21
ATOM     21  O   UNL     1      -3.874   3.434  -1.302  0.00  0.00    -0.341 OA
BRANCH  21  23
ATOM     22  C   UNL     1      -5.107   2.609  -3.210  0.00  0.00    +0.034 C 
ATOM     23  C   UNL     1      -5.187   3.307  -1.851  0.00  0.00    +0.160 C 
ENDBRANCH  21  23
ENDBRANCH   1  21
BRANCH   1  24
ATOM     24  C   UNL     1      -4.321   5.413   0.011  0.00  0.00    +0.169 C 
BRANCH  24  25
ATOM     25  C   UNL     1      -3.542   6.184  -1.023  0.00  0.00    -0.022 A 
ATOM     26  C   UNL     1      -3.816   6.010  -2.367  0.00  0.00    +0.005 A 
ATOM     27  C   UNL     1      -3.104   6.720  -3.316  0.00  0.00    +0.000 A 
ATOM     28  C   UNL     1      -2.112   7.597  -2.921  0.00  0.00    +0.000 A 
ATOM     29  C   UNL     1      -1.834   7.768  -1.577  0.00  0.00    +0.000 A 
ATOM     30  C   UNL     1      -2.549   7.061  -0.629  0.00  0.00    +0.005 A 
ENDBRANCH  24  25
BRANCH  24  31
ATOM     31  N   UNL     1      -5.748   5.458  -0.319  0.00  0.00    -0.332 N 
ATOM     32  H   UNL     1      -6.193   4.666  -0.658  0.00  0.00    +0.147 HD
BRANCH  31  33
ATOM     33  C   UNL     1      -6.468   6.643  -0.145  0.00  0.00    +0.028 A 
ATOM     34  C   UNL     1      -5.833   7.777   0.346  0.00  0.00    +0.023 A 
ATOM     35  C   UNL     1      -6.547   8.948   0.512  0.00  0.00    +0.002 A 
ATOM     36  C   UNL     1      -7.894   8.989   0.201  0.00  0.00    +0.000 A 
ATOM     37  C   UNL     1      -8.529   7.860  -0.284  0.00  0.00    +0.002 A 
ATOM     38  C   UNL     1      -7.821   6.688  -0.457  0.00  0.00    +0.023 A 
ENDBRANCH  31  33
ENDBRANCH  24  31
ENDBRANCH   1  24
TORSDOF 10
