REMARK  Name = ZINC40548661
REMARK  11 active torsions:
REMARK  status: ('A' for Active; 'I' for Inactive)
REMARK    1  A    between atoms: C_1  and  C_2
REMARK    2  A    between atoms: C_4  and  C_40
REMARK    3  A    between atoms: C_5  and  O_39
REMARK    4  A    between atoms: C_6  and  C_8
REMARK    5  A    between atoms: N_16  and  C_31
REMARK    6  A    between atoms: C_17  and  C_19
REMARK    7  A    between atoms: C_22  and  O_27
REMARK    8  A    between atoms: C_23  and  O_25
REMARK    9  A    between atoms: O_25  and  C_26
REMARK   10  A    between atoms: O_27  and  C_28
REMARK   11  A    between atoms: C_28  and  C_29
REMARK                            x       y       z     vdW  Elec       q    Type
REMARK                         _______ _______ _______ _____ _____    ______ ____
ROOT
ATOM      1  C   UNL     1      -0.340  -2.312   2.252  0.00  0.00    +0.102 A 
ATOM      2  C   UNL     1      -0.019  -2.057   3.589  0.00  0.00    +0.035 A 
ATOM      3  C   UNL     1       0.183  -3.294   4.170  0.00  0.00    +0.126 A 
ATOM      4  N   UNL     1      -0.020  -4.215   3.182  0.00  0.00    -0.272 N 
ATOM      5  H   UNL     1       0.052  -5.176   3.293  0.00  0.00    +0.189 HD
ATOM      6  N   UNL     1      -0.326  -3.620   2.085  0.00  0.00    -0.173 NA
ATOM      7  C   UNL     1       0.526  -3.096   5.583  0.00  0.00    +0.266 C 
ATOM      8  O   UNL     1       0.764  -3.991   6.372  0.00  0.00    -0.268 OA
ATOM      9  N   UNL     1       0.539  -1.785   5.882  0.00  0.00    -0.280 N 
ATOM     10  C   UNL     1       0.201  -1.032   4.667  0.00  0.00    +0.142 C 
ENDROOT
BRANCH   1  16
ATOM     11  C   UNL     1      -1.156   2.443   0.966  0.00  0.00    +0.044 C 
ATOM     12  C   UNL     1      -1.040   0.988   0.590  0.00  0.00    -0.049 A 
ATOM     13  C   UNL     1      -1.221   0.599  -0.726  0.00  0.00    +0.010 A 
ATOM     14  C   UNL     1      -1.117  -0.732  -1.080  0.00  0.00    -0.008 A 
ATOM     15  C   UNL     1      -0.830  -1.686  -0.117  0.00  0.00    +0.129 A 
ATOM     16  C   UNL     1      -0.647  -1.297   1.213  0.00  0.00    +0.044 A 
ATOM     17  C   UNL     1      -0.748   0.049   1.558  0.00  0.00    +0.017 A 
ATOM     18  C   UNL     1      -1.316  -1.147  -2.515  0.00  0.00    +0.047 C 
BRANCH  15  19
ATOM     19  O   UNL     1      -0.729  -2.996  -0.463  0.00  0.00    -0.506 OA
ATOM     20  H   UNL     1       0.165  -3.268  -0.715  0.00  0.00    +0.292 HD
ENDBRANCH  15  19
ENDBRANCH   1  16
BRANCH   9  21
ATOM     21  C   UNL     1       0.839  -1.207   7.194  0.00  0.00    +0.100 C 
ATOM     22  C   UNL     1      -0.167  -1.738   8.228  0.00  0.00    +0.047 C 
ATOM     23  C   UNL     1       0.354  -1.368   9.646  0.00  0.00    +0.168 C 
ATOM     24  S   UNL     1       2.154  -1.704   9.442  0.00  0.00    -0.029 S 
ATOM     25  O   UNL     1       2.424  -3.039   9.846  0.00  0.00    -0.174 OA
ATOM     26  O   UNL     1       2.892  -0.636  10.020  0.00  0.00    -0.174 OA
ATOM     27  C   UNL     1       2.278  -1.598   7.611  0.00  0.00    +0.188 C 
ENDBRANCH   9  21
BRANCH  10  28
ATOM     28  C   UNL     1       1.339  -0.119   4.290  0.00  0.00    -0.019 A 
ATOM     29  C   UNL     1       1.078   1.174   3.874  0.00  0.00    +0.009 A 
ATOM     30  C   UNL     1       2.119   2.015   3.527  0.00  0.00    +0.050 A 
ATOM     31  C   UNL     1       3.427   1.564   3.596  0.00  0.00    +0.162 A 
ATOM     32  C   UNL     1       3.690   0.263   4.015  0.00  0.00    +0.162 A 
ATOM     33  C   UNL     1       2.642  -0.574   4.366  0.00  0.00    +0.055 A 
BRANCH  32  34
ATOM     34  O   UNL     1       4.972  -0.185   4.084  0.00  0.00    -0.491 OA
ATOM     35  C   UNL     1       5.170  -1.514   4.570  0.00  0.00    +0.277 C 
ENDBRANCH  32  34
BRANCH  31  36
ATOM     36  O   UNL     1       4.452   2.390   3.255  0.00  0.00    -0.484 OA
BRANCH  36  37
ATOM     37  C   UNL     1       4.107   3.711   2.834  0.00  0.00    +0.256 C 
BRANCH  37  38
ATOM     38  C   UNL     1       5.362   4.475   2.498  0.00  0.00    +0.006 C 
ATOM     39  C   UNL     1       5.418   5.196   1.406  0.00  0.00    +0.007 C 
ENDBRANCH  37  38
ENDBRANCH  36  37
ENDBRANCH  31  36
ENDBRANCH  10  28
TORSDOF 8
