REMARK  Name = ZINC54919657
REMARK  2 active torsions:
REMARK  status: ('A' for Active; 'I' for Inactive)
REMARK    1  A    between atoms: C_1  and  C_2
REMARK    2  A    between atoms: C_5  and  N_8
REMARK                            x       y       z     vdW  Elec       q    Type
REMARK                         _______ _______ _______ _____ _____    ______ ____
ROOT
ATOM      1  N   UNL     1      -1.354  -2.096   2.450  0.00  0.00    -0.296 N 
ATOM      2  C   UNL     1      -1.235  -2.779   3.606  0.00  0.00    +0.303 C 
ATOM      3  O   UNL     1      -0.634  -3.836   3.627  0.00  0.00    -0.253 OA
ATOM      4  N   UNL     1      -1.782  -2.292   4.737  0.00  0.00    -0.283 N 
ATOM      5  C   UNL     1      -2.612  -1.079   4.704  0.00  0.00    +0.128 C 
ATOM      6  C   UNL     1      -3.974  -1.401   5.331  0.00  0.00    +0.126 C 
ATOM      7  N   UNL     1      -3.752  -2.072   6.619  0.00  0.00    -0.307 N 
ATOM      8  C   UNL     1      -2.922  -3.285   6.652  0.00  0.00    +0.126 C 
ATOM      9  C   UNL     1      -1.564  -2.966   6.024  0.00  0.00    +0.128 C 
ATOM     10  C   UNL     1      -4.314  -1.571   7.782  0.00  0.00    +0.161 A 
ATOM     11  N   UNL     1      -5.080  -0.510   7.930  0.00  0.00    -0.233 NA
ATOM     12  C   UNL     1      -5.541  -0.162   9.118  0.00  0.00    +0.120 A 
ATOM     13  C   UNL     1      -5.190  -0.943  10.168  0.00  0.00    +0.068 A 
ATOM     14  S   UNL     1      -4.190  -2.174   9.349  0.00  0.00    -0.061 S 
ATOM     15  H   UNL     1      -1.894  -1.290   2.417  0.00  0.00    +0.151 HD
ENDROOT
BRANCH   1  20
ATOM     16  C   UNL     1       0.001   1.527   0.019  0.00  0.00    +0.007 C 
ATOM     17  C   UNL     1       0.017  -0.003   0.008  0.00  0.00    -0.014 C 
ATOM     18  C   UNL     1      -1.421  -0.527   0.016  0.00  0.00    +0.005 C 
ATOM     19  C   UNL     1      -1.405  -2.057   0.005  0.00  0.00    +0.022 C 
ATOM     20  C   UNL     1      -0.669  -2.568   1.245  0.00  0.00    +0.074 C 
ATOM     21  C   UNL     1       0.768  -2.044   1.237  0.00  0.00    +0.022 C 
ATOM     22  C   UNL     1       0.753  -0.514   1.248  0.00  0.00    +0.005 C 
ENDBRANCH   1  20
TORSDOF 1
