REMARK  Name = ZINC45633072
REMARK  9 active torsions:
REMARK  status: ('A' for Active; 'I' for Inactive)
REMARK    1  A    between atoms: C_1  and  C_2
REMARK    2  A    between atoms: C_2  and  N_3
REMARK    3  A    between atoms: N_3  and  C_4
REMARK    4  A    between atoms: C_9  and  C_10
REMARK    5  A    between atoms: C_11  and  C_13
REMARK    6  A    between atoms: C_13  and  S_14
REMARK    7  A    between atoms: S_14  and  C_15
REMARK    8  A    between atoms: C_18  and  C_21
REMARK    9  A    between atoms: N_19  and  N_20
REMARK                            x       y       z     vdW  Elec       q    Type
REMARK                         _______ _______ _______ _____ _____    ______ ____
ROOT
ATOM      1  C   UNL     1      -3.868  -0.469  -3.883  0.00  0.00    +0.209 A 
ATOM      2  N   UNL     1      -4.524  -0.204  -2.775  0.00  0.00    -0.121 NA
ATOM      3  N   UNL     1      -5.784  -0.130  -3.015  0.00  0.00    -0.127 NA
ATOM      4  C   UNL     1      -6.011  -0.343  -4.290  0.00  0.00    +0.183 A 
ATOM      5  N   UNL     1      -4.790  -0.561  -4.886  0.00  0.00    -0.224 N 
ENDROOT
BRANCH   4   6
ATOM      6  C   UNL     1      -7.329  -0.344  -4.960  0.00  0.00    +0.035 A 
ATOM      7  C   UNL     1      -7.674  -1.382  -5.827  0.00  0.00    +0.013 A 
ATOM      8  C   UNL     1      -8.905  -1.377  -6.449  0.00  0.00    +0.001 A 
ATOM      9  C   UNL     1      -9.798  -0.345  -6.215  0.00  0.00    +0.001 A 
ATOM     10  C   UNL     1      -9.463   0.687  -5.358  0.00  0.00    +0.016 A 
ATOM     11  C   UNL     1      -8.236   0.691  -4.724  0.00  0.00    +0.029 A 
ATOM     12 BR   UNL     1      -7.782   2.099  -3.546  0.00  0.00    -0.050 Br
ENDBRANCH   4   6
BRANCH   5  13
ATOM     13  N   UNL     1      -4.551  -0.820  -6.206  0.00  0.00    -0.295 N 
ATOM     14  H   UNL     1      -4.658  -1.803  -6.408  0.00  0.00    +0.163 HD
ATOM     15  H   UNL     1      -5.148  -0.262  -6.798  0.00  0.00    +0.163 HD
ENDBRANCH   5  13
BRANCH   1  16
ATOM     16  S   UNL     1      -2.124  -0.662  -4.045  0.00  0.00    -0.075 S 
BRANCH  16  17
ATOM     17  C   UNL     1      -1.498  -0.420  -2.360  0.00  0.00    +0.173 C 
BRANCH  17  19
ATOM     18  N   UNL     1       0.690  -0.420  -1.206  0.00  0.00    -0.271 N 
ATOM     19  C   UNL     1       0.002  -0.561  -2.357  0.00  0.00    +0.230 C 
ATOM     20  O   UNL     1       0.591  -0.801  -3.390  0.00  0.00    -0.274 OA
BRANCH  18  21
ATOM     21  C   UNL     1       2.083  -0.551  -1.203  0.00  0.00    +0.039 A 
ATOM     22  C   UNL     1       2.665  -1.795  -0.997  0.00  0.00    +0.024 A 
ATOM     23  C   UNL     1       4.040  -1.921  -0.995  0.00  0.00    +0.002 A 
ATOM     24  C   UNL     1       4.838  -0.810  -1.198  0.00  0.00    +0.000 A 
ATOM     25  C   UNL     1       4.262   0.430  -1.403  0.00  0.00    +0.005 A 
ATOM     26  C   UNL     1       2.887   0.562  -1.412  0.00  0.00    -0.029 A 
ATOM     27  C   UNL     1       2.260   1.913  -1.643  0.00  0.00    +0.045 C 
ENDBRANCH  18  21
BRANCH  18  29
ATOM     28  C   UNL     1      -0.135   1.384   0.223  0.00  0.00    +0.025 C 
ATOM     29  C   UNL     1      -0.021  -0.131   0.041  0.00  0.00    +0.110 C 
ENDBRANCH  18  29
ENDBRANCH  17  19
ENDBRANCH  16  17
ENDBRANCH   1  16
TORSDOF 7
