REMARK  Name = ZINC02394431
REMARK  5 active torsions:
REMARK  status: ('A' for Active; 'I' for Inactive)
REMARK    1  A    between atoms: C_3  and  C_8
REMARK    2  A    between atoms: C_8  and  S_9
REMARK    3  A    between atoms: S_9  and  C_10
REMARK    4  A    between atoms: C_13  and  C_16
REMARK    5  A    between atoms: N_14  and  N_15
REMARK                            x       y       z     vdW  Elec       q    Type
REMARK                         _______ _______ _______ _____ _____    ______ ____
ROOT
ATOM      1  C   UNL     1       1.213   1.744  -0.000  0.00  0.00    +0.209 A 
ATOM      2  N   UNL     1      -0.015   1.281   0.009  0.00  0.00    -0.121 NA
ATOM      3  N   UNL     1       0.002  -0.004   0.002  0.00  0.00    -0.132 NA
ATOM      4  C   UNL     1       1.232  -0.435  -0.012  0.00  0.00    +0.154 A 
ATOM      5  N   UNL     1       2.047   0.663  -0.014  0.00  0.00    -0.228 N 
ENDROOT
BRANCH   4   6
ATOM      6  C   UNL     1       1.673  -1.875  -0.024  0.00  0.00    +0.059 C 
ATOM      7  C   UNL     1       1.121  -2.567  -1.272  0.00  0.00    +0.011 C 
ATOM      8  C   UNL     1       1.569  -4.030  -1.285  0.00  0.00    +0.001 C 
ATOM      9  C   UNL     1       1.041  -4.736  -0.034  0.00  0.00    +0.000 C 
ATOM     10  C   UNL     1       1.594  -4.044   1.214  0.00  0.00    +0.001 C 
ATOM     11  C   UNL     1       1.145  -2.581   1.226  0.00  0.00    +0.011 C 
ENDBRANCH   4   6
BRANCH   5  12
ATOM     12  N   UNL     1       3.413   0.675  -0.027  0.00  0.00    -0.295 N 
ATOM     13  H   UNL     1       3.766   0.684  -0.973  0.00  0.00    +0.163 HD
ATOM     14  H   UNL     1       3.773   1.457   0.500  0.00  0.00    +0.163 HD
ENDBRANCH   5  12
BRANCH   1  15
ATOM     15  S   UNL     1       1.694   3.439   0.004  0.00  0.00    -0.080 S 
BRANCH  15  16
ATOM     16  C   UNL     1       0.066   4.228   0.024  0.00  0.00    +0.112 C 
BRANCH  16  19
ATOM     17  C   UNL     1       0.451   7.793  -1.159  0.00  0.00    +0.001 A 
ATOM     18  C   UNL     1       0.298   6.418  -1.164  0.00  0.00    +0.004 A 
ATOM     19  C   UNL     1       0.233   5.726   0.030  0.00  0.00    -0.036 A 
ATOM     20  C   UNL     1       0.316   6.407   1.230  0.00  0.00    +0.019 A 
ATOM     21  C   UNL     1       0.474   7.781   1.235  0.00  0.00    +0.018 A 
ATOM     22  C   UNL     1       0.538   8.474   0.040  0.00  0.00    +0.015 A 
ATOM     23 BR   UNL     1       0.594   8.713   2.877  0.00  0.00    -0.050 Br
ENDBRANCH  16  19
ENDBRANCH  15  16
ENDBRANCH   1  15
TORSDOF 5
