REMARK  Name = ZINC37742682
REMARK  3 active torsions:
REMARK  status: ('A' for Active; 'I' for Inactive)
REMARK    1  A    between atoms: C_3  and  C_8
REMARK    2  A    between atoms: C_10  and  C_13
REMARK    3  A    between atoms: C_18  and  N_19
REMARK                            x       y       z     vdW  Elec       q    Type
REMARK                         _______ _______ _______ _____ _____    ______ ____
ROOT
ATOM      1  C   UNL     1       3.749   2.840   0.600  0.00  0.00    +0.202 A 
ATOM      2  N   UNL     1       4.892   2.142   0.505  0.00  0.00    -0.187 NA
ATOM      3  C   UNL     1       5.893   2.955   0.253  0.00  0.00    +0.261 A 
ATOM      4  O   UNL     1       5.408   4.208   0.179  0.00  0.00    -0.332 OA
ATOM      5  N   UNL     1       4.010   4.109   0.403  0.00  0.00    -0.056 NA
ENDROOT
BRANCH   1   8
ATOM      6  C   UNL     1       0.048   2.560   1.202  0.00  0.00    +0.002 A 
ATOM      7  C   UNL     1       1.293   3.098   0.945  0.00  0.00    +0.012 A 
ATOM      8  C   UNL     1       2.409   2.266   0.877  0.00  0.00    +0.024 A 
ATOM      9  C   UNL     1       2.261   0.894   1.068  0.00  0.00    +0.031 A 
ATOM     10  C   UNL     1       1.011   0.366   1.325  0.00  0.00    +0.042 A 
ATOM     11  C   UNL     1      -0.094   1.197   1.391  0.00  0.00    +0.020 A 
ATOM     12 CL   UNL     1       0.825  -1.344   1.563  0.00  0.00    -0.084 Cl
ENDBRANCH   1   8
BRANCH   3  13
ATOM     13  C   UNL     1       7.304   2.563   0.080  0.00  0.00    +0.060 A 
ATOM     14  C   UNL     1       7.905   1.685   0.986  0.00  0.00    +0.016 A 
ATOM     15  C   UNL     1       9.223   1.321   0.820  0.00  0.00    +0.016 A 
ATOM     16  C   UNL     1       9.960   1.823  -0.243  0.00  0.00    +0.020 A 
ATOM     17  C   UNL     1       9.379   2.692  -1.146  0.00  0.00    +0.038 A 
ATOM     18  C   UNL     1       8.050   3.064  -0.997  0.00  0.00    +0.038 A 
ATOM     19 BR   UNL     1      11.769   1.316  -0.456  0.00  0.00    -0.050 Br
BRANCH  18  20
ATOM     20  N   UNL     1       7.461   3.934  -1.909  0.00  0.00    -0.357 N 
ATOM     21  H   UNL     1       6.511   4.124  -1.855  0.00  0.00    +0.142 HD
ATOM     22  H   UNL     1       8.000   4.351  -2.600  0.00  0.00    +0.142 HD
ENDBRANCH  18  20
ENDBRANCH   3  13
TORSDOF 3
