REMARK  Name = ZINC19718219
REMARK  6 active torsions:
REMARK  status: ('A' for Active; 'I' for Inactive)
REMARK    1  A    between atoms: C_1  and  C_2
REMARK    2  A    between atoms: C_2  and  C_3
REMARK    3  A    between atoms: C_2  and  C_4
REMARK    4  A    between atoms: C_10  and  C_12
REMARK    5  A    between atoms: C_12  and  C_13
REMARK    6  A    between atoms: C_13  and  C_14
REMARK                            x       y       z     vdW  Elec       q    Type
REMARK                         _______ _______ _______ _____ _____    ______ ____
ROOT
ATOM      1  C   UNL     1       2.648  -2.659  -0.036  0.00  0.00    +0.105 C 
ENDROOT
BRANCH   1   2
ATOM      2  C   UNL     1       2.668  -4.166  -0.045  0.00  0.00    +0.221 C 
ATOM      3  O   UNL     1       1.626  -4.787  -0.038  0.00  0.00    -0.275 OA
ATOM      4  N   UNL     1       3.845  -4.824  -0.059  0.00  0.00    -0.261 N 
ATOM      5  C   UNL     1       5.122  -4.095  -0.073  0.00  0.00    +0.209 C 
ATOM      6  C   UNL     1       6.065  -4.767  -1.032  0.00  0.00    +0.235 C 
ATOM      7  O   UNL     1       6.915  -4.109  -1.595  0.00  0.00    -0.274 OA
ATOM      8  N   UNL     1       5.976  -6.088  -1.277  0.00  0.00    -0.283 N 
ATOM      9  C   UNL     1       4.974  -6.859  -0.679  0.00  0.00    +0.055 A 
ATOM     10  C   UNL     1       3.890  -6.227  -0.067  0.00  0.00    +0.058 A 
ATOM     11  C   UNL     1       2.885  -6.977   0.517  0.00  0.00    +0.025 A 
ATOM     12  C   UNL     1       2.960  -8.359   0.496  0.00  0.00    +0.002 A 
ATOM     13  C   UNL     1       4.034  -8.988  -0.106  0.00  0.00    +0.002 A 
ATOM     14  C   UNL     1       5.041  -8.243  -0.693  0.00  0.00    +0.025 A 
ATOM     15  H   UNL     1       6.695  -6.572  -1.954  0.00  0.00    +0.155 HD
ENDBRANCH   1   2
BRANCH   1  16
ATOM     16  C   UNL     1       1.199  -2.169  -0.021  0.00  0.00    +0.105 C 
BRANCH  16  23
ATOM     17  C   UNL     1      -0.894   3.509   0.029  0.00  0.00    +0.053 A 
ATOM     18  C   UNL     1       0.366   4.007   0.020  0.00  0.00    +0.072 A 
ATOM     19  S   UNL     1       1.319   2.495   0.003  0.00  0.00    -0.060 S 
ATOM     20  C   UNL     1      -0.017   1.386   0.010  0.00  0.00    +0.165 A 
ATOM     21  N   UNL     1      -1.054   2.200   0.018  0.00  0.00    -0.229 NA
ATOM     22  N   UNL     1       0.002  -0.004   0.002  0.00  0.00    -0.265 N 
ATOM     23  C   UNL     1       1.178  -0.662  -0.012  0.00  0.00    +0.219 C 
ATOM     24  O   UNL     1       2.220  -0.041  -0.018  0.00  0.00    -0.275 OA
ATOM     25  H   UNL     1      -0.943  -0.567   0.007  0.00  0.00    +0.157 HD
BRANCH  17  27
ATOM     26  C   UNL     1      -2.400   4.835   1.487  0.00  0.00    +0.014 C 
ATOM     27  C   UNL     1      -2.087   4.431   0.045  0.00  0.00    +0.032 C 
ATOM     28  C   UNL     1      -1.775   5.682  -0.779  0.00  0.00    +0.014 C 
ENDBRANCH  17  27
ENDBRANCH  16  23
ENDBRANCH   1  16
TORSDOF 4
