REMARK  Name = ZINC04176564
REMARK  9 active torsions:
REMARK  status: ('A' for Active; 'I' for Inactive)
REMARK    1  A    between atoms: C_1  and  C_2
REMARK    2  A    between atoms: C_2  and  O_3
REMARK    3  A    between atoms: O_3  and  C_4
REMARK    4  A    between atoms: C_7  and  C_10
REMARK    5  A    between atoms: C_12  and  C_30
REMARK    6  A    between atoms: C_13  and  C_29
REMARK    7  A    between atoms: C_18  and  S_20
REMARK    8  A    between atoms: S_20  and  C_21
REMARK    9  A    between atoms: C_21  and  C_22
REMARK                            x       y       z     vdW  Elec       q    Type
REMARK                         _______ _______ _______ _____ _____    ______ ____
ROOT
ATOM      1  C   UNL     1       0.992  -6.106   1.815  0.00  0.00    +0.166 C 
ATOM      2  C   UNL     1       0.097  -6.585   2.944  0.00  0.00    +0.059 C 
ATOM      3  C   UNL     1       0.708  -7.138   4.035  0.00  0.00    +0.026 C 
ATOM      4  N   UNL     1       2.023  -7.258   4.116  0.00  0.00    -0.330 N 
ATOM      5  C   UNL     1       2.878  -6.868   3.180  0.00  0.00    +0.217 C 
ATOM      6  N   UNL     1       2.434  -6.288   2.018  0.00  0.00    -0.187 N 
ATOM      7  N   UNL     1       3.566  -5.994   1.254  0.00  0.00    -0.118 NA
ATOM      8  C   UNL     1       4.643  -6.408   1.990  0.00  0.00    +0.197 C 
ATOM      9  N   UNL     1       4.215  -6.921   3.119  0.00  0.00    -0.190 NA
ATOM     10  C   UNL     1      -0.142  -7.627   5.179  0.00  0.00    +0.064 C 
ATOM     11  H   UNL     1       2.390  -7.661   4.919  0.00  0.00    +0.168 HD
ENDROOT
BRANCH   1  15
ATOM     12  C   UNL     1       0.251  -1.942   1.202  0.00  0.00    +0.121 A 
ATOM     13  C   UNL     1      -0.351  -2.884   0.380  0.00  0.00    +0.046 A 
ATOM     14  C   UNL     1      -0.110  -4.229   0.580  0.00  0.00    +0.009 A 
ATOM     15  C   UNL     1       0.731  -4.638   1.599  0.00  0.00    -0.020 A 
ATOM     16  C   UNL     1       1.332  -3.701   2.420  0.00  0.00    +0.009 A 
ATOM     17  C   UNL     1       1.098  -2.354   2.220  0.00  0.00    +0.046 A 
BRANCH  12  18
ATOM     18  O   UNL     1       0.015  -0.618   1.007  0.00  0.00    -0.492 OA
BRANCH  18  20
ATOM     19  C   UNL     1      -1.010   1.255  -0.125  0.00  0.00    +0.048 C 
ATOM     20  C   UNL     1      -0.869  -0.267  -0.060  0.00  0.00    +0.225 C 
ENDBRANCH  18  20
ENDBRANCH  12  18
ENDBRANCH   1  15
BRANCH   2  21
ATOM     21  C   UNL     1      -1.302  -6.463   2.872  0.00  0.00    +0.241 C 
ATOM     22  O   UNL     1      -1.951  -7.269   2.228  0.00  0.00    -0.271 OA
ATOM     23  N   UNL     1      -1.925  -5.455   3.513  0.00  0.00    -0.325 N 
ATOM     24  H   UNL     1      -1.417  -4.854   4.081  0.00  0.00    +0.145 HD
ATOM     25  H   UNL     1      -2.881  -5.330   3.408  0.00  0.00    +0.145 HD
ENDBRANCH   2  21
BRANCH   8  26
ATOM     26  S   UNL     1       6.330  -6.276   1.500  0.00  0.00    -0.082 S 
BRANCH  26  27
ATOM     27  C   UNL     1       7.248  -6.991   2.892  0.00  0.00    +0.113 C 
BRANCH  27  28
ATOM     28  C   UNL     1       8.726  -6.941   2.598  0.00  0.00    -0.019 A 
ATOM     29  C   UNL     1       9.337  -7.995   1.946  0.00  0.00    +0.006 A 
ATOM     30  C   UNL     1      10.692  -7.949   1.677  0.00  0.00    +0.000 A 
ATOM     31  C   UNL     1      11.437  -6.848   2.059  0.00  0.00    +0.001 A 
ATOM     32  C   UNL     1      10.826  -5.793   2.711  0.00  0.00    +0.020 A 
ATOM     33  C   UNL     1       9.469  -5.837   2.976  0.00  0.00    +0.045 A 
ATOM     34 CL   UNL     1       8.700  -4.509   3.789  0.00  0.00    -0.083 Cl
ENDBRANCH  27  28
ENDBRANCH  26  27
ENDBRANCH   8  26
TORSDOF 7
