REMARK  Name = ZINC03358000
REMARK  7 active torsions:
REMARK  status: ('A' for Active; 'I' for Inactive)
REMARK    1  A    between atoms: C_1  and  C_2
REMARK    2  A    between atoms: C_3  and  N_9
REMARK    3  A    between atoms: C_10  and  C_12
REMARK    4  A    between atoms: C_12  and  C_13
REMARK    5  A    between atoms: N_24  and  C_25
REMARK    6  A    between atoms: C_25  and  N_27
REMARK    7  A    between atoms: N_27  and  C_28
REMARK                            x       y       z     vdW  Elec       q    Type
REMARK                         _______ _______ _______ _____ _____    ______ ____
ROOT
ATOM      1  C   UNL     1       4.070   2.055   4.827  0.00  0.00    +0.175 C 
ATOM      2  C   UNL     1       5.573   1.952   4.765  0.00  0.00    +0.239 C 
ATOM      3  O   UNL     1       6.225   2.915   4.421  0.00  0.00    -0.273 OA
ATOM      4  N   UNL     1       6.200   0.805   5.087  0.00  0.00    -0.282 N 
ATOM      5  C   UNL     1       5.474  -0.305   5.535  0.00  0.00    +0.055 A 
ATOM      6  C   UNL     1       6.061  -1.558   5.594  0.00  0.00    +0.025 A 
ATOM      7  C   UNL     1       5.330  -2.640   6.050  0.00  0.00    +0.002 A 
ATOM      8  C   UNL     1       4.015  -2.478   6.447  0.00  0.00    +0.002 A 
ATOM      9  C   UNL     1       3.420  -1.230   6.389  0.00  0.00    +0.025 A 
ATOM     10  C   UNL     1       4.146  -0.144   5.933  0.00  0.00    +0.057 A 
ATOM     11  N   UNL     1       3.569   1.133   5.858  0.00  0.00    -0.269 N 
ATOM     12  H   UNL     1       7.165   0.747   5.008  0.00  0.00    +0.155 HD
ENDROOT
BRANCH  11  13
ATOM     13  C   UNL     1       2.588   1.504   6.704  0.00  0.00    +0.138 C 
ATOM     14  S   UNL     1       2.072   0.435   7.938  0.00  0.00    -0.018 S 
BRANCH  13  15
ATOM     15  N   UNL     1       2.013   2.717   6.580  0.00  0.00    -0.329 N 
ATOM     16  C   UNL     1       0.998   3.148   7.543  0.00  0.00    +0.127 C 
ATOM     17  H   UNL     1       2.272   3.304   5.852  0.00  0.00    +0.147 HD
ENDBRANCH  13  15
ENDBRANCH  11  13
BRANCH   1  18
ATOM     18  C   UNL     1       3.475   1.676   3.469  0.00  0.00    +0.128 C 
BRANCH  18  20
ATOM     19  N   UNL     1       1.225   1.450   2.468  0.00  0.00    -0.285 N 
ATOM     20  C   UNL     1       1.979   1.851   3.511  0.00  0.00    +0.219 C 
ATOM     21  O   UNL     1       1.453   2.352   4.482  0.00  0.00    -0.275 OA
ATOM     22  H   UNL     1       1.638   0.998   1.716  0.00  0.00    +0.155 HD
BRANCH  19  25
ATOM     23  C   UNL     1      -0.052   1.994  -0.016  0.00  0.00    +0.047 C 
ATOM     24  C   UNL     1      -0.817   1.954   1.281  0.00  0.00    -0.011 A 
ATOM     25  C   UNL     1      -0.155   1.685   2.471  0.00  0.00    +0.038 A 
ATOM     26  C   UNL     1      -0.864   1.649   3.665  0.00  0.00    +0.023 A 
ATOM     27  C   UNL     1      -2.225   1.882   3.665  0.00  0.00    +0.003 A 
ATOM     28  C   UNL     1      -2.883   2.150   2.479  0.00  0.00    +0.020 A 
ATOM     29  C   UNL     1      -2.179   2.191   1.288  0.00  0.00    +0.046 A 
ATOM     30 CL   UNL     1      -3.008   2.535  -0.198  0.00  0.00    -0.083 Cl
ENDBRANCH  19  25
ENDBRANCH  18  20
ENDBRANCH   1  18
TORSDOF 5
