REMARK  Name = ZINC39638509
REMARK  10 active torsions:
REMARK  status: ('A' for Active; 'I' for Inactive)
REMARK    1  A    between atoms: C_1  and  C_2
REMARK    2  A    between atoms: C_6  and  C_8
REMARK    3  A    between atoms: C_8  and  C_9
REMARK    4  A    between atoms: C_13  and  C_22
REMARK    5  A    between atoms: N_24  and  C_25
REMARK    6  A    between atoms: C_25  and  C_26
REMARK    7  A    between atoms: C_30  and  O_34
REMARK    8  A    between atoms: C_31  and  O_32
REMARK    9  A    between atoms: O_32  and  C_33
REMARK   10  A    between atoms: O_34  and  C_35
REMARK                            x       y       z     vdW  Elec       q    Type
REMARK                         _______ _______ _______ _____ _____    ______ ____
ROOT
ATOM      1  C   UNL     1       1.637  -3.058   2.948  0.00  0.00    +0.220 C 
ATOM      2  O   UNL     1       2.570  -2.706   2.256  0.00  0.00    -0.275 OA
ATOM      3  N   UNL     1       1.863  -3.756   4.078  0.00  0.00    -0.300 N 
ATOM      4  C   UNL     1       0.862  -4.274   5.041  0.00  0.00    +0.121 C 
ATOM      5  C   UNL     1       1.397  -5.665   5.449  0.00  0.00    +0.100 C 
ATOM      6  C   UNL     1       2.910  -5.596   5.185  0.00  0.00    -0.004 C 
ATOM      7  C   UNL     1       3.168  -4.186   4.636  0.00  0.00    +0.115 C 
ATOM      8  C   UNL     1       3.683  -5.808   6.483  0.00  0.00    -0.010 C 
ATOM      9  C   UNL     1       5.185  -5.794   6.186  0.00  0.00    -0.082 C 
ATOM     10  N   UNL     1       5.506  -6.855   5.224  0.00  0.00    +0.379 N 
ATOM     11  C   UNL     1       4.831  -6.594   3.947  0.00  0.00    -0.082 C 
ATOM     12  C   UNL     1       3.314  -6.642   4.149  0.00  0.00    -0.010 C 
ATOM     13  H   UNL     1       6.503  -6.883   5.076  0.00  0.00    -0.086 HD
ATOM     14  H   UNL     1       5.197  -7.744   5.590  0.00  0.00    -0.086 HD
ENDROOT
BRANCH   5  15
ATOM     15  C   UNL     1       1.128  -5.922   6.909  0.00  0.00    +0.218 C 
ATOM     16  O   UNL     1       1.099  -4.997   7.693  0.00  0.00    -0.275 OA
ATOM     17  N   UNL     1       0.919  -7.181   7.345  0.00  0.00    -0.311 N 
ATOM     18  H   UNL     1       0.942  -7.921   6.718  0.00  0.00    +0.149 HD
BRANCH  17  19
ATOM     19  C   UNL     1       0.657  -7.431   8.764  0.00  0.00    +0.143 C 
BRANCH  19  20
ATOM     20  C   UNL     1       0.460  -8.909   8.986  0.00  0.00    +0.015 A 
ATOM     21  C   UNL     1      -0.817  -9.427   9.093  0.00  0.00    +0.009 A 
ATOM     22  C   UNL     1      -1.002 -10.782   9.297  0.00  0.00    +0.004 A 
ATOM     23  C   UNL     1       0.090 -11.624   9.394  0.00  0.00    +0.049 A 
ATOM     24  C   UNL     1       1.373 -11.111   9.287  0.00  0.00    +0.162 A 
ATOM     25  C   UNL     1       1.558  -9.748   9.076  0.00  0.00    +0.166 A 
BRANCH  25  26
ATOM     26  O   UNL     1       2.815  -9.241   8.964  0.00  0.00    -0.491 OA
ATOM     27  C   UNL     1       3.452  -8.815  10.171  0.00  0.00    +0.277 C 
ENDBRANCH  25  26
BRANCH  24  28
ATOM     28  O   UNL     1       2.448 -11.939   9.382  0.00  0.00    -0.491 OA
ATOM     29  C   UNL     1       2.182 -13.327   9.592  0.00  0.00    +0.277 C 
ENDBRANCH  24  28
ENDBRANCH  19  20
ENDBRANCH  17  19
ENDBRANCH   5  15
BRANCH   1  30
ATOM     30  C   UNL     1       0.227  -2.713   2.544  0.00  0.00    +0.131 C 
BRANCH  30  36
ATOM     31  C   UNL     1       0.443   1.662   0.123  0.00  0.00    +0.044 C 
ATOM     32  C   UNL     1       0.353   0.158   0.095  0.00  0.00    -0.050 A 
ATOM     33  C   UNL     1       0.291  -0.508  -1.115  0.00  0.00    +0.003 A 
ATOM     34  C   UNL     1       0.209  -1.888  -1.140  0.00  0.00    +0.001 A 
ATOM     35  C   UNL     1       0.188  -2.601   0.044  0.00  0.00    +0.004 A 
ATOM     36  C   UNL     1       0.250  -1.935   1.253  0.00  0.00    -0.038 A 
ATOM     37  C   UNL     1       0.337  -0.556   1.279  0.00  0.00    +0.007 A 
ENDBRANCH  30  36
ENDBRANCH   1  30
TORSDOF 7
