REMARK  Name = ZINC59746493
REMARK  8 active torsions:
REMARK  status: ('A' for Active; 'I' for Inactive)
REMARK    1  A    between atoms: C_1  and  O_2
REMARK    2  A    between atoms: O_2  and  C_3
REMARK    3  A    between atoms: C_8  and  C_9
REMARK    4  A    between atoms: C_9  and  C_11
REMARK    5  A    between atoms: C_9  and  N_27
REMARK    6  A    between atoms: C_11  and  N_12
REMARK    7  A    between atoms: N_12  and  S_13
REMARK    8  A    between atoms: S_13  and  C_16
REMARK                            x       y       z     vdW  Elec       q    Type
REMARK                         _______ _______ _______ _____ _____    ______ ____
ROOT
ATOM      1  C   UNL     1       0.801  -2.852   1.330  0.00  0.00    +0.095 C 
ENDROOT
BRANCH   1   2
ATOM      2  N   UNL     1       1.971  -3.729   1.239  0.00  0.00    -0.191 NA
ATOM      3  H   UNL     1       2.088  -4.303   0.467  0.00  0.00    +0.148 HD
BRANCH   2   4
ATOM      4  S   UNL     1       3.094  -3.739   2.456  0.00  0.00    +0.058 S 
ATOM      5  O   UNL     1       4.079  -4.697   2.092  0.00  0.00    -0.153 OA
ATOM      6  O   UNL     1       3.415  -2.381   2.724  0.00  0.00    -0.153 OA
BRANCH   4   7
ATOM      7  C   UNL     1       2.295  -4.361   3.898  0.00  0.00    +0.106 A 
ATOM      8  C   UNL     1       1.658  -3.490   4.763  0.00  0.00    +0.030 A 
ATOM      9  C   UNL     1       1.030  -3.974   5.894  0.00  0.00    +0.025 A 
ATOM     10  C   UNL     1       1.039  -5.337   6.161  0.00  0.00    +0.037 A 
ATOM     11  C   UNL     1       1.679  -6.208   5.290  0.00  0.00    -0.024 A 
ATOM     12  C   UNL     1       2.301  -5.719   4.158  0.00  0.00    +0.034 A 
ATOM     13  C   UNL     1       1.688  -7.687   5.580  0.00  0.00    +0.046 C 
ATOM     14  C   UNL     1       1.742  -7.911   7.091  0.00  0.00    +0.101 C 
ATOM     15  C   UNL     1       0.706  -7.058   7.774  0.00  0.00    +0.218 C 
ATOM     16  O   UNL     1       0.136  -7.480   8.758  0.00  0.00    -0.275 OA
ATOM     17  N   UNL     1       0.405  -5.834   7.304  0.00  0.00    -0.285 N 
ATOM     18  H   UNL     1      -0.257  -5.292   7.762  0.00  0.00    +0.155 HD
ENDBRANCH   4   7
ENDBRANCH   2   4
ENDBRANCH   1   2
BRANCH   1  19
ATOM     19  C   UNL     1       0.163  -2.708  -0.053  0.00  0.00    -0.018 C 
BRANCH  19  20
ATOM     20  N   UNL     1      -0.151  -4.040  -0.588  0.00  0.00    +0.385 N 
ATOM     21  C   UNL     1      -0.876  -3.898  -1.857  0.00  0.00    -0.078 C 
ATOM     22  C   UNL     1      -1.135  -5.280  -2.459  0.00  0.00    -0.019 C 
ATOM     23  C   UNL     1      -1.973  -6.109  -1.480  0.00  0.00    -0.004 C 
ATOM     24  C   UNL     1      -1.241  -6.188  -0.137  0.00  0.00    -0.019 C 
ATOM     25  C   UNL     1      -0.979  -4.771   0.379  0.00  0.00    -0.078 C 
ATOM     26  H   UNL     1       0.706  -4.548  -0.748  0.00  0.00    -0.081 HD
ENDBRANCH  19  20
BRANCH  19  32
ATOM     27  C   UNL     1       1.252  -0.628  -0.934  0.00  0.00    +0.122 A 
ATOM     28  C   UNL     1       2.141   0.012  -1.784  0.00  0.00    +0.046 A 
ATOM     29  C   UNL     1       2.893  -0.725  -2.678  0.00  0.00    +0.004 A 
ATOM     30  C   UNL     1       2.760  -2.101  -2.725  0.00  0.00    +0.000 A 
ATOM     31  C   UNL     1       1.874  -2.741  -1.879  0.00  0.00    +0.005 A 
ATOM     32  C   UNL     1       1.124  -2.009  -0.980  0.00  0.00    -0.018 A 
BRANCH  27  34
ATOM     33  C   UNL     1       0.694   1.512  -0.062  0.00  0.00    +0.277 C 
ATOM     34  O   UNL     1       0.511   0.095  -0.053  0.00  0.00    -0.495 OA
ENDBRANCH  27  34
ENDBRANCH  19  32
ENDBRANCH   1  19
TORSDOF 7
