REMARK  Name = ZINC52849018
REMARK  10 active torsions:
REMARK  status: ('A' for Active; 'I' for Inactive)
REMARK    1  A    between atoms: C_1  and  C_2
REMARK    2  A    between atoms: C_3  and  C_29
REMARK    3  A    between atoms: N_4  and  C_24
REMARK    4  A    between atoms: C_5  and  N_9
REMARK    5  A    between atoms: C_6  and  C_7
REMARK    6  A    between atoms: C_10  and  C_12
REMARK    7  A    between atoms: C_12  and  N_13
REMARK    8  A    between atoms: C_16  and  C_19
REMARK    9  A    between atoms: C_19  and  N_20
REMARK   10  A    between atoms: C_21  and  C_23
REMARK                            x       y       z     vdW  Elec       q    Type
REMARK                         _______ _______ _______ _____ _____    ______ ____
ROOT
ATOM      1  N   UNL     1       0.146  -3.367   1.450  0.00  0.00    -0.272 N 
ATOM      2  C   UNL     1       0.241  -4.567   0.845  0.00  0.00    +0.202 C 
ATOM      3  O   UNL     1       0.455  -4.631  -0.347  0.00  0.00    -0.278 OA
ATOM      4  H   UNL     1       0.061  -3.315   2.415  0.00  0.00    +0.156 HD
ENDROOT
BRANCH   1   9
ATOM      5  C   UNL     1      -0.365  -0.021  -2.302  0.00  0.00    +0.047 C 
ATOM      6  C   UNL     1      -0.046  -0.670  -0.980  0.00  0.00    -0.011 A 
ATOM      7  C   UNL     1       0.504  -0.077   0.092  0.00  0.00    +0.022 A 
ATOM      8  N   UNL     1       0.635  -0.996   1.099  0.00  0.00    -0.329 N 
ATOM      9  C   UNL     1       0.170  -2.205   0.693  0.00  0.00    +0.123 A 
ATOM     10  C   UNL     1      -0.282  -2.071  -0.612  0.00  0.00    +0.095 A 
ATOM     11  C   UNL     1       0.912   1.371   0.174  0.00  0.00    +0.064 C 
BRANCH   8  12
ATOM     12  C   UNL     1       1.197  -0.714   2.423  0.00  0.00    +0.089 C 
ATOM     13  C   UNL     1       2.310  -1.731   2.751  0.00  0.00    +0.025 C 
ATOM     14  C   UNL     1       2.145  -1.999   4.268  0.00  0.00    +0.002 C 
ATOM     15  C   UNL     1       0.607  -1.998   4.449  0.00  0.00    +0.002 C 
ATOM     16  C   UNL     1       0.114  -0.884   3.502  0.00  0.00    +0.025 C 
ENDBRANCH   8  12
BRANCH  10  17
ATOM     17  C   UNL     1      -0.859  -3.093  -1.434  0.00  0.00    +0.103 C 
ATOM     18  N   UNL     1      -1.317  -3.903  -2.085  0.00  0.00    -0.191 NA
ENDBRANCH  10  17
ENDBRANCH   1   9
BRANCH   2  19
ATOM     19  C   UNL     1       0.082  -5.831   1.650  0.00  0.00    +0.019 C 
BRANCH  19  20
ATOM     20  N   UNL     1       0.121  -6.993   0.751  0.00  0.00    +0.385 N 
ATOM     21  C   UNL     1       1.463  -7.115   0.170  0.00  0.00    -0.078 C 
ATOM     22  C   UNL     1       1.487  -8.274  -0.829  0.00  0.00    -0.014 C 
ATOM     23  C   UNL     1       1.122  -9.573  -0.104  0.00  0.00    +0.003 C 
ATOM     24  C   UNL     1      -0.247  -9.408   0.561  0.00  0.00    -0.014 C 
ATOM     25  C   UNL     1      -0.207  -8.207   1.508  0.00  0.00    -0.078 C 
ATOM     26  H   UNL     1      -0.554  -6.867   0.012  0.00  0.00    -0.081 HD
BRANCH  23  27
ATOM     27  C   UNL     1       1.066 -10.723  -1.112  0.00  0.00    +0.107 C 
BRANCH  27  28
ATOM     28  N   UNL     1       0.836 -11.983  -0.402  0.00  0.00    -0.315 N 
ATOM     29  C   UNL     1       0.749 -13.139  -1.091  0.00  0.00    +0.210 C 
ATOM     30  O   UNL     1       0.863 -13.135  -2.298  0.00  0.00    -0.276 OA
ATOM     31  C   UNL     1       0.512 -14.435  -0.360  0.00  0.00    +0.109 C 
ATOM     32  H   UNL     1       0.745 -11.987   0.564  0.00  0.00    +0.149 HD
ENDBRANCH  27  28
ENDBRANCH  23  27
ENDBRANCH  19  20
ENDBRANCH   2  19
TORSDOF 7
