REMARK  Name = ZINC62342043
REMARK  4 active torsions:
REMARK  status: ('A' for Active; 'I' for Inactive)
REMARK    1  A    between atoms: N_10  and  C_11
REMARK    2  A    between atoms: C_11  and  C_12
REMARK    3  A    between atoms: C_12  and  C_14
REMARK    4  A    between atoms: C_17  and  N_20
REMARK                            x       y       z     vdW  Elec       q    Type
REMARK                         _______ _______ _______ _____ _____    ______ ____
ROOT
ATOM      1  C   UNL     1       4.861   0.093  -0.355  0.00  0.00    +0.129 C 
ENDROOT
BRANCH   1  11
ATOM      2  C   UNL     1      -0.017   1.377   0.010  0.00  0.00    +0.000 A 
ATOM      3  C   UNL     1       1.170   2.088   0.002  0.00  0.00    +0.002 A 
ATOM      4  C   UNL     1       2.375   1.416  -0.015  0.00  0.00    +0.023 A 
ATOM      5  C   UNL     1       2.396   0.025  -0.024  0.00  0.00    +0.033 A 
ATOM      6  C   UNL     1       1.207  -0.687  -0.013  0.00  0.00    -0.026 A 
ATOM      7  C   UNL     1       0.002  -0.004   0.002  0.00  0.00    +0.005 A 
ATOM      8  C   UNL     1       1.192  -2.192  -0.011  0.00  0.00    +0.038 C 
ATOM      9  C   UNL     1       2.521  -2.742  -0.528  0.00  0.00    +0.024 C 
ATOM     10  C   UNL     1       3.667  -2.076   0.246  0.00  0.00    +0.105 C 
ATOM     11  N   UNL     1       3.629  -0.637  -0.046  0.00  0.00    -0.328 N 
ENDBRANCH   1  11
BRANCH   1  12
ATOM     12  C   UNL     1       5.470   0.636   0.939  0.00  0.00    +0.127 C 
ATOM     13 CL   UNL     1       5.846  -0.734   2.048  0.00  0.00    -0.115 Cl
BRANCH  12  14
ATOM     14  C   UNL     1       6.737   1.387   0.620  0.00  0.00    -0.028 A 
ATOM     15  C   UNL     1       7.824   0.716   0.093  0.00  0.00    +0.007 A 
ATOM     16  C   UNL     1       8.987   1.405  -0.199  0.00  0.00    +0.033 A 
ATOM     17  C   UNL     1       9.062   2.765   0.036  0.00  0.00    +0.126 A 
ATOM     18  C   UNL     1       7.975   3.436   0.563  0.00  0.00    +0.033 A 
ATOM     19  C   UNL     1       6.811   2.748   0.851  0.00  0.00    +0.007 A 
BRANCH  17  20
ATOM     20  N   UNL     1      10.307   3.502  -0.276  0.00  0.00    +0.056 N 
ATOM     21  O   UNL     1      11.258   2.915  -0.736  0.00  0.00    -0.126 OA
ATOM     22  O   UNL     1      10.373   4.692  -0.070  0.00  0.00    -0.126 OA
ENDBRANCH  17  20
ENDBRANCH  12  14
ENDBRANCH   1  12
TORSDOF 4
