REMARK  Name = ZINC13689755
REMARK  9 active torsions:
REMARK  status: ('A' for Active; 'I' for Inactive)
REMARK    1  A    between atoms: C_1  and  C_2
REMARK    2  A    between atoms: C_7  and  N_29
REMARK    3  A    between atoms: C_8  and  C_13
REMARK    4  A    between atoms: N_17  and  C_21
REMARK    5  A    between atoms: C_21  and  C_22
REMARK    6  A    between atoms: N_29  and  C_30
REMARK    7  A    between atoms: C_30  and  C_31
REMARK    8  A    between atoms: C_31  and  C_32
REMARK    9  A    between atoms: C_31  and  C_33
REMARK                            x       y       z     vdW  Elec       q    Type
REMARK                         _______ _______ _______ _____ _____    ______ ____
ROOT
ATOM      1  C   UNL     1       3.297  -0.757   6.936  0.00  0.00    +0.045 C 
ATOM      2  C   UNL     1       2.694  -0.419   5.597  0.00  0.00    -0.034 A 
ATOM      3  C   UNL     1       3.254  -0.945   4.424  0.00  0.00    +0.008 A 
ATOM      4  C   UNL     1       2.703  -0.633   3.217  0.00  0.00    +0.047 A 
ATOM      5  C   UNL     1       1.579   0.211   3.165  0.00  0.00    +0.142 A 
ATOM      6  N   UNL     1       1.046   0.511   1.980  0.00  0.00    -0.214 NA
ATOM      7  C   UNL     1      -0.012   1.301   1.873  0.00  0.00    +0.134 A 
ATOM      8  C   UNL     1      -0.595   1.848   3.040  0.00  0.00    +0.081 A 
ATOM      9  C   UNL     1      -0.025   1.520   4.293  0.00  0.00    +0.267 A 
ATOM     10  O   UNL     1      -0.496   1.966   5.325  0.00  0.00    -0.267 OA
ATOM     11  N   UNL     1       1.054   0.708   4.326  0.00  0.00    -0.267 N 
ATOM     12  C   UNL     1       1.614   0.391   5.528  0.00  0.00    +0.099 A 
ENDROOT
BRANCH   8  13
ATOM     13  C   UNL     1      -1.722   2.699   2.957  0.00  0.00    +0.037 C 
ATOM     14  C   UNL     1      -2.868   2.258   2.361  0.00  0.00    +0.077 C 
ATOM     15  C   UNL     1      -4.054   2.976   2.036  0.00  0.00    +0.259 C 
ATOM     16  O   UNL     1      -4.156   4.164   2.288  0.00  0.00    -0.269 OA
ATOM     17  N   UNL     1      -5.038   2.319   1.449  0.00  0.00    -0.251 N 
ATOM     18  C   UNL     1      -4.928   1.000   1.176  0.00  0.00    +0.121 C 
ATOM     19  S   UNL     1      -6.067  -0.043   0.437  0.00  0.00    -0.027 S 
ATOM     20  S   UNL     1      -3.291   0.621   1.782  0.00  0.00    -0.061 S 
BRANCH  17  21
ATOM     21  C   UNL     1      -6.271   3.029   1.096  0.00  0.00    +0.151 C 
BRANCH  21  22
ATOM     22  C   UNL     1      -7.066   3.305   2.345  0.00  0.00    -0.011 A 
ATOM     23  C   UNL     1      -7.029   4.560   2.925  0.00  0.00    +0.006 A 
ATOM     24  C   UNL     1      -7.759   4.814   4.071  0.00  0.00    +0.000 A 
ATOM     25  C   UNL     1      -8.527   3.814   4.638  0.00  0.00    +0.001 A 
ATOM     26  C   UNL     1      -8.566   2.560   4.059  0.00  0.00    +0.020 A 
ATOM     27  C   UNL     1      -7.839   2.306   2.909  0.00  0.00    +0.046 A 
ATOM     28 CL   UNL     1      -7.894   0.733   2.177  0.00  0.00    -0.083 Cl
ENDBRANCH  21  22
ENDBRANCH  17  21
ENDBRANCH   8  13
BRANCH   7  29
ATOM     29  N   UNL     1      -0.538   1.591   0.633  0.00  0.00    -0.328 N 
ATOM     30  H   UNL     1      -1.313   2.170   0.559  0.00  0.00    +0.147 HD
BRANCH  29  31
ATOM     31  C   UNL     1       0.073   1.026  -0.573  0.00  0.00    +0.106 C 
BRANCH  31  32
ATOM     32  C   UNL     1      -0.698   1.502  -1.806  0.00  0.00    -0.000 C 
ATOM     33  C   UNL     1      -0.547   3.018  -1.948  0.00  0.00    +0.009 C 
ATOM     34  C   UNL     1      -0.139   0.815  -3.053  0.00  0.00    +0.009 C 
ENDBRANCH  31  32
ENDBRANCH  29  31
ENDBRANCH   7  29
TORSDOF 6
