REMARK  Name = ZINC10129618
REMARK  10 active torsions:
REMARK  status: ('A' for Active; 'I' for Inactive)
REMARK    1  A    between atoms: C_1  and  N_2
REMARK    2  A    between atoms: N_2  and  C_3
REMARK    3  A    between atoms: N_2  and  C_4
REMARK    4  A    between atoms: C_7  and  C_10
REMARK    5  A    between atoms: C_10  and  C_12
REMARK    6  A    between atoms: C_10  and  N_66
REMARK    7  A    between atoms: C_12  and  N_13
REMARK    8  A    between atoms: C_14  and  C_16
REMARK    9  A    between atoms: N_18  and  C_19
REMARK   10  A    between atoms: C_19  and  C_20
REMARK                            x       y       z     vdW  Elec       q    Type
REMARK                         _______ _______ _______ _____ _____    ______ ____
ROOT
ATOM      1  C   UNL     1       1.419  -0.595   0.051  0.00  0.00    -0.020 C 
ENDROOT
BRANCH   1  11
ATOM      2  C   UNL     1       2.153   1.481   1.063  0.00  0.00    -0.073 C 
ATOM      3  C   UNL     1       2.525   2.082   2.419  0.00  0.00    +0.017 C 
ATOM      4  C   UNL     1       3.748   1.392   2.969  0.00  0.00    -0.048 A 
ATOM      5  C   UNL     1       4.450   2.008   3.994  0.00  0.00    +0.004 A 
ATOM      6  C   UNL     1       5.573   1.409   4.528  0.00  0.00    +0.000 A 
ATOM      7  C   UNL     1       6.000   0.189   4.039  0.00  0.00    +0.000 A 
ATOM      8  C   UNL     1       5.302  -0.425   3.018  0.00  0.00    +0.002 A 
ATOM      9  C   UNL     1       4.175   0.177   2.478  0.00  0.00    -0.061 A 
ATOM     10  C   UNL     1       3.452  -0.527   1.360  0.00  0.00    -0.042 C 
ATOM     11  N   UNL     1       2.090   0.014   1.222  0.00  0.00    +0.388 N 
ATOM     12  H   UNL     1       1.553  -0.209   2.068  0.00  0.00    -0.080 HD
ENDBRANCH   1  11
BRANCH   1  16
ATOM     13  C   UNL     1       1.461  -4.849   0.469  0.00  0.00    +0.029 A 
ATOM     14  C   UNL     1       1.670  -4.269  -0.776  0.00  0.00    +0.023 A 
ATOM     15  C   UNL     1       1.656  -2.895  -0.908  0.00  0.00    +0.004 A 
ATOM     16  C   UNL     1       1.434  -2.095   0.198  0.00  0.00    -0.059 A 
ATOM     17  C   UNL     1       1.232  -2.668   1.440  0.00  0.00    +0.004 A 
ATOM     18  C   UNL     1       1.239  -4.042   1.578  0.00  0.00    +0.023 A 
BRANCH  13  20
ATOM     19  C   UNL     1       1.589  -7.090  -0.581  0.00  0.00    +0.129 C 
ATOM     20  N   UNL     1       1.475  -6.239   0.606  0.00  0.00    -0.336 N 
ATOM     21  C   UNL     1       1.376  -6.845   1.936  0.00  0.00    +0.129 C 
ENDBRANCH  13  20
ENDBRANCH   1  16
BRANCH   1  22
ATOM     22  C   UNL     1      -0.028  -0.103  -0.006  0.00  0.00    +0.094 C 
BRANCH  22  23
ATOM     23  N   UNL     1      -0.682  -0.646  -1.199  0.00  0.00    -0.309 N 
ATOM     24  C   UNL     1      -1.998  -0.433  -1.402  0.00  0.00    +0.299 C 
ATOM     25  O   UNL     1      -2.640   0.209  -0.597  0.00  0.00    -0.265 OA
ATOM     26  H   UNL     1      -0.170  -1.163  -1.840  0.00  0.00    +0.149 HD
BRANCH  24  27
ATOM     27  C   UNL     1      -2.665  -0.988  -2.619  0.00  0.00    +0.299 C 
ATOM     28  O   UNL     1      -2.023  -1.630  -3.424  0.00  0.00    -0.265 OA
ATOM     29  N   UNL     1      -3.980  -0.775  -2.822  0.00  0.00    -0.303 N 
ATOM     30  H   UNL     1      -4.494  -0.262  -2.179  0.00  0.00    +0.149 HD
BRANCH  29  31
ATOM     31  C   UNL     1      -4.635  -1.319  -4.015  0.00  0.00    +0.141 C 
BRANCH  31  32
ATOM     32  C   UNL     1      -6.094  -0.941  -4.003  0.00  0.00    -0.012 A 
ATOM     33  C   UNL     1      -7.042  -1.860  -3.595  0.00  0.00    +0.006 A 
ATOM     34  C   UNL     1      -8.380  -1.512  -3.580  0.00  0.00    +0.000 A 
ATOM     35  C   UNL     1      -8.771  -0.249  -3.983  0.00  0.00    +0.001 A 
ATOM     36  C   UNL     1      -7.824   0.668  -4.397  0.00  0.00    +0.020 A 
ATOM     37  C   UNL     1      -6.484   0.323  -4.408  0.00  0.00    +0.046 A 
ATOM     38 CL   UNL     1      -5.294   1.474  -4.928  0.00  0.00    -0.083 Cl
ENDBRANCH  31  32
ENDBRANCH  29  31
ENDBRANCH  24  27
ENDBRANCH  22  23
ENDBRANCH   1  22
TORSDOF 8
