REMARK  Name = ZINC39530675
REMARK  7 active torsions:
REMARK  status: ('A' for Active; 'I' for Inactive)
REMARK    1  A    between atoms: C_1  and  C_2
REMARK    2  A    between atoms: C_2  and  C_3
REMARK    3  A    between atoms: C_2  and  S_4
REMARK    4  A    between atoms: S_4  and  C_7
REMARK    5  A    between atoms: C_9  and  C_21
REMARK    6  A    between atoms: C_12  and  N_13
REMARK    7  A    between atoms: C_26  and  O_27
REMARK                            x       y       z     vdW  Elec       q    Type
REMARK                         _______ _______ _______ _____ _____    ______ ____
ROOT
ATOM      1  C   UNL     1      -2.226   0.021  -1.390  0.00  0.00    +0.110 A 
ATOM      2  C   UNL     1      -2.771  -0.758  -2.389  0.00  0.00    +0.037 A 
ATOM      3  C   UNL     1      -3.275  -0.158  -3.542  0.00  0.00    -0.012 A 
ATOM      4  C   UNL     1      -3.227   1.228  -3.683  0.00  0.00    +0.010 A 
ATOM      5  C   UNL     1      -2.682   2.003  -2.681  0.00  0.00    +0.025 A 
ATOM      6  C   UNL     1      -2.184   1.403  -1.530  0.00  0.00    +0.055 A 
ENDROOT
BRANCH   6   7
ATOM      7  N   UNL     1      -1.637   2.190  -0.515  0.00  0.00    -0.330 N 
ATOM      8  C   UNL     1      -0.188   2.433  -0.443  0.00  0.00    +0.086 C 
ATOM      9  C   UNL     1       0.045   3.940  -0.303  0.00  0.00    -0.060 C 
ATOM     10  N   UNL     1      -0.711   4.447   0.849  0.00  0.00    +0.400 N 
ATOM     11  C   UNL     1      -2.151   4.291   0.609  0.00  0.00    +0.119 C 
ATOM     12  C   UNL     1      -2.494   2.805   0.511  0.00  0.00    +0.120 C 
ATOM     13  O   UNL     1      -2.880   4.880   1.688  0.00  0.00    -0.250 OA
ATOM     14  H   UNL     1      -0.451   3.929   1.675  0.00  0.00    -0.082 HD
ATOM     15  H   UNL     1      -0.498   5.423   0.987  0.00  0.00    -0.082 HD
ENDBRANCH   6   7
BRANCH   3  16
ATOM     16  C   UNL     1      -3.861  -0.994  -4.618  0.00  0.00    +0.024 A 
ATOM     17  C   UNL     1      -3.164  -2.097  -5.105  0.00  0.00    +0.012 A 
ATOM     18  C   UNL     1      -3.713  -2.872  -6.107  0.00  0.00    +0.001 A 
ATOM     19  C   UNL     1      -4.955  -2.557  -6.630  0.00  0.00    +0.004 A 
ATOM     20  C   UNL     1      -5.655  -1.464  -6.154  0.00  0.00    +0.046 A 
ATOM     21  C   UNL     1      -5.118  -0.681  -5.144  0.00  0.00    +0.125 A 
BRANCH  21  22
ATOM     22  O   UNL     1      -5.808   0.389  -4.672  0.00  0.00    -0.506 OA
ATOM     23  H   UNL     1      -5.625   1.214  -5.143  0.00  0.00    +0.292 HD
ENDBRANCH  21  22
ENDBRANCH   3  16
BRANCH   1  24
ATOM     24  S   UNL     1      -1.589  -0.736   0.068  0.00  0.00    +0.001 S 
ATOM     25  O   UNL     1      -0.349  -0.084   0.303  0.00  0.00    -0.169 OA
ATOM     26  O   UNL     1      -1.635  -2.131  -0.198  0.00  0.00    -0.169 OA
BRANCH  24  28
ATOM     27  C   UNL     1      -4.135  -0.937   1.049  0.00  0.00    +0.032 C 
ATOM     28  C   UNL     1      -2.777  -0.310   1.371  0.00  0.00    +0.130 C 
ATOM     29  C   UNL     1      -2.275  -0.845   2.714  0.00  0.00    +0.032 C 
ENDBRANCH  24  28
ENDBRANCH   1  24
TORSDOF 5
