REMARK  Name = ZINC12995195
REMARK  9 active torsions:
REMARK  status: ('A' for Active; 'I' for Inactive)
REMARK    1  A    between atoms: C_1  and  C_2
REMARK    2  A    between atoms: C_2  and  C_3
REMARK    3  A    between atoms: C_6  and  C_9
REMARK    4  A    between atoms: C_9  and  C_11
REMARK    5  A    between atoms: C_9  and  N_16
REMARK    6  A    between atoms: N_16  and  C_17
REMARK    7  A    between atoms: C_17  and  C_18
REMARK    8  A    between atoms: N_20  and  N_21
REMARK    9  A    between atoms: C_27  and  C_30
REMARK                            x       y       z     vdW  Elec       q    Type
REMARK                         _______ _______ _______ _____ _____    ______ ____
ROOT
ATOM      1  C   UNL     1      -8.392  -0.649  -1.790  0.00  0.00    +0.244 C 
ATOM      2  O   UNL     1      -7.799  -0.199  -2.748  0.00  0.00    -0.273 OA
ATOM      3  N   UNL     1      -9.732  -0.530  -1.710  0.00  0.00    -0.223 N 
ATOM      4  H   UNL     1     -10.206  -0.890  -0.944  0.00  0.00    +0.174 HD
ENDROOT
BRANCH   3   5
ATOM      5  N   UNL     1     -10.441   0.112  -2.733  0.00  0.00    -0.137 N 
ATOM      6  C   UNL     1     -10.953   1.356  -2.635  0.00  0.00    +0.263 C 
ATOM      7  O   UNL     1     -10.891   2.102  -1.682  0.00  0.00    -0.271 OA
ATOM      8  C   UNL     1     -11.621   1.623  -3.965  0.00  0.00    +0.114 C 
ATOM      9  C   UNL     1     -10.970   2.815  -4.657  0.00  0.00    +0.035 C 
ATOM     10  C   UNL     1     -11.640   3.050  -6.013  0.00  0.00    +0.006 C 
ATOM     11  C   UNL     1     -13.133   3.313  -5.804  0.00  0.00    -0.014 C 
ATOM     12  C   UNL     1     -13.777   2.099  -5.130  0.00  0.00    +0.006 C 
ATOM     13  C   UNL     1     -13.115   1.861  -3.771  0.00  0.00    +0.035 C 
ATOM     14  C   UNL     1     -13.802   3.559  -7.158  0.00  0.00    +0.007 C 
ATOM     15  N   UNL     1     -11.392   0.393  -4.733  0.00  0.00    -0.284 N 
ATOM     16  C   UNL     1     -10.688  -0.430  -3.932  0.00  0.00    +0.326 C 
ATOM     17  O   UNL     1     -10.323  -1.542  -4.260  0.00  0.00    -0.251 OA
ATOM     18  H   UNL     1     -11.685   0.211  -5.639  0.00  0.00    +0.151 HD
ENDBRANCH   3   5
BRANCH   1  19
ATOM     19  C   UNL     1      -7.629  -1.340  -0.689  0.00  0.00    +0.179 C 
BRANCH  19  20
ATOM     20  N   UNL     1      -6.196  -1.338  -1.010  0.00  0.00    -0.297 NA
ATOM     21  H   UNL     1      -5.861  -0.399  -1.167  0.00  0.00    +0.123 HD
BRANCH  20  22
ATOM     22  C   UNL     1      -5.419  -2.005   0.043  0.00  0.00    +0.122 C 
BRANCH  22  26
ATOM     23  C   UNL     1      -1.412  -0.526   0.013  0.00  0.00    -0.048 A 
ATOM     24  C   UNL     1      -2.051  -0.766   1.215  0.00  0.00    +0.004 A 
ATOM     25  C   UNL     1      -3.348  -1.244   1.225  0.00  0.00    +0.006 A 
ATOM     26  C   UNL     1      -4.006  -1.482   0.032  0.00  0.00    -0.026 A 
ATOM     27  C   UNL     1      -3.367  -1.241  -1.170  0.00  0.00    +0.006 A 
ATOM     28  C   UNL     1      -2.072  -0.758  -1.179  0.00  0.00    +0.004 A 
BRANCH  23  30
ATOM     29  C   UNL     1      -0.019   1.526   0.010  0.00  0.00    +0.009 C 
ATOM     30  C   UNL     1       0.002  -0.004   0.002  0.00  0.00    +0.032 C 
ENDBRANCH  23  30
ENDBRANCH  22  26
BRANCH  22  31
ATOM     31  C   UNL     1      -5.407  -3.491  -0.206  0.00  0.00    +0.011 A 
ATOM     32  C   UNL     1      -5.518  -4.507   0.684  0.00  0.00    +0.013 A 
ATOM     33  C   UNL     1      -5.481  -5.809   0.224  0.00  0.00    +0.008 A 
ATOM     34  C   UNL     1      -5.335  -6.032  -1.105  0.00  0.00    +0.045 A 
ATOM     35  S   UNL     1      -5.252  -4.370  -1.752  0.00  0.00    -0.100 S 
ENDBRANCH  22  31
ENDBRANCH  20  22
ENDBRANCH  19  20
ENDBRANCH   1  19
TORSDOF 7
