REMARK  Name = ZINC12659403
REMARK  7 active torsions:
REMARK  status: ('A' for Active; 'I' for Inactive)
REMARK    1  A    between atoms: C_1  and  O_2
REMARK    2  A    between atoms: O_2  and  C_3
REMARK    3  A    between atoms: C_6  and  C_25
REMARK    4  A    between atoms: C_8  and  C_9
REMARK    5  A    between atoms: C_9  and  N_75
REMARK    6  A    between atoms: C_26  and  C_27
REMARK    7  A    between atoms: C_27  and  C_29
REMARK                            x       y       z     vdW  Elec       q    Type
REMARK                         _______ _______ _______ _____ _____    ______ ____
ROOT
ATOM      1  C   UNL     1      -4.265  -0.886   1.459  0.00  0.00    +0.121 A 
ATOM      2  C   UNL     1      -4.372  -2.262   1.628  0.00  0.00    +0.046 A 
ATOM      3  C   UNL     1      -4.604  -3.075   0.542  0.00  0.00    +0.011 A 
ATOM      4  C   UNL     1      -4.738  -2.513  -0.734  0.00  0.00    -0.025 A 
ATOM      5  C   UNL     1      -4.635  -1.126  -0.898  0.00  0.00    +0.013 A 
ATOM      6  C   UNL     1      -4.403  -0.322   0.195  0.00  0.00    -0.022 A 
ENDROOT
BRANCH   1   8
ATOM      7  C   UNL     1      -3.899  -0.733   3.801  0.00  0.00    +0.277 C 
ATOM      8  O   UNL     1      -4.030  -0.089   2.532  0.00  0.00    -0.495 OA
ENDBRANCH   1   8
BRANCH   4   9
ATOM      9  C   UNL     1      -4.986  -3.375  -1.896  0.00  0.00    +0.011 C 
ATOM     10  C   UNL     1      -5.085  -4.718  -1.735  0.00  0.00    +0.047 C 
BRANCH  10  11
ATOM     11  C   UNL     1      -5.323  -5.544  -2.850  0.00  0.00    +0.162 C 
ATOM     12  O   UNL     1      -5.439  -5.055  -3.955  0.00  0.00    -0.292 OA
BRANCH  11  13
ATOM     13  C   UNL     1      -5.433  -7.037  -2.671  0.00  0.00    +0.034 C 
ATOM     14  C   UNL     1      -6.591  -7.353  -1.723  0.00  0.00    +0.018 C 
ATOM     15  C   UNL     1      -6.703  -8.868  -1.541  0.00  0.00    -0.010 C 
ATOM     16  C   UNL     1      -6.960  -9.526  -2.898  0.00  0.00    +0.007 C 
ATOM     17  C   UNL     1      -5.802  -9.210  -3.846  0.00  0.00    -0.010 C 
ATOM     18  C   UNL     1      -5.690  -7.695  -4.028  0.00  0.00    +0.018 C 
ATOM     19  C   UNL     1      -4.498  -9.751  -3.256  0.00  0.00    +0.007 C 
ATOM     20  C   UNL     1      -4.240  -9.092  -1.900  0.00  0.00    -0.010 C 
ATOM     21  C   UNL     1      -5.399  -9.408  -0.951  0.00  0.00    +0.007 C 
ATOM     22  C   UNL     1      -4.129  -7.577  -2.081  0.00  0.00    +0.018 C 
ENDBRANCH  11  13
ENDBRANCH  10  11
ENDBRANCH   4   9
BRANCH   6  23
ATOM     23  C   UNL     1      -4.292   1.171   0.021  0.00  0.00    -0.039 C 
BRANCH  23  37
ATOM     24  C   UNL     1      -2.203   1.140   1.240  0.00  0.00    -0.073 C 
ATOM     25  C   UNL     1      -0.748   1.589   1.253  0.00  0.00    -0.007 C 
ATOM     26  C   UNL     1      -0.013   1.086   0.008  0.00  0.00    +0.011 C 
ATOM     27  C   UNL     1      -0.773   1.603  -1.219  0.00  0.00    +0.020 C 
ATOM     28  C   UNL     1      -2.194   1.016  -1.180  0.00  0.00    -0.069 C 
ATOM     29  C   UNL     1      -0.901   3.107  -1.127  0.00  0.00    +0.023 A 
ATOM     30  C   UNL     1      -1.021   3.795  -2.293  0.00  0.00    +0.022 A 
ATOM     31  C   UNL     1      -1.206   5.182  -2.285  0.00  0.00    +0.007 A 
ATOM     32  C   UNL     1      -1.283   5.829  -1.086  0.00  0.00    +0.070 A 
ATOM     33  C   UNL     1      -1.152   5.090   0.099  0.00  0.00    +0.251 A 
ATOM     34  O   UNL     1      -1.265   5.651   1.177  0.00  0.00    -0.268 OA
ATOM     35  N   UNL     1      -0.901   3.757   0.061  0.00  0.00    -0.312 N 
ATOM     36  C   UNL     1      -0.621   3.100   1.338  0.00  0.00    +0.126 C 
ATOM     37  N   UNL     1      -2.875   1.587   0.004  0.00  0.00    +0.383 N 
ATOM     38  H   UNL     1      -2.829   2.612  -0.048  0.00  0.00    -0.081 HD
ENDBRANCH  23  37
ENDBRANCH   6  23
TORSDOF 6
