REMARK  Name = ZINC60346229
REMARK  10 active torsions:
REMARK  status: ('A' for Active; 'I' for Inactive)
REMARK    1  A    between atoms: C_1  and  C_2
REMARK    2  A    between atoms: C_5  and  C_7
REMARK    3  A    between atoms: C_7  and  C_30
REMARK    4  A    between atoms: N_10  and  C_14
REMARK    5  A    between atoms: C_14  and  C_15
REMARK    6  A    between atoms: N_17  and  C_18
REMARK    7  A    between atoms: N_17  and  C_23
REMARK    8  A    between atoms: C_18  and  C_19
REMARK    9  A    between atoms: C_19  and  C_20
REMARK   10  A    between atoms: C_23  and  C_24
REMARK                            x       y       z     vdW  Elec       q    Type
REMARK                         _______ _______ _______ _____ _____    ______ ____
ROOT
ATOM      1  C   UNL     1       5.087  -4.785  -2.429  0.00  0.00    +0.234 C 
ATOM      2  O   UNL     1       5.016  -5.343  -1.355  0.00  0.00    -0.274 OA
ATOM      3  N   UNL     1       6.156  -4.988  -3.225  0.00  0.00    -0.295 N 
ENDROOT
BRANCH   1   4
ATOM      4  C   UNL     1       3.981  -3.864  -2.875  0.00  0.00    +0.213 C 
BRANCH   4   8
ATOM      5  C   UNL     1       1.684  -3.245  -0.023  0.00  0.00    +0.168 C 
ATOM      6  C   UNL     1       2.928  -2.926  -0.828  0.00  0.00    +0.254 C 
ATOM      7  O   UNL     1       3.741  -2.054  -0.605  0.00  0.00    -0.272 OA
ATOM      8  N   UNL     1       2.943  -3.812  -1.843  0.00  0.00    -0.215 N 
ATOM      9  C   UNL     1       1.892  -4.639  -1.791  0.00  0.00    +0.310 C 
ATOM     10  O   UNL     1       1.688  -5.524  -2.599  0.00  0.00    -0.252 OA
ATOM     11  N   UNL     1       1.086  -4.381  -0.745  0.00  0.00    -0.279 N 
ATOM     12  C   UNL     1       2.053  -3.650   1.406  0.00  0.00    +0.050 C 
ATOM     13  H   UNL     1       0.271  -4.852  -0.512  0.00  0.00    +0.152 HD
BRANCH   5  18
ATOM     14  C   UNL     1      -0.018   1.503   0.010  0.00  0.00    +0.086 C 
ATOM     15  C   UNL     1       0.002  -0.004   0.002  0.00  0.00    +0.102 A 
ATOM     16  C   UNL     1      -1.078  -0.805   0.003  0.00  0.00    +0.045 A 
ATOM     17  C   UNL     1      -0.601  -2.136  -0.007  0.00  0.00    +0.047 A 
ATOM     18  C   UNL     1       0.742  -2.069  -0.013  0.00  0.00    +0.137 A 
ATOM     19  O   UNL     1       1.102  -0.775  -0.013  0.00  0.00    -0.462 OA
ENDBRANCH   5  18
ENDBRANCH   4   8
ENDBRANCH   1   4
BRANCH   3  20
ATOM     20  C   UNL     1       6.242  -4.314  -4.523  0.00  0.00    +0.117 C 
BRANCH  20  21
ATOM     21  C   UNL     1       6.947  -2.967  -4.352  0.00  0.00    +0.114 C 
BRANCH  21  22
ATOM     22  C   UNL     1       7.036  -2.274  -5.687  0.00  0.00    +0.212 C 
ATOM     23  O   UNL     1       6.580  -2.805  -6.678  0.00  0.00    -0.276 OA
ATOM     24  N   UNL     1       7.621  -1.064  -5.780  0.00  0.00    -0.329 N 
ATOM     25  H   UNL     1       7.986  -0.639  -4.988  0.00  0.00    +0.145 HD
ATOM     26  H   UNL     1       7.678  -0.617  -6.640  0.00  0.00    +0.145 HD
ENDBRANCH  21  22
ENDBRANCH  20  21
ENDBRANCH   3  20
BRANCH   3  27
ATOM     27  C   UNL     1       7.232  -5.883  -2.791  0.00  0.00    +0.143 C 
BRANCH  27  28
ATOM     28  C   UNL     1       6.936  -7.286  -3.256  0.00  0.00    -0.030 A 
ATOM     29  C   UNL     1       6.207  -8.141  -2.451  0.00  0.00    +0.005 A 
ATOM     30  C   UNL     1       5.935  -9.428  -2.877  0.00  0.00    +0.000 A 
ATOM     31  C   UNL     1       6.393  -9.860  -4.108  0.00  0.00    +0.000 A 
ATOM     32  C   UNL     1       7.121  -9.004  -4.913  0.00  0.00    +0.000 A 
ATOM     33  C   UNL     1       7.389  -7.716  -4.489  0.00  0.00    +0.005 A 
ENDBRANCH  27  28
ENDBRANCH   3  27
TORSDOF 8
