REMARK  Name = ZINC17196515
REMARK  5 active torsions:
REMARK  status: ('A' for Active; 'I' for Inactive)
REMARK    1  A    between atoms: C_1  and  C_2
REMARK    2  A    between atoms: C_4  and  C_30
REMARK    3  A    between atoms: C_6  and  N_8
REMARK    4  A    between atoms: N_10  and  S_11
REMARK    5  A    between atoms: S_11  and  C_14
REMARK                            x       y       z     vdW  Elec       q    Type
REMARK                         _______ _______ _______ _____ _____    ______ ____
ROOT
ATOM      1  N   UNL     1       0.073  -2.665   2.326  0.00  0.00    -0.180 NA
ATOM      2  C   UNL     1       0.249  -2.003   3.450  0.00  0.00    +0.210 C 
ATOM      3  N   UNL     1       0.615  -2.670   4.588  0.00  0.00    -0.187 N 
ATOM      4  N   UNL     1       0.065  -0.645   3.481  0.00  0.00    -0.272 N 
ATOM      5  C   UNL     1       1.193   0.267   3.244  0.00  0.00    +0.114 C 
ATOM      6  C   UNL     1       1.127   1.378   4.300  0.00  0.00    +0.024 C 
ATOM      7  C   UNL     1      -0.166   2.170   4.103  0.00  0.00    +0.038 C 
ATOM      8  C   UNL     1      -1.349   1.241   4.044  0.00  0.00    -0.026 A 
ATOM      9  C   UNL     1      -1.202  -0.103   3.734  0.00  0.00    +0.039 A 
ATOM     10  C   UNL     1      -2.316  -0.932   3.677  0.00  0.00    +0.024 A 
ATOM     11  C   UNL     1      -3.573  -0.418   3.925  0.00  0.00    +0.002 A 
ATOM     12  C   UNL     1      -3.722   0.922   4.232  0.00  0.00    +0.000 A 
ATOM     13  C   UNL     1      -2.612   1.748   4.299  0.00  0.00    +0.005 A 
ATOM     14  H   UNL     1       0.791  -2.177   5.404  0.00  0.00    +0.177 HD
ENDROOT
BRANCH   1  20
ATOM     15  C   UNL     1      -0.761   1.506   0.153  0.00  0.00    +0.066 C 
ATOM     16  C   UNL     1      -0.695   0.001   0.127  0.00  0.00    +0.044 A 
ATOM     17  C   UNL     1      -0.997  -0.694  -1.035  0.00  0.00    +0.046 A 
ATOM     18  C   UNL     1      -0.925  -2.079  -1.020  0.00  0.00    +0.044 A 
ATOM     19  N   UNL     1      -0.571  -2.695   0.095  0.00  0.00    -0.216 NA
ATOM     20  C   UNL     1      -0.287  -2.001   1.194  0.00  0.00    +0.253 A 
ATOM     21  N   UNL     1      -0.343  -0.672   1.209  0.00  0.00    -0.216 NA
ATOM     22  C   UNL     1      -1.246  -2.872  -2.260  0.00  0.00    +0.066 C 
ENDBRANCH   1  20
BRANCH   3  23
ATOM     23  S   UNL     1       0.758  -4.320   4.570  0.00  0.00    +0.074 S 
ATOM     24  O   UNL     1       1.172  -4.705   5.874  0.00  0.00    -0.150 OA
ATOM     25  O   UNL     1      -0.425  -4.824   3.966  0.00  0.00    -0.150 OA
BRANCH  23  26
ATOM     26  C   UNL     1       2.087  -4.716   3.483  0.00  0.00    +0.109 A 
ATOM     27  C   UNL     1       1.842  -4.923   2.138  0.00  0.00    +0.029 A 
ATOM     28  C   UNL     1       2.884  -5.233   1.285  0.00  0.00    +0.002 A 
ATOM     29  C   UNL     1       4.172  -5.337   1.776  0.00  0.00    +0.000 A 
ATOM     30  C   UNL     1       4.418  -5.129   3.121  0.00  0.00    +0.002 A 
ATOM     31  C   UNL     1       3.376  -4.814   3.973  0.00  0.00    +0.029 A 
ENDBRANCH  23  26
ENDBRANCH   3  23
TORSDOF 3
