REMARK  Name = ZINC51341701
REMARK  8 active torsions:
REMARK  status: ('A' for Active; 'I' for Inactive)
REMARK    1  A    between atoms: C_1  and  C_2
REMARK    2  A    between atoms: C_2  and  C_27
REMARK    3  A    between atoms: C_4  and  N_10
REMARK    4  A    between atoms: C_6  and  C_8
REMARK    5  A    between atoms: C_6  and  C_9
REMARK    6  A    between atoms: C_11  and  C_13
REMARK    7  A    between atoms: C_16  and  C_18
REMARK    8  A    between atoms: C_22  and  N_24
REMARK                            x       y       z     vdW  Elec       q    Type
REMARK                         _______ _______ _______ _____ _____    ______ ____
ROOT
ATOM      1  N   UNL     1       2.615  -0.819  -2.626  0.00  0.00    -0.307 N 
ATOM      2  C   UNL     1       3.770  -0.334  -3.123  0.00  0.00    +0.263 C 
ATOM      3  O   UNL     1       4.376   0.532  -2.522  0.00  0.00    -0.269 OA
ATOM      4  H   UNL     1       2.133  -1.510  -3.106  0.00  0.00    +0.149 HD
ENDROOT
BRANCH   1   8
ATOM      5  C   UNL     1      -0.019   1.528   0.010  0.00  0.00    -0.010 C 
ATOM      6  C   UNL     1       0.002  -0.004   0.002  0.00  0.00    -0.072 C 
ATOM      7  C   UNL     1       0.573  -0.505  -1.321  0.00  0.00    +0.009 C 
ATOM      8  C   UNL     1       2.088  -0.301  -1.357  0.00  0.00    +0.071 C 
ATOM      9  C   UNL     1       2.703  -1.086  -0.198  0.00  0.00    +0.009 C 
ATOM     10  C   UNL     1       2.147  -0.590   1.133  0.00  0.00    -0.072 C 
ATOM     11  N   UNL     1       0.697  -0.529   1.164  0.00  0.00    +0.386 N 
ATOM     12  C   UNL     1       2.769   0.766   1.481  0.00  0.00    -0.010 C 
ATOM     13  C   UNL     1       2.600  -1.589   2.223  0.00  0.00    -0.010 C 
ATOM     14  C   UNL     1      -1.468  -0.478   0.079  0.00  0.00    -0.010 C 
ATOM     15  H   UNL     1       0.416   0.021   1.982  0.00  0.00    -0.084 HD
ATOM     16  H   UNL     1       0.341  -1.472   1.351  0.00  0.00    -0.084 HD
ENDBRANCH   1   8
BRANCH   2  17
ATOM     17  C   UNL     1       4.300  -0.854  -4.396  0.00  0.00    +0.133 A 
ATOM     18  C   UNL     1       5.475  -0.371  -4.908  0.00  0.00    +0.080 A 
ATOM     19  S   UNL     1       5.643  -1.256  -6.330  0.00  0.00    -0.075 S 
ATOM     20  C   UNL     1       4.154  -2.232  -6.199  0.00  0.00    +0.109 A 
ATOM     21  N   UNL     1       3.647  -1.798  -5.060  0.00  0.00    -0.234 NA
BRANCH  20  22
ATOM     22  C   UNL     1       3.630  -3.261  -7.123  0.00  0.00    +0.009 A 
ATOM     23  C   UNL     1       2.429  -3.912  -6.837  0.00  0.00    +0.011 A 
ATOM     24  C   UNL     1       1.944  -4.871  -7.702  0.00  0.00    +0.003 A 
ATOM     25  C   UNL     1       2.647  -5.188  -8.851  0.00  0.00    +0.033 A 
ATOM     26  C   UNL     1       3.838  -4.546  -9.141  0.00  0.00    +0.127 A 
ATOM     27  C   UNL     1       4.330  -3.581  -8.286  0.00  0.00    +0.043 A 
BRANCH  26  28
ATOM     28  N   UNL     1       4.583  -4.892 -10.372  0.00  0.00    +0.056 N 
ATOM     29  O   UNL     1       4.151  -5.735 -11.123  0.00  0.00    -0.126 OA
ATOM     30  O   UNL     1       5.624  -4.332 -10.626  0.00  0.00    -0.126 OA
ENDBRANCH  26  28
ENDBRANCH  20  22
ENDBRANCH   2  17
TORSDOF 4
