REMARK  Name = ZINC39636971
REMARK  10 active torsions:
REMARK  status: ('A' for Active; 'I' for Inactive)
REMARK    1  A    between atoms: C_1  and  O_2
REMARK    2  A    between atoms: O_2  and  C_3
REMARK    3  A    between atoms: C_5  and  C_13
REMARK    4  A    between atoms: C_7  and  O_11
REMARK    5  A    between atoms: C_8  and  O_9
REMARK    6  A    between atoms: O_9  and  C_10
REMARK    7  A    between atoms: O_11  and  C_12
REMARK    8  A    between atoms: C_13  and  N_14
REMARK    9  A    between atoms: C_15  and  C_17
REMARK   10  A    between atoms: C_28  and  C_30
REMARK                            x       y       z     vdW  Elec       q    Type
REMARK                         _______ _______ _______ _____ _____    ______ ____
ROOT
ATOM      1  C   UNL     1      -6.542   2.016  -2.621  0.00  0.00    +0.100 C 
ATOM      2  C   UNL     1      -5.613   2.761  -3.605  0.00  0.00    +0.121 C 
ATOM      3  N   UNL     1      -6.529   3.560  -4.452  0.00  0.00    -0.296 N 
ATOM      4  C   UNL     1      -7.563   4.055  -3.512  0.00  0.00    +0.115 C 
ATOM      5  C   UNL     1      -7.821   2.869  -2.562  0.00  0.00    -0.004 C 
ATOM      6  C   UNL     1      -9.020   2.057  -3.044  0.00  0.00    -0.010 C 
ATOM      7  C   UNL     1     -10.287   2.908  -2.922  0.00  0.00    -0.082 C 
ATOM      8  N   UNL     1     -10.475   3.313  -1.524  0.00  0.00    +0.379 N 
ATOM      9  C   UNL     1      -9.362   4.170  -1.097  0.00  0.00    -0.082 C 
ATOM     10  C   UNL     1      -8.055   3.373  -1.141  0.00  0.00    -0.010 C 
ATOM     11  C   UNL     1      -6.442   3.787  -5.778  0.00  0.00    +0.247 C 
ATOM     12  O   UNL     1      -5.604   3.205  -6.440  0.00  0.00    -0.270 OA
ATOM     13  H   UNL     1     -11.342   3.822  -1.436  0.00  0.00    -0.086 HD
ATOM     14  H   UNL     1     -10.509   2.492  -0.939  0.00  0.00    -0.086 HD
ENDROOT
BRANCH  11  15
ATOM     15  C   UNL     1      -7.364   4.742  -6.427  0.00  0.00    +0.038 A 
ATOM     16  C   UNL     1      -8.016   5.714  -5.666  0.00  0.00    +0.013 A 
ATOM     17  C   UNL     1      -8.876   6.603  -6.277  0.00  0.00    +0.002 A 
ATOM     18  C   UNL     1      -9.093   6.534  -7.642  0.00  0.00    +0.020 A 
ATOM     19  C   UNL     1      -8.450   5.573  -8.403  0.00  0.00    +0.042 A 
ATOM     20  C   UNL     1      -7.583   4.680  -7.804  0.00  0.00    +0.033 A 
ATOM     21 CL   UNL     1      -8.729   5.494 -10.115  0.00  0.00    -0.084 Cl
ENDBRANCH  11  15
BRANCH   1  23
ATOM     22  N   UNL     1      -6.177   0.889  -0.449  0.00  0.00    -0.311 N 
ATOM     23  C   UNL     1      -5.904   1.932  -1.258  0.00  0.00    +0.218 C 
ATOM     24  O   UNL     1      -5.145   2.804  -0.889  0.00  0.00    -0.275 OA
ATOM     25  H   UNL     1      -6.783   0.192  -0.744  0.00  0.00    +0.149 HD
BRANCH  22  26
ATOM     26  C   UNL     1      -5.556   0.808   0.876  0.00  0.00    +0.139 C 
BRANCH  26  29
ATOM     27  C   UNL     1      -5.739  -2.775   2.063  0.00  0.00    +0.165 A 
ATOM     28  C   UNL     1      -5.314  -1.621   1.423  0.00  0.00    +0.054 A 
ATOM     29  C   UNL     1      -6.022  -0.444   1.573  0.00  0.00    -0.023 A 
ATOM     30  C   UNL     1      -7.158  -0.412   2.361  0.00  0.00    +0.054 A 
ATOM     31  C   UNL     1      -7.590  -1.562   3.005  0.00  0.00    +0.165 A 
ATOM     32  C   UNL     1      -6.883  -2.749   2.852  0.00  0.00    +0.204 A 
BRANCH  27  34
ATOM     33  C   UNL     1      -3.875  -3.886   1.090  0.00  0.00    +0.277 C 
ATOM     34  O   UNL     1      -5.041  -3.933   1.915  0.00  0.00    -0.491 OA
ENDBRANCH  27  34
BRANCH  32  35
ATOM     35  O   UNL     1      -7.307  -3.881   3.477  0.00  0.00    -0.488 OA
ATOM     36  C   UNL     1      -6.802  -4.123   4.792  0.00  0.00    +0.277 C 
ENDBRANCH  32  35
BRANCH  31  37
ATOM     37  O   UNL     1      -8.706  -1.529   3.780  0.00  0.00    -0.491 OA
ATOM     38  C   UNL     1      -9.385  -0.276   3.887  0.00  0.00    +0.277 C 
ENDBRANCH  31  37
ENDBRANCH  26  29
ENDBRANCH  22  26
ENDBRANCH   1  23
TORSDOF 7
