REMARK  Name = ZINC33153886
REMARK  5 active torsions:
REMARK  status: ('A' for Active; 'I' for Inactive)
REMARK    1  A    between atoms: C_1  and  O_2
REMARK    2  A    between atoms: O_2  and  C_3
REMARK    3  A    between atoms: C_6  and  C_10
REMARK    4  A    between atoms: C_13  and  C_15
REMARK    5  A    between atoms: C_20  and  C_27
REMARK                            x       y       z     vdW  Elec       q    Type
REMARK                         _______ _______ _______ _____ _____    ______ ____
ROOT
ATOM      1  C   UNL     1       3.442   0.036   1.042  0.00  0.00    +0.062 C 
ATOM      2  C   UNL     1       2.250   0.564   0.567  0.00  0.00    +0.082 C 
ATOM      3  C   UNL     1       2.109   2.007   0.239  0.00  0.00    +0.136 C 
ATOM      4  N   UNL     1       2.737   2.955   0.886  0.00  0.00    -0.284 NA
ATOM      5  N   UNL     1       1.230   2.257  -0.838  0.00  0.00    -0.233 N 
ATOM      6  C   UNL     1       1.222   3.392  -1.605  0.00  0.00    +0.056 C 
ATOM      7  C   UNL     1       0.287   3.555  -2.566  0.00  0.00    +0.072 C 
ATOM      8  S   UNL     1      -0.652   2.040  -2.433  0.00  0.00    -0.062 S 
ATOM      9  C   UNL     1       0.285   1.293  -1.125  0.00  0.00    +0.163 C 
ATOM     10  N   UNL     1       0.147   0.120  -0.558  0.00  0.00    -0.154 NA
ATOM     11  C   UNL     1       1.052  -0.280   0.358  0.00  0.00    +0.273 C 
ATOM     12  O   UNL     1       0.889  -1.308   0.996  0.00  0.00    -0.268 OA
ATOM     13  H   UNL     1       3.410   2.700   1.718  0.00  0.00    +0.188 HD
ENDROOT
BRANCH   6  14
ATOM     14  C   UNL     1       2.240   4.441  -1.381  0.00  0.00    -0.003 A 
ATOM     15  C   UNL     1       1.850   5.727  -1.006  0.00  0.00    +0.010 A 
ATOM     16  C   UNL     1       2.805   6.700  -0.793  0.00  0.00    +0.001 A 
ATOM     17  C   UNL     1       4.146   6.406  -0.962  0.00  0.00    +0.000 A 
ATOM     18  C   UNL     1       4.540   5.134  -1.339  0.00  0.00    +0.001 A 
ATOM     19  C   UNL     1       3.595   4.151  -1.549  0.00  0.00    +0.010 A 
ENDBRANCH   6  14
BRANCH   1  23
ATOM     20  C   UNL     1       3.159  -3.508   1.122  0.00  0.00    +0.136 A 
ATOM     21  C   UNL     1       4.374  -3.363   1.761  0.00  0.00    +0.050 A 
ATOM     22  C   UNL     1       4.647  -1.998   1.813  0.00  0.00    +0.050 A 
ATOM     23  C   UNL     1       3.579  -1.351   1.206  0.00  0.00    +0.129 A 
ATOM     24  O   UNL     1       2.697  -2.288   0.796  0.00  0.00    -0.455 OA
BRANCH  20  28
ATOM     25  C   UNL     1       1.208  -7.192   0.314  0.00  0.00    +0.138 A 
ATOM     26  C   UNL     1       0.619  -5.996  -0.076  0.00  0.00    +0.048 A 
ATOM     27  C   UNL     1       1.248  -4.798   0.183  0.00  0.00    +0.015 A 
ATOM     28  C   UNL     1       2.482  -4.787   0.842  0.00  0.00    +0.019 A 
ATOM     29  C   UNL     1       3.074  -5.993   1.229  0.00  0.00    +0.035 A 
ATOM     30  C   UNL     1       2.434  -7.187   0.969  0.00  0.00    +0.083 A 
ATOM     31 CL   UNL     1       3.164  -8.685   1.455  0.00  0.00    -0.080 Cl
BRANCH  25  33
ATOM     32  C   UNL     1      -0.673  -8.303  -0.621  0.00  0.00    +0.277 C 
ATOM     33  O   UNL     1       0.583  -8.370   0.055  0.00  0.00    -0.494 OA
ENDBRANCH  25  33
ENDBRANCH  20  28
ENDBRANCH   1  23
TORSDOF 4
