REMARK  Name = ZINC24177522
REMARK  10 active torsions:
REMARK  status: ('A' for Active; 'I' for Inactive)
REMARK    1  A    between atoms: C_1  and  C_2
REMARK    2  A    between atoms: C_2  and  C_3
REMARK    3  A    between atoms: C_2  and  N_4
REMARK    4  A    between atoms: N_4  and  C_5
REMARK    5  A    between atoms: C_5  and  N_7
REMARK    6  A    between atoms: N_7  and  N_8
REMARK    7  A    between atoms: C_9  and  C_11
REMARK    8  A    between atoms: C_13  and  S_22
REMARK    9  A    between atoms: C_16  and  N_17
REMARK   10  A    between atoms: S_22  and  N_25
REMARK                            x       y       z     vdW  Elec       q    Type
REMARK                         _______ _______ _______ _____ _____    ______ ____
ROOT
ATOM      1  C   UNL     1       5.401  -0.752  -2.003  0.00  0.00    +0.061 A 
ATOM      2  C   UNL     1       4.961  -0.448  -0.712  0.00  0.00    +0.043 A 
ATOM      3  C   UNL     1       3.975  -1.208  -0.124  0.00  0.00    +0.106 A 
ATOM      4  C   UNL     1       3.418  -2.280  -0.805  0.00  0.00    +0.030 A 
ATOM      5  C   UNL     1       3.837  -2.590  -2.082  0.00  0.00    +0.026 A 
ATOM      6  C   UNL     1       4.831  -1.835  -2.691  0.00  0.00    +0.042 A 
ENDROOT
BRANCH   6   7
ATOM      7  N   UNL     1       5.259  -2.148  -3.975  0.00  0.00    -0.329 N 
ATOM      8  C   UNL     1       5.662  -3.574  -4.068  0.00  0.00    +0.105 C 
ATOM      9  C   UNL     1       5.588  -3.865  -5.588  0.00  0.00    +0.020 C 
ATOM     10  C   UNL     1       4.349  -3.055  -6.035  0.00  0.00    +0.020 C 
ATOM     11  C   UNL     1       4.165  -1.973  -4.955  0.00  0.00    +0.105 C 
ENDBRANCH   6   7
BRANCH   1  13
ATOM     12  N   UNL     1       6.925   1.160  -2.018  0.00  0.00    -0.231 N 
ATOM     13  C   UNL     1       6.457   0.058  -2.637  0.00  0.00    +0.262 C 
ATOM     14  O   UNL     1       6.906  -0.268  -3.719  0.00  0.00    -0.269 OA
ATOM     15  H   UNL     1       6.519   1.455  -1.039  0.00  0.00    +0.173 HD
BRANCH  12  16
ATOM     16  N   UNL     1       7.928   1.929  -2.621  0.00  0.00    -0.246 N 
ATOM     17  H   UNL     1       8.334   1.634  -3.600  0.00  0.00    +0.172 HD
BRANCH  16  18
ATOM     18  C   UNL     1       8.396   3.031  -2.002  0.00  0.00    +0.147 C 
ATOM     19  S   UNL     1       9.621   3.972  -2.739  0.00  0.00    -0.017 S 
BRANCH  18  20
ATOM     20  N   UNL     1       7.898   3.393  -0.803  0.00  0.00    -0.323 N 
ATOM     21  H   UNL     1       7.110   2.789  -0.329  0.00  0.00    +0.148 HD
BRANCH  20  23
ATOM     22  C   UNL     1       7.339   5.132   0.823  0.00  0.00    +0.027 C 
ATOM     23  C   UNL     1       8.406   4.591  -0.130  0.00  0.00    +0.066 C 
ATOM     24  C   UNL     1       9.665   4.234   0.664  0.00  0.00    +0.027 C 
ENDBRANCH  20  23
ENDBRANCH  18  20
ENDBRANCH  16  18
ENDBRANCH  12  16
ENDBRANCH   1  13
BRANCH   3  25
ATOM     25  S   UNL     1       3.423  -0.822   1.504  0.00  0.00    +0.061 S 
ATOM     26  O   UNL     1       4.484  -0.119   2.136  0.00  0.00    -0.153 OA
ATOM     27  O   UNL     1       2.875  -2.018   2.042  0.00  0.00    -0.153 OA
BRANCH  25  28
ATOM     28  N   UNL     1       2.168   0.248   1.355  0.00  0.00    -0.177 NA
ATOM     29  C   UNL     1       0.785  -0.232   1.239  0.00  0.00    +0.109 C 
ATOM     30  C   UNL     1       0.151   0.385  -0.012  0.00  0.00    +0.017 C 
ATOM     31  C   UNL     1       0.285   1.909   0.052  0.00  0.00    +0.003 C 
ATOM     32  C   UNL     1       1.767   2.292   0.083  0.00  0.00    +0.017 C 
ATOM     33  C   UNL     1       2.418   1.696   1.335  0.00  0.00    +0.109 C 
ENDBRANCH  25  28
ENDBRANCH   3  25
TORSDOF 8
