REMARK  Name = ZINC13114469
REMARK  7 active torsions:
REMARK  status: ('A' for Active; 'I' for Inactive)
REMARK    1  A    between atoms: C_1  and  C_2
REMARK    2  A    between atoms: C_2  and  C_4
REMARK    3  A    between atoms: C_2  and  S_18
REMARK    4  A    between atoms: C_9  and  C_12
REMARK    5  A    between atoms: S_18  and  C_19
REMARK    6  A    between atoms: C_22  and  C_25
REMARK    7  A    between atoms: N_23  and  N_24
REMARK                            x       y       z     vdW  Elec       q    Type
REMARK                         _______ _______ _______ _____ _____    ______ ____
ROOT
ATOM      1  C   UNL     1      -0.753   1.593  -1.232  0.00  0.00    +0.029 C 
ATOM      2  C   UNL     1      -0.013   1.086   0.008  0.00  0.00    +0.137 C 
ENDROOT
BRANCH   2   3
ATOM      3  C   UNL     1      -0.718   1.572   1.248  0.00  0.00    +0.232 C 
ATOM      4  O   UNL     1      -0.347   2.587   1.798  0.00  0.00    -0.274 OA
ATOM      5  N   UNL     1      -1.761   0.878   1.746  0.00  0.00    -0.264 N 
ATOM      6  C   UNL     1      -2.411   1.326   2.889  0.00  0.00    +0.165 A 
ATOM      7  N   UNL     1      -3.439   0.798   3.526  0.00  0.00    -0.225 NA
ATOM      8  C   UNL     1      -3.938   1.364   4.615  0.00  0.00    +0.080 A 
ATOM      9  C   UNL     1      -3.378   2.518   5.088  0.00  0.00    +0.076 A 
ATOM     10  S   UNL     1      -2.073   2.767   3.891  0.00  0.00    -0.060 S 
ATOM     11  H   UNL     1      -2.057   0.066   1.306  0.00  0.00    +0.157 HD
BRANCH   8  12
ATOM     12  C   UNL     1      -5.094   0.751   5.314  0.00  0.00    +0.001 A 
ATOM     13  C   UNL     1      -5.613   1.348   6.462  0.00  0.00    +0.010 A 
ATOM     14  C   UNL     1      -6.692   0.776   7.106  0.00  0.00    +0.001 A 
ATOM     15  C   UNL     1      -7.252  -0.392   6.619  0.00  0.00    +0.000 A 
ATOM     16  C   UNL     1      -6.738  -0.990   5.483  0.00  0.00    +0.001 A 
ATOM     17  C   UNL     1      -5.662  -0.425   4.829  0.00  0.00    +0.010 A 
ENDBRANCH   8  12
ENDBRANCH   2   3
BRANCH   2  18
ATOM     18  S   UNL     1       1.685   1.712  -0.005  0.00  0.00    -0.072 S 
BRANCH  18  19
ATOM     19  C   UNL     1       2.303   0.892  -1.437  0.00  0.00    +0.209 A 
ATOM     20  N   UNL     1       1.634   0.071  -2.214  0.00  0.00    -0.121 NA
ATOM     21  N   UNL     1       2.388  -0.347  -3.168  0.00  0.00    -0.127 NA
ATOM     22  C   UNL     1       3.584   0.182  -3.058  0.00  0.00    +0.182 A 
ATOM     23  N   UNL     1       3.565   0.996  -1.949  0.00  0.00    -0.224 N 
BRANCH  22  24
ATOM     24  C   UNL     1       4.733  -0.049  -3.959  0.00  0.00    +0.021 A 
ATOM     25  C   UNL     1       6.019   0.325  -3.564  0.00  0.00    +0.014 A 
ATOM     26  C   UNL     1       7.088   0.102  -4.407  0.00  0.00    +0.039 A 
ATOM     27  C   UNL     1       6.886  -0.481  -5.647  0.00  0.00    +0.123 A 
ATOM     28  C   UNL     1       5.611  -0.849  -6.046  0.00  0.00    +0.039 A 
ATOM     29  C   UNL     1       4.535  -0.636  -5.210  0.00  0.00    +0.014 A 
ATOM     30  F   UNL     1       7.936  -0.691  -6.471  0.00  0.00    -0.205 F 
ENDBRANCH  22  24
BRANCH  23  31
ATOM     31  N   UNL     1       4.595   1.749  -1.460  0.00  0.00    -0.295 N 
ATOM     32  H   UNL     1       5.144   1.223  -0.796  0.00  0.00    +0.163 HD
ATOM     33  H   UNL     1       5.173   2.101  -2.208  0.00  0.00    +0.163 HD
ENDBRANCH  23  31
ENDBRANCH  18  19
ENDBRANCH   2  18
TORSDOF 6
