REMARK  Name = ZINC03583990
REMARK  8 active torsions:
REMARK  status: ('A' for Active; 'I' for Inactive)
REMARK    1  A    between atoms: C_1  and  N_53
REMARK    2  A    between atoms: C_2  and  C_3
REMARK    3  A    between atoms: C_2  and  N_53
REMARK    4  A    between atoms: C_15  and  C_16
REMARK    5  A    between atoms: C_15  and  N_53
REMARK    6  A    between atoms: N_18  and  C_19
REMARK    7  A    between atoms: C_24  and  S_25
REMARK    8  A    between atoms: S_25  and  C_26
REMARK                            x       y       z     vdW  Elec       q    Type
REMARK                         _______ _______ _______ _____ _____    ______ ____
ROOT
ATOM      1  C   UNL     1       3.528   6.087  -1.170  0.00  0.00    +0.019 C 
ENDROOT
BRANCH   1   2
ATOM      2  C   UNL     1       3.130   7.537  -1.272  0.00  0.00    +0.201 C 
ATOM      3  O   UNL     1       2.014   7.835  -1.644  0.00  0.00    -0.278 OA
ATOM      4  N   UNL     1       4.013   8.503  -0.950  0.00  0.00    -0.286 N 
ATOM      5  H   UNL     1       4.879   8.265  -0.583  0.00  0.00    +0.155 HD
BRANCH   4   6
ATOM      6  C   UNL     1       3.681   9.850  -1.146  0.00  0.00    +0.047 A 
ATOM      7  C   UNL     1       2.355  10.253  -1.102  0.00  0.00    +0.024 A 
ATOM      8  C   UNL     1       2.029  11.582  -1.295  0.00  0.00    +0.002 A 
ATOM      9  C   UNL     1       3.023  12.515  -1.532  0.00  0.00    +0.001 A 
ATOM     10  C   UNL     1       4.347  12.123  -1.577  0.00  0.00    +0.017 A 
ATOM     11  C   UNL     1       4.684  10.791  -1.380  0.00  0.00    +0.034 A 
BRANCH  11  12
ATOM     12  S   UNL     1       6.372  10.289  -1.429  0.00  0.00    -0.088 S 
BRANCH  12  13
ATOM     13  C   UNL     1       6.793  10.039   0.263  0.00  0.00    +0.013 A 
ATOM     14  C   UNL     1       5.886  10.370   1.263  0.00  0.00    +0.015 A 
ATOM     15  C   UNL     1       6.216  10.167   2.588  0.00  0.00    +0.001 A 
ATOM     16  C   UNL     1       7.453   9.644   2.921  0.00  0.00    +0.000 A 
ATOM     17  C   UNL     1       8.360   9.318   1.930  0.00  0.00    +0.001 A 
ATOM     18  C   UNL     1       8.034   9.514   0.602  0.00  0.00    +0.015 A 
ENDBRANCH  12  13
ENDBRANCH  11  12
ENDBRANCH   4   6
ENDBRANCH   1   2
BRANCH   1  20
ATOM     19  C   UNL     1       1.282   5.364  -0.625  0.00  0.00    -0.095 C 
ATOM     20  N   UNL     1       2.388   5.249  -1.599  0.00  0.00    +0.388 N 
ATOM     21  H   UNL     1       2.061   5.575  -2.516  0.00  0.00    -0.081 HD
BRANCH  20  22
ATOM     22  C   UNL     1       2.815   3.838  -1.715  0.00  0.00    -0.003 C 
BRANCH  22  23
ATOM     23  C   UNL     1       1.706   3.047  -2.360  0.00  0.00    +0.094 A 
ATOM     24  N   UNL     1       1.904   1.721  -2.577  0.00  0.00    -0.312 N 
ATOM     25  H   UNL     1       2.743   1.311  -2.317  0.00  0.00    +0.170 HD
ATOM     26  C   UNL     1       0.940   0.966  -3.155  0.00  0.00    +0.259 A 
ATOM     27  O   UNL     1       1.103  -0.223  -3.355  0.00  0.00    -0.267 OA
ATOM     28  C   UNL     1      -0.310   1.640  -3.535  0.00  0.00    +0.065 A 
ATOM     29  C   UNL     1      -1.367   0.953  -4.129  0.00  0.00    +0.015 A 
ATOM     30  C   UNL     1      -2.518   1.634  -4.460  0.00  0.00    +0.001 A 
ATOM     31  C   UNL     1      -2.635   2.993  -4.201  0.00  0.00    +0.002 A 
ATOM     32  C   UNL     1      -1.605   3.689  -3.609  0.00  0.00    +0.028 A 
ATOM     33  C   UNL     1      -0.428   3.022  -3.264  0.00  0.00    +0.078 A 
ATOM     34  N   UNL     1       0.612   3.668  -2.680  0.00  0.00    -0.236 NA
ENDBRANCH  22  23
ENDBRANCH  20  22
ENDBRANCH   1  20
TORSDOF 7
