REMARK  Name = ZINC08897728
REMARK  6 active torsions:
REMARK  status: ('A' for Active; 'I' for Inactive)
REMARK    1  A    between atoms: C_1  and  C_2
REMARK    2  A    between atoms: C_7  and  N_8
REMARK    3  A    between atoms: C_9  and  C_11
REMARK    4  A    between atoms: C_11  and  S_12
REMARK    5  A    between atoms: S_12  and  C_13
REMARK    6  A    between atoms: C_25  and  C_29
REMARK                            x       y       z     vdW  Elec       q    Type
REMARK                         _______ _______ _______ _____ _____    ______ ____
ROOT
ATOM      1  C   UNL     1       0.949  -4.261  -2.915  0.00  0.00    +0.170 A 
ATOM      2  N   UNL     1       0.082  -4.072  -1.883  0.00  0.00    -0.301 N 
ATOM      3  H   UNL     1      -0.485  -4.811  -1.612  0.00  0.00    +0.171 HD
ATOM      4  C   UNL     1      -0.025  -2.898  -1.216  0.00  0.00    +0.261 A 
ATOM      5  O   UNL     1      -0.808  -2.747  -0.294  0.00  0.00    -0.267 OA
ATOM      6  C   UNL     1       0.839  -1.845  -1.661  0.00  0.00    +0.075 A 
ATOM      7  C   UNL     1       0.919  -0.499  -1.116  0.00  0.00    -0.023 A 
ATOM      8  C   UNL     1       1.813   0.336  -1.694  0.00  0.00    -0.004 A 
ATOM      9  S   UNL     1       2.580  -0.619  -2.979  0.00  0.00    -0.073 S 
ATOM     10  C   UNL     1       1.706  -2.133  -2.739  0.00  0.00    +0.117 A 
ATOM     11  N   UNL     1       1.761  -3.308  -3.353  0.00  0.00    -0.216 NA
ATOM     12  C   UNL     1       2.092   1.761  -1.326  0.00  0.00    +0.046 C 
ATOM     13  C   UNL     1       1.478   2.037   0.053  0.00  0.00    -0.009 C 
ATOM     14  C   UNL     1       0.041   1.505   0.065  0.00  0.00    +0.008 C 
ATOM     15  C   UNL     1       0.054  -0.024   0.048  0.00  0.00    +0.037 C 
ATOM     16  C   UNL     1       1.469   3.543   0.320  0.00  0.00    +0.008 C 
ENDROOT
BRANCH   1  17
ATOM     17  S   UNL     1       0.994  -5.837  -3.702  0.00  0.00    -0.078 S 
BRANCH  17  18
ATOM     18  C   UNL     1       2.271  -5.530  -4.948  0.00  0.00    +0.173 C 
BRANCH  18  20
ATOM     19  N   UNL     1       3.397  -6.784  -6.759  0.00  0.00    -0.285 N 
ATOM     20  C   UNL     1       2.486  -6.777  -5.765  0.00  0.00    +0.227 C 
ATOM     21  O   UNL     1       1.839  -7.776  -5.529  0.00  0.00    -0.275 OA
ATOM     22  H   UNL     1       3.856  -5.964  -7.001  0.00  0.00    +0.155 HD
BRANCH  19  29
ATOM     23  C   UNL     1       4.408  -6.601  -9.412  0.00  0.00    +0.046 C 
ATOM     24  C   UNL     1       4.174  -7.928  -8.739  0.00  0.00    -0.028 A 
ATOM     25  C   UNL     1       4.457  -9.103  -9.408  0.00  0.00    +0.025 A 
ATOM     26  C   UNL     1       4.237 -10.322  -8.793  0.00  0.00    +0.041 A 
ATOM     27  C   UNL     1       3.738 -10.369  -7.503  0.00  0.00    +0.022 A 
ATOM     28  C   UNL     1       3.459  -9.197  -6.826  0.00  0.00    +0.025 A 
ATOM     29  C   UNL     1       3.679  -7.972  -7.442  0.00  0.00    +0.036 A 
ATOM     30 CL   UNL     1       4.588 -11.796  -9.640  0.00  0.00    -0.084 Cl
ENDBRANCH  19  29
ENDBRANCH  18  20
ENDBRANCH  17  18
ENDBRANCH   1  17
TORSDOF 4
