REMARK  Name = ZINC13897231
REMARK  3 active torsions:
REMARK  status: ('A' for Active; 'I' for Inactive)
REMARK    1  A    between atoms: C_6  and  N_7
REMARK    2  A    between atoms: C_9  and  C_21
REMARK    3  A    between atoms: C_13  and  N_18
REMARK                            x       y       z     vdW  Elec       q    Type
REMARK                         _______ _______ _______ _____ _____    ______ ____
ROOT
ATOM      1  N   UNL     1       4.558   3.725  -1.311  0.00  0.00    -0.325 N 
ATOM      2  C   UNL     1       3.564   3.302  -0.562  0.00  0.00    +0.212 A 
ATOM      3  C   UNL     1       2.402   4.169  -0.280  0.00  0.00    +0.097 A 
ATOM      4  C   UNL     1       1.196   3.540  -0.002  0.00  0.00    +0.030 A 
ATOM      5  C   UNL     1       1.183   2.075  -0.014  0.00  0.00    +0.020 A 
ATOM      6  C   UNL     1      -0.026   1.369  -0.013  0.00  0.00    +0.044 A 
ATOM      7  C   UNL     1      -0.013   0.002  -0.031  0.00  0.00    +0.127 A 
ATOM      8  C   UNL     1       1.189  -0.691  -0.050  0.00  0.00    +0.036 A 
ATOM      9  C   UNL     1       2.392  -0.013  -0.050  0.00  0.00    +0.049 A 
ATOM     10  C   UNL     1       2.403   1.373  -0.031  0.00  0.00    +0.138 A 
ATOM     11  O   UNL     1       3.574   2.056  -0.024  0.00  0.00    -0.439 OA
ATOM     12  H   UNL     1       4.494   4.703  -1.810  0.00  0.00    +0.169 HD
ENDROOT
BRANCH   1  18
ATOM     13  C   UNL     1       6.709   3.007  -0.535  0.00  0.00    +0.027 A 
ATOM     14  C   UNL     1       7.827   2.216  -0.698  0.00  0.00    +0.017 A 
ATOM     15  C   UNL     1       7.929   1.373  -1.792  0.00  0.00    +0.018 A 
ATOM     16  C   UNL     1       6.909   1.315  -2.726  0.00  0.00    +0.017 A 
ATOM     17  C   UNL     1       5.782   2.095  -2.572  0.00  0.00    +0.027 A 
ATOM     18  C   UNL     1       5.673   2.948  -1.470  0.00  0.00    +0.042 A 
ATOM     19 BR   UNL     1       9.469   0.299  -2.012  0.00  0.00    -0.050 Br
ENDBRANCH   1  18
BRANCH   3  20
ATOM     20  C   UNL     1       2.518   5.637  -0.293  0.00  0.00    +0.247 C 
ATOM     21  O   UNL     1       3.587   6.161  -0.540  0.00  0.00    -0.270 OA
ATOM     22  N   UNL     1       1.438   6.401  -0.031  0.00  0.00    -0.325 N 
ATOM     23  H   UNL     1       1.525   7.497  -0.041  0.00  0.00    +0.145 HD
ATOM     24  H   UNL     1       0.471   5.927   0.192  0.00  0.00    +0.145 HD
ENDBRANCH   3  20
BRANCH   7  25
ATOM     25  N   UNL     1      -1.290  -0.745  -0.030  0.00  0.00    +0.056 N 
ATOM     26  O   UNL     1      -2.349  -0.141  -0.013  0.00  0.00    -0.126 OA
ATOM     27  O   UNL     1      -1.284  -1.962  -0.046  0.00  0.00    -0.126 OA
ENDBRANCH   7  25
TORSDOF 3
