REMARK  Name = ZINC39674706
REMARK  8 active torsions:
REMARK  status: ('A' for Active; 'I' for Inactive)
REMARK    1  A    between atoms: C_1  and  C_2
REMARK    2  A    between atoms: C_2  and  C_3
REMARK    3  A    between atoms: C_7  and  C_16
REMARK    4  A    between atoms: N_18  and  C_19
REMARK    5  A    between atoms: C_19  and  C_20
REMARK    6  A    between atoms: C_20  and  C_21
REMARK    7  A    between atoms: C_24  and  C_32
REMARK    8  A    between atoms: C_29  and  C_31
REMARK                            x       y       z     vdW  Elec       q    Type
REMARK                         _______ _______ _______ _____ _____    ______ ____
ROOT
ATOM      1  C   UNL     1      -0.932  -5.401   0.417  0.00  0.00    +0.218 C 
ATOM      2  O   UNL     1      -0.920  -5.604  -0.779  0.00  0.00    -0.275 OA
ATOM      3  N   UNL     1      -0.683  -6.411   1.274  0.00  0.00    -0.315 N 
ATOM      4  H   UNL     1      -0.693  -6.249   2.230  0.00  0.00    +0.149 HD
ENDROOT
BRANCH   1   9
ATOM      5  C   UNL     1      -1.572  -0.547  -0.021  0.00  0.00    +0.215 C 
ATOM      6  O   UNL     1      -2.522   0.204   0.047  0.00  0.00    -0.276 OA
ATOM      7  N   UNL     1      -1.764  -1.881   0.009  0.00  0.00    -0.300 N 
ATOM      8  C   UNL     1      -0.737  -2.947  -0.055  0.00  0.00    +0.121 C 
ATOM      9  C   UNL     1      -1.226  -4.020   0.944  0.00  0.00    +0.100 C 
ATOM     10  C   UNL     1      -2.744  -3.796   1.049  0.00  0.00    -0.004 C 
ATOM     11  C   UNL     1      -3.049  -2.612   0.120  0.00  0.00    +0.115 C 
ATOM     12  C   UNL     1      -3.495  -5.040   0.584  0.00  0.00    -0.010 C 
ATOM     13  C   UNL     1      -5.000  -4.814   0.752  0.00  0.00    -0.082 C 
ATOM     14  N   UNL     1      -5.301  -4.535   2.162  0.00  0.00    +0.379 N 
ATOM     15  C   UNL     1      -4.649  -3.286   2.574  0.00  0.00    -0.082 C 
ATOM     16  C   UNL     1      -3.128  -3.447   2.483  0.00  0.00    -0.010 C 
ATOM     17  H   UNL     1      -6.299  -4.447   2.280  0.00  0.00    -0.086 HD
ATOM     18  H   UNL     1      -4.962  -5.294   2.734  0.00  0.00    -0.086 HD
BRANCH   5  20
ATOM     19  C   UNL     1      -0.239   1.540  -0.150  0.00  0.00    +0.013 C 
ATOM     20  C   UNL     1      -0.177   0.011  -0.138  0.00  0.00    +0.092 C 
ENDBRANCH   5  20
ENDBRANCH   1   9
BRANCH   3  21
ATOM     21  C   UNL     1      -0.397  -7.753   0.761  0.00  0.00    +0.108 C 
BRANCH  21  22
ATOM     22  C   UNL     1      -0.152  -8.705   1.933  0.00  0.00    +0.052 C 
BRANCH  22  23
ATOM     23  C   UNL     1       0.141 -10.086   1.406  0.00  0.00    -0.037 C 
ATOM     24  C   UNL     1       0.197 -10.468   0.104  0.00  0.00    +0.000 A 
ATOM     25  C   UNL     1       0.010  -9.746  -1.103  0.00  0.00    +0.028 A 
ATOM     26  C   UNL     1       0.123 -10.387  -2.315  0.00  0.00    +0.052 A 
ATOM     27  C   UNL     1       0.436 -11.810  -2.393  0.00  0.00    +0.021 A 
ATOM     28  C   UNL     1       0.625 -12.546  -1.279  0.00  0.00    +0.027 A 
ATOM     29  C   UNL     1       0.515 -11.912   0.040  0.00  0.00    +0.043 A 
ATOM     30  N   UNL     1       0.650 -12.403   1.247  0.00  0.00    -0.378 N 
ATOM     31  C   UNL     1       0.440 -11.325   2.219  0.00  0.00    +0.103 C 
ATOM     32  C   UNL     1       1.702 -11.114   3.058  0.00  0.00    +0.035 C 
ATOM     33  H   UNL     1       0.860 -13.326   1.462  0.00  0.00    +0.160 HD
BRANCH  26  34
ATOM     34  C   UNL     1      -0.069  -9.643  -3.524  0.00  0.00    +0.099 C 
ATOM     35  N   UNL     1      -0.222  -9.053  -4.482  0.00  0.00    -0.191 NA
ENDBRANCH  26  34
ENDBRANCH  22  23
ENDBRANCH  21  22
ENDBRANCH   3  21
TORSDOF 6
