REMARK  Name = ZINC32904800
REMARK  8 active torsions:
REMARK  status: ('A' for Active; 'I' for Inactive)
REMARK    1  A    between atoms: C_4  and  C_7
REMARK    2  A    between atoms: C_7  and  C_8
REMARK    3  A    between atoms: C_8  and  C_10
REMARK    4  A    between atoms: C_8  and  N_21
REMARK    5  A    between atoms: N_12  and  N_13
REMARK    6  A    between atoms: N_13  and  C_14
REMARK    7  A    between atoms: N_21  and  S_22
REMARK    8  A    between atoms: S_22  and  C_25
REMARK                            x       y       z     vdW  Elec       q    Type
REMARK                         _______ _______ _______ _____ _____    ______ ____
ROOT
ATOM      1  C   UNL     1      -3.058   3.786  -1.174  0.00  0.00    +0.168 C 
ENDROOT
BRANCH   1   2
ATOM      2  C   UNL     1      -4.281   4.662  -1.096  0.00  0.00    +0.248 C 
ATOM      3  O   UNL     1      -5.262   4.394  -1.757  0.00  0.00    -0.273 OA
ATOM      4  N   UNL     1      -4.285   5.744  -0.292  0.00  0.00    -0.235 N 
ATOM      5  H   UNL     1      -3.396   5.987   0.307  0.00  0.00    +0.173 HD
BRANCH   4   6
ATOM      6  N   UNL     1      -5.423   6.559  -0.220  0.00  0.00    -0.264 N 
ATOM      7  H   UNL     1      -6.312   6.316  -0.820  0.00  0.00    +0.170 HD
BRANCH   6   8
ATOM      8  C   UNL     1      -5.427   7.681   0.614  0.00  0.00    +0.045 A 
ATOM      9  C   UNL     1      -4.306   7.985   1.376  0.00  0.00    +0.027 A 
ATOM     10  C   UNL     1      -4.311   9.098   2.195  0.00  0.00    +0.040 A 
ATOM     11  C   UNL     1      -5.436   9.902   2.266  0.00  0.00    +0.124 A 
ATOM     12  C   UNL     1      -6.556   9.597   1.512  0.00  0.00    +0.040 A 
ATOM     13  C   UNL     1      -6.554   8.489   0.687  0.00  0.00    +0.027 A 
ATOM     14  F   UNL     1      -5.440  10.986   3.072  0.00  0.00    -0.205 F 
ENDBRANCH   6   8
ENDBRANCH   4   6
ENDBRANCH   1   2
BRANCH   1  15
ATOM     15  N   UNL     1      -3.304   2.686  -2.110  0.00  0.00    -0.178 NA
ATOM     16  H   UNL     1      -3.636   1.707  -1.733  0.00  0.00    +0.149 HD
BRANCH  15  17
ATOM     17  S   UNL     1      -2.851   2.830  -3.696  0.00  0.00    +0.062 S 
ATOM     18  O   UNL     1      -3.231   1.621  -4.339  0.00  0.00    -0.153 OA
ATOM     19  O   UNL     1      -3.307   4.103  -4.134  0.00  0.00    -0.153 OA
BRANCH  17  20
ATOM     20  C   UNL     1      -1.090   2.888  -3.731  0.00  0.00    +0.140 A 
ATOM     21  C   UNL     1      -0.372   1.803  -4.201  0.00  0.00    +0.031 A 
ATOM     22  C   UNL     1       1.009   1.850  -4.234  0.00  0.00    +0.002 A 
ATOM     23  C   UNL     1       1.674   2.977  -3.788  0.00  0.00    +0.003 A 
ATOM     24  C   UNL     1       0.959   4.060  -3.313  0.00  0.00    +0.040 A 
ATOM     25  C   UNL     1      -0.424   4.016  -3.284  0.00  0.00    +0.150 A 
ATOM     26  F   UNL     1      -1.125   5.074  -2.820  0.00  0.00    -0.203 F 
ENDBRANCH  17  20
ENDBRANCH  15  17
ENDBRANCH   1  15
BRANCH   1  27
ATOM     27  C   UNL     1      -2.749   3.217   0.212  0.00  0.00    +0.065 C 
BRANCH  27  31
ATOM     28  C   UNL     1       0.837   0.903   0.034  0.00  0.00    +0.000 A 
ATOM     29  C   UNL     1      -0.392   0.284  -0.098  0.00  0.00    +0.000 A 
ATOM     30  C   UNL     1      -1.552   1.034  -0.045  0.00  0.00    +0.004 A 
ATOM     31  C   UNL     1      -1.484   2.401   0.150  0.00  0.00    -0.045 A 
ATOM     32  C   UNL     1      -0.255   3.019   0.281  0.00  0.00    +0.004 A 
ATOM     33  C   UNL     1       0.906   2.270   0.223  0.00  0.00    +0.000 A 
ENDBRANCH  27  31
ENDBRANCH   1  27
TORSDOF 8
