REMARK  Name = ZINC02238655
REMARK  6 active torsions:
REMARK  status: ('A' for Active; 'I' for Inactive)
REMARK    1  A    between atoms: C_4  and  N_7
REMARK    2  A    between atoms: C_11  and  S_13
REMARK    3  A    between atoms: S_13  and  C_14
REMARK    4  A    between atoms: C_20  and  N_22
REMARK    5  A    between atoms: N_22  and  S_23
REMARK    6  A    between atoms: S_23  and  C_26
REMARK                            x       y       z     vdW  Elec       q    Type
REMARK                         _______ _______ _______ _____ _____    ______ ____
ROOT
ATOM      1  C   UNL     1      -0.046   3.130  -1.651  0.00  0.00    +0.072 C 
ATOM      2  C   UNL     1      -0.913   3.415  -0.423  0.00  0.00    +0.016 C 
ATOM      3  C   UNL     1      -0.202   2.906   0.833  0.00  0.00    +0.001 C 
ATOM      4  C   UNL     1       0.030   1.399   0.711  0.00  0.00    +0.002 C 
ATOM      5  C   UNL     1       0.897   1.113  -0.516  0.00  0.00    +0.021 C 
ATOM      6  C   UNL     1       0.187   1.622  -1.772  0.00  0.00    +0.090 C 
ENDROOT
BRANCH   6   7
ATOM      7  N   UNL     1      -1.101   0.939  -1.915  0.00  0.00    -0.186 NA
ATOM      8  H   UNL     1      -1.883   1.276  -1.449  0.00  0.00    +0.148 HD
BRANCH   7   9
ATOM      9  S   UNL     1      -1.223  -0.407  -2.871  0.00  0.00    +0.059 S 
ATOM     10  O   UNL     1      -2.572  -0.847  -2.784  0.00  0.00    -0.153 OA
ATOM     11  O   UNL     1      -0.607  -0.083  -4.110  0.00  0.00    -0.153 OA
BRANCH   9  12
ATOM     12  C   UNL     1      -0.235  -1.663  -2.131  0.00  0.00    +0.105 A 
ATOM     13  C   UNL     1       1.096  -1.793  -2.482  0.00  0.00    +0.030 A 
ATOM     14  C   UNL     1       1.873  -2.774  -1.897  0.00  0.00    +0.022 A 
ATOM     15  C   UNL     1       1.316  -3.635  -0.968  0.00  0.00    +0.041 A 
ATOM     16  C   UNL     1      -0.017  -3.509  -0.621  0.00  0.00    +0.022 A 
ATOM     17  C   UNL     1      -0.792  -2.524  -1.203  0.00  0.00    +0.030 A 
ATOM     18 CL   UNL     1       2.290  -4.873  -0.238  0.00  0.00    -0.084 Cl
ENDBRANCH   9  12
ENDBRANCH   7   9
ENDBRANCH   6   7
BRANCH   1  19
ATOM     19  S   UNL     1      -0.888   3.733  -3.140  0.00  0.00    -0.092 S 
BRANCH  19  24
ATOM     20  N   UNL     1      -1.508   9.498  -3.199  0.00  0.00    -0.292 N 
ATOM     21  C   UNL     1      -1.250   8.151  -2.969  0.00  0.00    +0.187 A 
ATOM     22  N   UNL     1      -0.653   7.578  -1.942  0.00  0.00    -0.125 NA
ATOM     23  N   UNL     1      -0.503   6.211  -1.913  0.00  0.00    -0.133 NA
ATOM     24  C   UNL     1      -0.949   5.480  -2.917  0.00  0.00    +0.160 A 
ATOM     25  S   UNL     1      -1.638   6.734  -3.986  0.00  0.00    -0.024 S 
ATOM     26  H   UNL     1      -2.038   9.766  -3.966  0.00  0.00    +0.154 HD
BRANCH  20  30
ATOM     27  C   UNL     1      -0.011  12.379  -0.593  0.00  0.00    +0.000 A 
ATOM     28  C   UNL     1       0.634  11.163  -0.721  0.00  0.00    +0.002 A 
ATOM     29  C   UNL     1       0.141  10.205  -1.584  0.00  0.00    +0.023 A 
ATOM     30  C   UNL     1      -1.006  10.464  -2.325  0.00  0.00    +0.033 A 
ATOM     31  C   UNL     1      -1.648  11.690  -2.198  0.00  0.00    +0.023 A 
ATOM     32  C   UNL     1      -1.152  12.641  -1.329  0.00  0.00    +0.002 A 
ENDBRANCH  20  30
ENDBRANCH  19  24
ENDBRANCH   1  19
TORSDOF 6
