REMARK  Name = ZINC59417742
REMARK  3 active torsions:
REMARK  status: ('A' for Active; 'I' for Inactive)
REMARK    1  A    between atoms: C_8  and  C_10
REMARK    2  A    between atoms: N_12  and  N_13
REMARK    3  A    between atoms: C_14  and  C_15
REMARK                            x       y       z     vdW  Elec       q    Type
REMARK                         _______ _______ _______ _____ _____    ______ ____
ROOT
ATOM      1  C   UNL     1       3.796  -3.324  -0.053  0.00  0.00    +0.299 C 
ATOM      2  O   UNL     1       3.268  -4.421  -0.054  0.00  0.00    -0.265 OA
ATOM      3  N   UNL     1       5.140  -3.222  -0.065  0.00  0.00    -0.200 N 
ATOM      4  H   UNL     1       5.560  -2.348  -0.065  0.00  0.00    +0.178 HD
ENDROOT
BRANCH   1  12
ATOM      5  C   UNL     1      -0.017   1.362   0.009  0.00  0.00    +0.001 A 
ATOM      6  C   UNL     1       1.171   2.082   0.002  0.00  0.00    +0.004 A 
ATOM      7  C   UNL     1       2.387   1.434  -0.013  0.00  0.00    +0.047 A 
ATOM      8  C   UNL     1       2.431   0.045  -0.021  0.00  0.00    +0.136 A 
ATOM      9  C   UNL     1       1.225  -0.680  -0.013  0.00  0.00    +0.021 A 
ATOM     10  C   UNL     1       0.002  -0.004   0.002  0.00  0.00    +0.011 A 
ATOM     11  C   UNL     1       1.609  -2.091  -0.025  0.00  0.00    +0.063 A 
ATOM     12  C   UNL     1       2.968  -2.110  -0.038  0.00  0.00    +0.192 A 
ATOM     13  O   UNL     1       3.442  -0.847  -0.036  0.00  0.00    -0.450 OA
ENDBRANCH   1  12
BRANCH   3  14
ATOM     14  N   UNL     1       5.929  -4.379  -0.079  0.00  0.00    -0.187 NA
ATOM     15  C   UNL     1       7.225  -4.282  -0.091  0.00  0.00    +0.140 C 
BRANCH  15  16
ATOM     16  C   UNL     1       8.055  -5.497  -0.106  0.00  0.00    +0.020 A 
ATOM     17  C   UNL     1       9.414  -5.554  -0.113  0.00  0.00    +0.093 A 
ATOM     18  N   UNL     1       9.819  -6.855  -0.126  0.00  0.00    -0.360 N 
ATOM     19  H   UNL     1      10.744  -7.148  -0.133  0.00  0.00    +0.165 HD
ATOM     20  C   UNL     1       8.726  -7.696  -0.127  0.00  0.00    +0.047 A 
ATOM     21  C   UNL     1       7.575  -6.891  -0.109  0.00  0.00    +0.009 A 
ATOM     22  C   UNL     1       6.312  -7.478  -0.100  0.00  0.00    +0.026 A 
ATOM     23  C   UNL     1       6.199  -8.852  -0.106  0.00  0.00    +0.019 A 
ATOM     24  C   UNL     1       7.335  -9.649  -0.120  0.00  0.00    +0.017 A 
ATOM     25  C   UNL     1       8.591  -9.081  -0.138  0.00  0.00    +0.027 A 
ATOM     26 BR   UNL     1       4.487  -9.655  -0.094  0.00  0.00    -0.050 Br
ENDBRANCH  15  16
ENDBRANCH   3  14
TORSDOF 3
