REMARK  Name = ZINC18108875
REMARK  5 active torsions:
REMARK  status: ('A' for Active; 'I' for Inactive)
REMARK    1  A    between atoms: C_1  and  C_2
REMARK    2  A    between atoms: C_9  and  C_14
REMARK    3  A    between atoms: N_16  and  C_17
REMARK    4  A    between atoms: C_17  and  C_19
REMARK    5  A    between atoms: C_17  and  C_20
REMARK                            x       y       z     vdW  Elec       q    Type
REMARK                         _______ _______ _______ _____ _____    ______ ____
ROOT
ATOM      1  C   UNL     1      -0.820  -6.372   1.671  0.00  0.00    +0.245 C 
ATOM      2  O   UNL     1      -1.906  -6.701   1.234  0.00  0.00    -0.270 OA
ATOM      3  N   UNL     1       0.004  -7.300   2.196  0.00  0.00    -0.305 N 
ATOM      4  H   UNL     1       0.870  -7.037   2.545  0.00  0.00    +0.150 HD
ENDROOT
BRANCH   1  12
ATOM      5  C   UNL     1      -0.019   1.526   0.010  0.00  0.00    +0.029 C 
ATOM      6  C   UNL     1       0.002  -0.004   0.002  0.00  0.00    +0.134 C 
ATOM      7  C   UNL     1      -1.408  -0.527   0.019  0.00  0.00    +0.230 C 
ATOM      8  O   UNL     1      -2.287   0.178  -0.430  0.00  0.00    -0.274 OA
ATOM      9  N   UNL     1      -1.745  -1.721   0.500  0.00  0.00    -0.284 N 
ATOM     10  C   UNL     1      -0.877  -2.666   1.042  0.00  0.00    +0.048 A 
ATOM     11  C   UNL     1      -1.262  -3.997   1.085  0.00  0.00    +0.037 A 
ATOM     12  C   UNL     1      -0.406  -4.957   1.629  0.00  0.00    +0.039 A 
ATOM     13  C   UNL     1       0.842  -4.580   2.133  0.00  0.00    +0.014 A 
ATOM     14  C   UNL     1       1.226  -3.258   2.090  0.00  0.00    +0.017 A 
ATOM     15  C   UNL     1       0.377  -2.304   1.547  0.00  0.00    +0.030 A 
ATOM     16  S   UNL     1       0.874  -0.610   1.478  0.00  0.00    -0.111 S 
ATOM     17  H   UNL     1      -2.685  -1.956   0.470  0.00  0.00    +0.155 HD
ENDBRANCH   1  12
BRANCH   3  18
ATOM     18  C   UNL     1      -0.407  -8.705   2.239  0.00  0.00    +0.101 C 
ATOM     19  C   UNL     1      -0.073  -9.375   0.904  0.00  0.00    +0.033 C 
BRANCH  18  20
ATOM     20  C   UNL     1       0.326  -9.410   3.352  0.00  0.00    -0.024 A 
ATOM     21  C   UNL     1       1.658  -9.127   3.588  0.00  0.00    +0.009 A 
ATOM     22  C   UNL     1       2.334  -9.772   4.606  0.00  0.00    +0.050 A 
ATOM     23  C   UNL     1       1.676 -10.704   5.395  0.00  0.00    +0.162 A 
ATOM     24  C   UNL     1       0.336 -10.987   5.159  0.00  0.00    +0.162 A 
ATOM     25  C   UNL     1      -0.337 -10.333   4.138  0.00  0.00    +0.055 A 
ATOM     26  O   UNL     1      -0.330 -11.893   5.926  0.00  0.00    -0.485 OA
ATOM     27  C   UNL     1       0.470 -12.794   6.699  0.00  0.00    +0.270 C 
ATOM     28  C   UNL     1       1.569 -11.982   7.398  0.00  0.00    +0.270 C 
ATOM     29  O   UNL     1       2.356 -11.334   6.392  0.00  0.00    -0.485 OA
ENDBRANCH  18  20
ENDBRANCH   3  18
TORSDOF 3
