REMARK  Name = ZINC11582519
REMARK  7 active torsions:
REMARK  status: ('A' for Active; 'I' for Inactive)
REMARK    1  A    between atoms: C_1  and  C_2
REMARK    2  A    between atoms: C_3  and  N_15
REMARK    3  A    between atoms: N_6  and  C_9
REMARK    4  A    between atoms: N_7  and  C_8
REMARK    5  A    between atoms: C_19  and  C_20
REMARK    6  A    between atoms: C_21  and  C_22
REMARK    7  A    between atoms: C_25  and  N_28
REMARK                            x       y       z     vdW  Elec       q    Type
REMARK                         _______ _______ _______ _____ _____    ______ ____
ROOT
ATOM      1  N   UNL     1      -1.814   1.473   0.793  0.00  0.00    -0.217 N 
ATOM      2  C   UNL     1      -2.724   1.063  -0.076  0.00  0.00    +0.263 C 
ATOM      3  O   UNL     1      -2.595   0.030  -0.702  0.00  0.00    -0.269 OA
ATOM      4  C   UNL     1      -3.916   1.942  -0.243  0.00  0.00    +0.078 C 
ATOM      5  C   UNL     1      -5.040   1.773  -1.085  0.00  0.00    +0.040 C 
ATOM      6  S   UNL     1      -3.559   3.226   0.869  0.00  0.00    -0.061 S 
ATOM      7  C   UNL     1      -1.994   2.623   1.474  0.00  0.00    +0.125 C 
ATOM      8  S   UNL     1      -0.963   3.335   2.640  0.00  0.00    -0.027 S 
ENDROOT
BRANCH   1  11
ATOM      9  C   UNL     1       0.501   1.192  -1.205  0.00  0.00    +0.067 C 
ATOM     10  C   UNL     1       0.381   0.553   0.155  0.00  0.00    +0.060 A 
ATOM     11  C   UNL     1      -0.659   0.705   1.011  0.00  0.00    +0.129 A 
ATOM     12  C   UNL     1      -0.356  -0.090   2.204  0.00  0.00    +0.294 A 
ATOM     13  O   UNL     1      -1.053  -0.206   3.195  0.00  0.00    -0.264 OA
ATOM     14  N   UNL     1       0.845  -0.668   1.993  0.00  0.00    -0.216 N 
ATOM     15  N   UNL     1       1.303  -0.274   0.731  0.00  0.00    -0.282 N 
ATOM     16  C   UNL     1       2.571  -0.684   0.123  0.00  0.00    +0.171 C 
BRANCH  14  17
ATOM     17  C   UNL     1       1.515  -1.515   2.881  0.00  0.00    +0.067 A 
ATOM     18  C   UNL     1       2.039  -2.721   2.433  0.00  0.00    +0.028 A 
ATOM     19  C   UNL     1       2.705  -3.551   3.312  0.00  0.00    +0.002 A 
ATOM     20  C   UNL     1       2.842  -3.189   4.640  0.00  0.00    +0.000 A 
ATOM     21  C   UNL     1       2.317  -1.992   5.090  0.00  0.00    +0.002 A 
ATOM     22  C   UNL     1       1.655  -1.153   4.215  0.00  0.00    +0.028 A 
ENDBRANCH  14  17
ENDBRANCH   1  11
BRANCH   5  23
ATOM     23  C   UNL     1      -5.412   0.509  -1.494  0.00  0.00    +0.043 C 
ATOM     24  C   UNL     1      -6.422   0.352  -2.465  0.00  0.00    +0.028 C 
ATOM     25 CL   UNL     1      -4.637  -0.887  -0.814  0.00  0.00    -0.083 Cl
BRANCH  24  26
ATOM     26  C   UNL     1      -6.699  -0.924  -2.992  0.00  0.00    -0.024 A 
ATOM     27  C   UNL     1      -5.643  -1.804  -3.318  0.00  0.00    +0.010 A 
ATOM     28  C   UNL     1      -5.925  -3.040  -3.824  0.00  0.00    +0.033 A 
ATOM     29  C   UNL     1      -7.242  -3.429  -4.028  0.00  0.00    +0.126 A 
ATOM     30  C   UNL     1      -8.288  -2.571  -3.717  0.00  0.00    +0.033 A 
ATOM     31  C   UNL     1      -8.033  -1.332  -3.205  0.00  0.00    +0.010 A 
BRANCH  29  32
ATOM     32  N   UNL     1      -7.533  -4.770  -4.583  0.00  0.00    +0.056 N 
ATOM     33  O   UNL     1      -8.780  -5.145  -4.779  0.00  0.00    -0.126 OA
ATOM     34  O   UNL     1      -6.545  -5.588  -4.880  0.00  0.00    -0.126 OA
ENDBRANCH  29  32
ENDBRANCH  24  26
ENDBRANCH   5  23
TORSDOF 5
