REMARK  Name = ZINC08589469
REMARK  5 active torsions:
REMARK  status: ('A' for Active; 'I' for Inactive)
REMARK    1  A    between atoms: C_4  and  S_7
REMARK    2  A    between atoms: S_7  and  C_10
REMARK    3  A    between atoms: C_15  and  C_22
REMARK    4  A    between atoms: N_24  and  C_25
REMARK    5  A    between atoms: C_25  and  C_26
REMARK                            x       y       z     vdW  Elec       q    Type
REMARK                         _______ _______ _______ _____ _____    ______ ____
ROOT
ATOM      1  C   UNL     1       4.406  -1.094   1.637  0.00  0.00    +0.204 A 
ATOM      2  C   UNL     1       4.700   0.004   2.463  0.00  0.00    +0.218 A 
ATOM      3  C   UNL     1       5.090  -0.266   3.861  0.00  0.00    +0.047 A 
ATOM      4  C   UNL     1       5.396   0.774   4.740  0.00  0.00    +0.014 A 
ATOM      5  C   UNL     1       5.754   0.494   6.027  0.00  0.00    +0.014 A 
ATOM      6  C   UNL     1       5.817  -0.831   6.473  0.00  0.00    +0.039 A 
ATOM      7  C   UNL     1       5.515  -1.878   5.608  0.00  0.00    +0.039 A 
ATOM      8  C   UNL     1       5.149  -1.601   4.295  0.00  0.00    +0.054 A 
ATOM      9  N   UNL     1       4.843  -2.618   3.415  0.00  0.00    -0.320 N 
ATOM     10  H   UNL     1       4.886  -3.538   3.720  0.00  0.00    +0.169 HD
ATOM     11  C   UNL     1       4.480  -2.361   2.132  0.00  0.00    +0.278 A 
ATOM     12  O   UNL     1       4.187  -3.398   1.317  0.00  0.00    -0.266 OA
ATOM     13  O   UNL     1       4.634   1.146   2.038  0.00  0.00    -0.285 OA
ENDROOT
BRANCH   6  14
ATOM     14  C   UNL     1       6.207  -1.120   7.871  0.00  0.00    +0.244 C 
ATOM     15  O   UNL     1       6.262  -2.269   8.261  0.00  0.00    -0.270 OA
ATOM     16  N   UNL     1       6.500  -0.108   8.711  0.00  0.00    -0.307 N 
ATOM     17  H   UNL     1       6.455   0.810   8.400  0.00  0.00    +0.149 HD
BRANCH  16  18
ATOM     18  C   UNL     1       6.885  -0.394  10.095  0.00  0.00    +0.141 C 
BRANCH  18  19
ATOM     19  C   UNL     1       7.158   0.900  10.818  0.00  0.00    -0.012 A 
ATOM     20  C   UNL     1       8.459   1.334  10.991  0.00  0.00    +0.006 A 
ATOM     21  C   UNL     1       8.710   2.520  11.654  0.00  0.00    +0.000 A 
ATOM     22  C   UNL     1       7.660   3.274  12.145  0.00  0.00    +0.001 A 
ATOM     23  C   UNL     1       6.359   2.841  11.973  0.00  0.00    +0.020 A 
ATOM     24  C   UNL     1       6.107   1.656  11.304  0.00  0.00    +0.046 A 
ATOM     25 CL   UNL     1       4.473   1.115  11.082  0.00  0.00    -0.083 Cl
ENDBRANCH  18  19
ENDBRANCH  16  18
ENDBRANCH   6  14
BRANCH   1  26
ATOM     26  S   UNL     1       3.934  -0.832  -0.041  0.00  0.00    +0.034 S 
ATOM     27  O   UNL     1       3.674  -2.114  -0.595  0.00  0.00    -0.164 OA
ATOM     28  O   UNL     1       4.890   0.060  -0.597  0.00  0.00    -0.164 OA
BRANCH  26  32
ATOM     29  C   UNL     1      -0.017   1.378   0.010  0.00  0.00    +0.000 A 
ATOM     30  C   UNL     1       1.171   2.086   0.002  0.00  0.00    +0.002 A 
ATOM     31  C   UNL     1       2.377   1.411  -0.013  0.00  0.00    +0.027 A 
ATOM     32  C   UNL     1       2.396   0.029  -0.020  0.00  0.00    +0.094 A 
ATOM     33  C   UNL     1       1.208  -0.679  -0.012  0.00  0.00    +0.027 A 
ATOM     34  C   UNL     1       0.002  -0.004   0.002  0.00  0.00    +0.002 A 
ENDBRANCH  26  32
ENDBRANCH   1  26
TORSDOF 5
