REMARK  Name = ZINC34774822
REMARK  8 active torsions:
REMARK  status: ('A' for Active; 'I' for Inactive)
REMARK    1  A    between atoms: C_1  and  N_2
REMARK    2  A    between atoms: N_2  and  C_3
REMARK    3  A    between atoms: C_4  and  C_6
REMARK    4  A    between atoms: C_6  and  N_7
REMARK    5  A    between atoms: C_15  and  C_31
REMARK    6  A    between atoms: C_20  and  S_22
REMARK    7  A    between atoms: S_22  and  C_23
REMARK    8  A    between atoms: C_23  and  C_24
REMARK                            x       y       z     vdW  Elec       q    Type
REMARK                         _______ _______ _______ _____ _____    ______ ____
ROOT
ATOM      1  N   UNL     1      -4.563  -1.926   1.100  0.00  0.00    +0.387 N 
ATOM      2  C   UNL     1      -5.697  -2.748   1.544  0.00  0.00    -0.059 C 
ATOM      3  C   UNL     1      -5.480  -4.198   1.099  0.00  0.00    +0.088 C 
ATOM      4  N   UNL     1      -5.254  -4.211  -0.355  0.00  0.00    -0.318 N 
ATOM      5  C   UNL     1      -4.245  -3.294  -0.907  0.00  0.00    +0.088 C 
ATOM      6  C   UNL     1      -4.519  -1.887  -0.368  0.00  0.00    -0.059 C 
ATOM      7  C   UNL     1      -5.971  -5.060  -1.178  0.00  0.00    +0.134 A 
ATOM      8  C   UNL     1      -5.679  -6.451  -1.203  0.00  0.00    +0.055 A 
ATOM      9  C   UNL     1      -4.677  -7.204  -0.453  0.00  0.00    +0.002 A 
ATOM     10  C   UNL     1      -4.587  -8.540  -0.647  0.00  0.00    +0.056 A 
ATOM     11  S   UNL     1      -5.851  -8.871  -1.859  0.00  0.00    -0.076 S 
ATOM     12  C   UNL     1      -6.470  -7.223  -2.077  0.00  0.00    +0.115 A 
ATOM     13  N   UNL     1      -7.415  -6.675  -2.817  0.00  0.00    -0.214 NA
ATOM     14  C   UNL     1      -7.643  -5.370  -2.754  0.00  0.00    +0.191 A 
ATOM     15  N   UNL     1      -6.937  -4.587  -1.947  0.00  0.00    -0.206 NA
ATOM     16  H   UNL     1      -3.705  -2.324   1.450  0.00  0.00    -0.081 HD
ENDROOT
BRANCH   9  17
ATOM     17  C   UNL     1      -3.776  -6.517   0.503  0.00  0.00    -0.017 A 
ATOM     18  C   UNL     1      -2.921  -5.509   0.058  0.00  0.00    +0.008 A 
ATOM     19  C   UNL     1      -2.085  -4.873   0.953  0.00  0.00    +0.001 A 
ATOM     20  C   UNL     1      -2.093  -5.234   2.288  0.00  0.00    +0.000 A 
ATOM     21  C   UNL     1      -2.939  -6.233   2.735  0.00  0.00    +0.001 A 
ATOM     22  C   UNL     1      -3.784  -6.872   1.851  0.00  0.00    +0.008 A 
ENDBRANCH   9  17
BRANCH   1  23
ATOM     23  C   UNL     1      -4.717  -0.561   1.620  0.00  0.00    +0.019 C 
BRANCH  23  27
ATOM     24  C   UNL     1      -4.679   0.538   5.287  0.00  0.00    +0.131 C 
ATOM     25  N   UNL     1      -4.755   0.561   3.824  0.00  0.00    -0.309 N 
ATOM     26  C   UNL     1      -4.956   1.831   3.121  0.00  0.00    +0.131 C 
ATOM     27  C   UNL     1      -4.639  -0.585   3.125  0.00  0.00    +0.199 C 
ATOM     28  O   UNL     1      -4.473  -1.636   3.706  0.00  0.00    -0.278 OA
ENDBRANCH  23  27
ENDBRANCH   1  23
BRANCH  14  29
ATOM     29  S   UNL     1      -8.911  -4.664  -3.753  0.00  0.00    -0.077 S 
BRANCH  29  30
ATOM     30  C   UNL     1      -9.591  -6.079  -4.662  0.00  0.00    +0.173 C 
BRANCH  30  31
ATOM     31  C   UNL     1     -10.700  -5.608  -5.567  0.00  0.00    +0.226 C 
ATOM     32  O   UNL     1     -11.002  -4.433  -5.597  0.00  0.00    -0.275 OA
ATOM     33  N   UNL     1     -11.357  -6.492  -6.345  0.00  0.00    -0.301 N 
ATOM     34  C   UNL     1     -11.101  -7.938  -6.403  0.00  0.00    +0.108 C 
ATOM     35  C   UNL     1     -12.072  -8.534  -7.444  0.00  0.00    +0.020 C 
ATOM     36  C   UNL     1     -12.433  -7.309  -8.324  0.00  0.00    +0.020 C 
ATOM     37  C   UNL     1     -12.457  -6.169  -7.272  0.00  0.00    +0.108 C 
ENDBRANCH  30  31
ENDBRANCH  29  30
ENDBRANCH  14  29
TORSDOF 6
