REMARK  Name = ZINC42350484
REMARK  3 active torsions:
REMARK  status: ('A' for Active; 'I' for Inactive)
REMARK    1  A    between atoms: C_3  and  N_9
REMARK    2  A    between atoms: N_9  and  S_10
REMARK    3  A    between atoms: S_10  and  C_13
REMARK                            x       y       z     vdW  Elec       q    Type
REMARK                         _______ _______ _______ _____ _____    ______ ____
ROOT
ATOM      1  N   UNL     1       3.583   2.127  -0.021  0.00  0.00    -0.096 NA
ENDROOT
BRANCH   1   4
ATOM      2  C   UNL     1       1.212  -0.682  -0.089  0.00  0.00    +0.040 A 
ATOM      3  C   UNL     1       2.400   0.024  -0.082  0.00  0.00    +0.031 A 
ATOM      4  C   UNL     1       2.382   1.411  -0.029  0.00  0.00    +0.093 A 
ATOM      5  C   UNL     1       1.168   2.087   0.017  0.00  0.00    +0.068 A 
ATOM      6  C   UNL     1      -0.017   1.376   0.009  0.00  0.00    +0.060 A 
ATOM      7  C   UNL     1       0.004  -0.007  -0.044  0.00  0.00    +0.125 A 
ATOM      8  F   UNL     1      -1.156  -0.700  -0.051  0.00  0.00    -0.205 F 
ATOM      9 CL   UNL     1       1.141   3.821   0.084  0.00  0.00    -0.081 Cl
ENDBRANCH   1   4
BRANCH   1  10
ATOM     10  S   UNL     1       5.027   1.322   0.086  0.00  0.00    +0.099 S 
ATOM     11  O   UNL     1       5.018   0.636   1.330  0.00  0.00    -0.148 OA
ATOM     12  O   UNL     1       5.210   0.651  -1.153  0.00  0.00    -0.148 OA
BRANCH  10  13
ATOM     13  C   UNL     1       6.296   2.540   0.192  0.00  0.00    +0.161 A 
ATOM     14  C   UNL     1       7.637   2.369   0.289  0.00  0.00    +0.052 A 
ATOM     15  C   UNL     1       8.452   3.484   0.360  0.00  0.00    +0.025 A 
ATOM     16  C   UNL     1       7.885   4.715   0.331  0.00  0.00    +0.048 A 
ATOM     17  S   UNL     1       6.149   4.319   0.191  0.00  0.00    -0.076 S 
ATOM     18 BR   UNL     1       8.383   0.632   0.328  0.00  0.00    -0.048 Br
ENDBRANCH  10  13
ENDBRANCH   1  10
TORSDOF 3
