REMARK  Name = ZINC23590663
REMARK  6 active torsions:
REMARK  status: ('A' for Active; 'I' for Inactive)
REMARK    1  A    between atoms: C_1  and  C_2
REMARK    2  A    between atoms: C_2  and  C_4
REMARK    3  A    between atoms: C_2  and  S_17
REMARK    4  A    between atoms: N_6  and  C_7
REMARK    5  A    between atoms: C_9  and  N_14
REMARK    6  A    between atoms: S_17  and  C_18
REMARK                            x       y       z     vdW  Elec       q    Type
REMARK                         _______ _______ _______ _____ _____    ______ ____
ROOT
ATOM      1  S   UNL     1       0.753  -0.682   2.153  0.00  0.00    -0.073 S 
ENDROOT
BRANCH   1   2
ATOM      2  C   UNL     1      -0.389  -0.066   3.345  0.00  0.00    +0.192 A 
ATOM      3  N   UNL     1      -1.452   0.618   2.937  0.00  0.00    -0.207 NA
ATOM      4  C   UNL     1      -2.345   1.100   3.784  0.00  0.00    +0.129 A 
ATOM      5  C   UNL     1      -2.163   0.891   5.181  0.00  0.00    +0.051 A 
ATOM      6  C   UNL     1      -3.011   1.333   6.290  0.00  0.00    -0.025 A 
ATOM      7  C   UNL     1      -2.612   1.002   7.534  0.00  0.00    -0.004 A 
ATOM      8  S   UNL     1      -1.105   0.096   7.311  0.00  0.00    -0.073 S 
ATOM      9  C   UNL     1      -1.012   0.163   5.541  0.00  0.00    +0.115 A 
ATOM     10  N   UNL     1      -0.169  -0.291   4.634  0.00  0.00    -0.214 NA
ATOM     11  C   UNL     1      -3.299   1.332   8.825  0.00  0.00    +0.043 C 
ATOM     12  C   UNL     1      -4.340   2.427   8.554  0.00  0.00    +0.005 C 
ATOM     13  C   UNL     1      -5.160   2.032   7.323  0.00  0.00    +0.005 C 
ATOM     14  C   UNL     1      -4.292   2.132   6.068  0.00  0.00    +0.037 C 
ATOM     15  N   UNL     1      -3.441   1.804   3.320  0.00  0.00    -0.343 N 
ATOM     16  H   UNL     1      -4.180   2.202   4.030  0.00  0.00    +0.144 HD
ATOM     17  H   UNL     1      -3.573   1.965   2.240  0.00  0.00    +0.144 HD
ENDBRANCH   1   2
BRANCH   1  19
ATOM     18  C   UNL     1      -0.023   1.434   0.609  0.00  0.00    +0.029 C 
ATOM     19  C   UNL     1      -0.034  -0.096   0.632  0.00  0.00    +0.137 C 
BRANCH  19  20
ATOM     20  C   UNL     1       0.723  -0.621  -0.560  0.00  0.00    +0.230 C 
ATOM     21  O   UNL     1       1.867  -1.002  -0.432  0.00  0.00    -0.274 OA
ATOM     22  N   UNL     1       0.128  -0.668  -1.769  0.00  0.00    -0.283 N 
ATOM     23  H   UNL     1      -0.874  -0.237  -1.905  0.00  0.00    +0.155 HD
BRANCH  22  24
ATOM     24  C   UNL     1       0.786  -1.267  -2.849  0.00  0.00    +0.054 A 
ATOM     25  C   UNL     1       1.617  -2.360  -2.640  0.00  0.00    +0.057 A 
ATOM     26  C   UNL     1       2.265  -2.948  -3.708  0.00  0.00    +0.128 A 
ATOM     27  C   UNL     1       2.088  -2.450  -4.987  0.00  0.00    +0.034 A 
ATOM     28  C   UNL     1       1.261  -1.362  -5.199  0.00  0.00    +0.024 A 
ATOM     29  C   UNL     1       0.605  -0.772  -4.135  0.00  0.00    +0.062 A 
ATOM     30 CL   UNL     1      -0.438   0.589  -4.404  0.00  0.00    -0.082 Cl
BRANCH  26  31
ATOM     31  N   UNL     1       3.151  -4.113  -3.486  0.00  0.00    +0.056 N 
ATOM     32  O   UNL     1       3.307  -4.552  -2.360  0.00  0.00    -0.126 OA
ATOM     33  O   UNL     1       3.722  -4.632  -4.427  0.00  0.00    -0.126 OA
ENDBRANCH  26  31
ENDBRANCH  22  24
ENDBRANCH  19  20
ENDBRANCH   1  19
TORSDOF 5
