REMARK  Name = ZINC39494302
REMARK  11 active torsions:
REMARK  status: ('A' for Active; 'I' for Inactive)
REMARK    1  A    between atoms: C_4  and  C_7
REMARK    2  A    between atoms: C_7  and  C_9
REMARK    3  A    between atoms: C_7  and  N_30
REMARK    4  A    between atoms: C_9  and  C_11
REMARK    5  A    between atoms: C_9  and  S_20
REMARK    6  A    between atoms: C_11  and  C_13
REMARK    7  A    between atoms: C_18  and  O_19
REMARK    8  A    between atoms: S_20  and  O_23
REMARK    9  A    between atoms: O_23  and  C_24
REMARK   10  A    between atoms: C_31  and  C_33
REMARK   11  A    between atoms: C_38  and  O_39
REMARK                            x       y       z     vdW  Elec       q    Type
REMARK                         _______ _______ _______ _____ _____    ______ ____
ROOT
ATOM      1  C   UNL     1       4.126   0.555   1.911  0.00  0.00    +0.266 C 
ENDROOT
BRANCH   1   2
ATOM      2  S   UNL     1       2.821   1.274   2.946  0.00  0.00    +0.133 S 
ATOM      3  O   UNL     1       3.203   1.233   4.314  0.00  0.00    -0.136 OA
ATOM      4  O   UNL     1       2.343   2.479   2.364  0.00  0.00    -0.136 OA
BRANCH   2   5
ATOM      5  O   UNL     1       1.656   0.301   2.838  0.00  0.00    -0.346 OA
BRANCH   5   6
ATOM      6  C   UNL     1       1.818  -0.838   3.561  0.00  0.00    +0.156 A 
ATOM      7  C   UNL     1       2.060  -2.042   2.915  0.00  0.00    +0.048 A 
ATOM      8  C   UNL     1       2.225  -3.199   3.652  0.00  0.00    +0.004 A 
ATOM      9  C   UNL     1       2.149  -3.158   5.032  0.00  0.00    +0.000 A 
ATOM     10  C   UNL     1       1.908  -1.959   5.678  0.00  0.00    +0.004 A 
ATOM     11  C   UNL     1       1.748  -0.798   4.946  0.00  0.00    +0.048 A 
ENDBRANCH   5   6
ENDBRANCH   2   5
ENDBRANCH   1   2
BRANCH   1  12
ATOM     12  C   UNL     1       5.455   1.161   2.284  0.00  0.00    +0.196 C 
ATOM     13  O   UNL     1       5.507   2.303   2.690  0.00  0.00    -0.290 OA
BRANCH  12  14
ATOM     14  C   UNL     1       6.684   0.370   2.155  0.00  0.00    +0.061 A 
ATOM     15  C   UNL     1       6.617  -0.990   1.829  0.00  0.00    +0.015 A 
ATOM     16  C   UNL     1       7.775  -1.725   1.709  0.00  0.00    +0.001 A 
ATOM     17  C   UNL     1       9.009  -1.125   1.910  0.00  0.00    +0.004 A 
ATOM     18  C   UNL     1       9.091   0.214   2.233  0.00  0.00    +0.046 A 
ATOM     19  C   UNL     1       7.937   0.974   2.352  0.00  0.00    +0.127 A 
BRANCH  19  20
ATOM     20  O   UNL     1       8.017   2.291   2.663  0.00  0.00    -0.506 OA
ATOM     21  H   UNL     1       8.002   2.473   3.613  0.00  0.00    +0.292 HD
ENDBRANCH  19  20
ENDBRANCH  12  14
ENDBRANCH   1  12
BRANCH   1  22
ATOM     22  C   UNL     1       3.828   0.845   0.439  0.00  0.00    +0.139 C 
BRANCH  22  26
ATOM     23  C   UNL     1       0.089  -0.921  -0.633  0.00  0.00    +0.000 A 
ATOM     24  C   UNL     1       0.158   0.429  -0.344  0.00  0.00    +0.000 A 
ATOM     25  C   UNL     1       1.368   1.001   0.003  0.00  0.00    +0.005 A 
ATOM     26  C   UNL     1       2.509   0.222   0.061  0.00  0.00    -0.025 A 
ATOM     27  C   UNL     1       2.439  -1.128  -0.227  0.00  0.00    +0.005 A 
ATOM     28  C   UNL     1       1.230  -1.699  -0.576  0.00  0.00    +0.000 A 
ENDBRANCH  22  26
BRANCH  22  29
ATOM     29  N   UNL     1       4.891   0.280  -0.395  0.00  0.00    -0.302 N 
ATOM     30  C   UNL     1       5.184   0.841  -1.585  0.00  0.00    +0.248 C 
ATOM     31  O   UNL     1       4.565   1.816  -1.967  0.00  0.00    -0.270 OA
ATOM     32  H   UNL     1       5.385  -0.497  -0.091  0.00  0.00    +0.150 HD
BRANCH  30  33
ATOM     33  C   UNL     1       6.255   0.273  -2.426  0.00  0.00    +0.078 A 
ATOM     34  C   UNL     1       6.964  -0.851  -1.994  0.00  0.00    +0.017 A 
ATOM     35  C   UNL     1       7.963  -1.377  -2.784  0.00  0.00    +0.001 A 
ATOM     36  C   UNL     1       8.268  -0.798  -4.005  0.00  0.00    +0.004 A 
ATOM     37  C   UNL     1       7.574   0.312  -4.444  0.00  0.00    +0.046 A 
ATOM     38  C   UNL     1       6.562   0.852  -3.664  0.00  0.00    +0.129 A 
BRANCH  38  39
ATOM     39  O   UNL     1       5.876   1.940  -4.096  0.00  0.00    -0.506 OA
ATOM     40  H   UNL     1       6.266   2.783  -3.828  0.00  0.00    +0.292 HD
ENDBRANCH  38  39
ENDBRANCH  30  33
ENDBRANCH  22  29
ENDBRANCH   1  22
TORSDOF 11
