REMARK  Name = ZINC35664408
REMARK  11 active torsions:
REMARK  status: ('A' for Active; 'I' for Inactive)
REMARK    1  A    between atoms: C_1  and  C_2
REMARK    2  A    between atoms: C_2  and  N_3
REMARK    3  A    between atoms: C_4  and  C_21
REMARK    4  A    between atoms: C_5  and  C_16
REMARK    5  A    between atoms: C_6  and  C_11
REMARK    6  A    between atoms: C_16  and  O_18
REMARK    7  A    between atoms: O_18  and  C_19
REMARK    8  A    between atoms: C_19  and  C_20
REMARK    9  A    between atoms: C_21  and  N_22
REMARK   10  A    between atoms: C_29  and  C_31
REMARK   11  A    between atoms: C_34  and  C_37
REMARK                            x       y       z     vdW  Elec       q    Type
REMARK                         _______ _______ _______ _____ _____    ______ ____
ROOT
ATOM      1  N   UNL     1      -1.900  -0.029   0.092  0.00  0.00    -0.261 N 
ATOM      2  C   UNL     1      -1.938  -0.866   1.170  0.00  0.00    +0.010 C 
ATOM      3  C   UNL     1      -2.740  -1.952   1.181  0.00  0.00    +0.076 C 
ATOM      4  C   UNL     1      -3.595  -2.210  -0.043  0.00  0.00    +0.144 C 
ATOM      5  N   UNL     1      -3.481  -1.247  -1.151  0.00  0.00    -0.288 N 
ATOM      6  C   UNL     1      -2.638  -0.206  -1.012  0.00  0.00    +0.307 C 
ATOM      7  O   UNL     1      -2.539   0.597  -1.920  0.00  0.00    -0.252 OA
ATOM      8  H   UNL     1      -4.003  -1.359  -1.961  0.00  0.00    +0.151 HD
ENDROOT
BRANCH   4   9
ATOM      9  C   UNL     1      -5.037  -2.243   0.397  0.00  0.00    -0.015 A 
ATOM     10  C   UNL     1      -5.682  -3.449   0.596  0.00  0.00    +0.013 A 
ATOM     11  C   UNL     1      -6.978  -3.443   0.991  0.00  0.00    +0.045 A 
ATOM     12  S   UNL     1      -7.326  -1.695   1.093  0.00  0.00    -0.105 S 
ATOM     13  C   UNL     1      -5.718  -1.090   0.607  0.00  0.00    +0.051 A 
ENDBRANCH   4   9
BRANCH   1  15
ATOM     14  C   UNL     1      -1.790   2.355   0.630  0.00  0.00    +0.025 C 
ATOM     15  C   UNL     1      -1.008   1.132   0.148  0.00  0.00    +0.111 C 
ENDBRANCH   1  15
BRANCH   3  16
ATOM     16  C   UNL     1      -2.779  -2.821   2.297  0.00  0.00    +0.339 C 
ATOM     17  O   UNL     1      -2.150  -2.548   3.303  0.00  0.00    -0.245 OA
BRANCH  16  18
ATOM     18  O   UNL     1      -3.514  -3.951   2.247  0.00  0.00    -0.462 OA
BRANCH  18  19
ATOM     19  C   UNL     1      -3.508  -4.781   3.410  0.00  0.00    +0.229 C 
ATOM     20  C   UNL     1      -4.391  -6.007   3.166  0.00  0.00    +0.048 C 
ENDBRANCH  18  19
ENDBRANCH  16  18
ENDBRANCH   3  16
BRANCH   2  21
ATOM     21  C   UNL     1      -1.071  -0.572   2.367  0.00  0.00    -0.026 C 
BRANCH  21  22
ATOM     22  N   UNL     1       0.138  -1.405   2.312  0.00  0.00    +0.384 N 
ATOM     23  C   UNL     1       0.847  -1.273   3.582  0.00  0.00    -0.077 C 
ATOM     24  C   UNL     1       1.608  -2.550   3.864  0.00  0.00    +0.000 C 
ATOM     25  C   UNL     1       3.048  -2.416   3.337  0.00  0.00    +0.106 C 
ATOM     26  N   UNL     1       3.074  -1.714   2.037  0.00  0.00    -0.299 N 
ATOM     27  C   UNL     1       2.100  -1.972   0.997  0.00  0.00    +0.089 C 
ATOM     28  C   UNL     1       0.884  -1.032   1.172  0.00  0.00    -0.059 C 
ATOM     29  C   UNL     1       4.039  -0.801   1.811  0.00  0.00    +0.247 C 
ATOM     30  O   UNL     1       4.019  -0.133   0.795  0.00  0.00    -0.270 OA
ATOM     31  H   UNL     1      -0.145  -2.368   2.206  0.00  0.00    -0.081 HD
BRANCH  29  32
ATOM     32  C   UNL     1       5.123  -0.610   2.799  0.00  0.00    +0.037 A 
ATOM     33  C   UNL     1       5.630  -1.704   3.502  0.00  0.00    +0.013 A 
ATOM     34  C   UNL     1       6.642  -1.519   4.422  0.00  0.00    +0.004 A 
ATOM     35  C   UNL     1       7.152  -0.254   4.649  0.00  0.00    -0.050 A 
ATOM     36  C   UNL     1       6.653   0.835   3.956  0.00  0.00    +0.004 A 
ATOM     37  C   UNL     1       5.646   0.663   3.029  0.00  0.00    +0.013 A 
ATOM     38  C   UNL     1       8.257  -0.059   5.656  0.00  0.00    +0.044 C 
ENDBRANCH  29  32
ENDBRANCH  21  22
ENDBRANCH   2  21
TORSDOF 8
