REMARK  Name = ZINC59891392
REMARK  13 active torsions:
REMARK  status: ('A' for Active; 'I' for Inactive)
REMARK    1  A    between atoms: C_1  and  C_2
REMARK    2  A    between atoms: C_2  and  C_3
REMARK    3  A    between atoms: C_3  and  C_4
REMARK    4  A    between atoms: C_4  and  C_5
REMARK    5  A    between atoms: C_5  and  C_34
REMARK    6  A    between atoms: N_6  and  N_7
REMARK    7  A    between atoms: C_10  and  S_13
REMARK    8  A    between atoms: S_13  and  C_14
REMARK    9  A    between atoms: C_14  and  C_15
REMARK   10  A    between atoms: N_17  and  C_18
REMARK   11  A    between atoms: C_21  and  S_24
REMARK   12  A    between atoms: S_24  and  N_27
REMARK   13  A    between atoms: C_30  and  C_33
REMARK                            x       y       z     vdW  Elec       q    Type
REMARK                         _______ _______ _______ _____ _____    ______ ____
ROOT
ATOM      1  C   UNL     1       9.627  -7.255  -1.493  0.00  0.00    +0.227 C 
ATOM      2  O   UNL     1       9.528  -7.124  -0.292  0.00  0.00    -0.275 OA
ATOM      3  N   UNL     1      10.687  -7.905  -2.015  0.00  0.00    -0.285 N 
ATOM      4  H   UNL     1      10.733  -8.069  -2.970  0.00  0.00    +0.155 HD
ENDROOT
BRANCH   3   5
ATOM      5  C   UNL     1      11.720  -8.343  -1.179  0.00  0.00    +0.034 A 
ATOM      6  C   UNL     1      13.034  -8.322  -1.628  0.00  0.00    +0.025 A 
ATOM      7  C   UNL     1      14.052  -8.755  -0.801  0.00  0.00    +0.030 A 
ATOM      8  C   UNL     1      13.763  -9.209   0.473  0.00  0.00    +0.106 A 
ATOM      9  C   UNL     1      12.456  -9.231   0.923  0.00  0.00    +0.030 A 
ATOM     10  C   UNL     1      11.434  -8.794   0.103  0.00  0.00    +0.025 A 
BRANCH   8  11
ATOM     11  S   UNL     1      15.064  -9.761   1.526  0.00  0.00    +0.061 S 
ATOM     12  O   UNL     1      14.476 -10.647   2.468  0.00  0.00    -0.153 OA
ATOM     13  O   UNL     1      16.134 -10.153   0.677  0.00  0.00    -0.153 OA
BRANCH  11  14
ATOM     14  N   UNL     1      15.594  -8.445   2.380  0.00  0.00    -0.177 NA
ATOM     15  C   UNL     1      16.672  -7.596   1.853  0.00  0.00    +0.110 C 
ATOM     16  C   UNL     1      17.770  -7.479   2.915  0.00  0.00    +0.020 C 
ATOM     17  C   UNL     1      17.157  -6.977   4.224  0.00  0.00    -0.012 C 
ATOM     18  C   UNL     1      16.113  -7.981   4.718  0.00  0.00    +0.020 C 
ATOM     19  C   UNL     1      14.992  -8.101   3.675  0.00  0.00    +0.110 C 
ATOM     20  C   UNL     1      18.257  -6.826   5.277  0.00  0.00    +0.007 C 
ENDBRANCH  11  14
ENDBRANCH   8  11
ENDBRANCH   3   5
BRANCH   1  21
ATOM     21  C   UNL     1       8.566  -6.692  -2.403  0.00  0.00    +0.173 C 
BRANCH  21  22
ATOM     22  S   UNL     1       7.283  -5.883  -1.407  0.00  0.00    -0.075 S 
BRANCH  22  26
ATOM     23  N   UNL     1       3.191  -3.628  -3.556  0.00  0.00    -0.205 N 
ATOM     24  C   UNL     1       4.385  -4.318  -3.447  0.00  0.00    +0.232 A 
ATOM     25  N   UNL     1       5.009  -4.613  -2.326  0.00  0.00    -0.186 NA
ATOM     26  C   UNL     1       6.132  -5.285  -2.599  0.00  0.00    +0.211 A 
ATOM     27  N   UNL     1       6.239  -5.426  -3.899  0.00  0.00    -0.144 NA
ATOM     28  N   UNL     1       5.113  -4.811  -4.471  0.00  0.00    -0.245 N 
ATOM     29  H   UNL     1       2.805  -3.461  -4.431  0.00  0.00    +0.177 HD
ATOM     30  H   UNL     1       4.902  -4.751  -5.416  0.00  0.00    +0.192 HD
BRANCH  23  32
ATOM     31  C   UNL     1       1.434  -2.532  -2.505  0.00  0.00    +0.034 C 
ATOM     32  N   UNL     1       2.539  -3.170  -2.404  0.00  0.00    -0.189 NA
ATOM     33  C   UNL     1       0.835  -2.273  -3.864  0.00  0.00    +0.062 C 
BRANCH  31  34
ATOM     34  C   UNL     1       0.732  -2.039  -1.266  0.00  0.00    +0.052 C 
BRANCH  34  35
ATOM     35  C   UNL     1       0.709  -0.509  -1.267  0.00  0.00    +0.006 C 
BRANCH  35  37
ATOM     36  C   UNL     1      -0.027   1.521  -0.010  0.00  0.00    +0.004 C 
ATOM     37  C   UNL     1      -0.004  -0.009  -0.009  0.00  0.00    -0.003 C 
ENDBRANCH  35  37
ENDBRANCH  34  35
ENDBRANCH  31  34
ENDBRANCH  23  32
ENDBRANCH  22  26
ENDBRANCH  21  22
ENDBRANCH   1  21
TORSDOF 10
