REMARK  Name = ZINC63686623
REMARK  10 active torsions:
REMARK  status: ('A' for Active; 'I' for Inactive)
REMARK    1  A    between atoms: C_1  and  C_2
REMARK    2  A    between atoms: C_2  and  C_3
REMARK    3  A    between atoms: C_6  and  O_9
REMARK    4  A    between atoms: O_9  and  C_10
REMARK    5  A    between atoms: C_10  and  C_11
REMARK    6  A    between atoms: C_15  and  S_20
REMARK    7  A    between atoms: N_17  and  C_18
REMARK    8  A    between atoms: C_18  and  C_19
REMARK    9  A    between atoms: S_20  and  C_21
REMARK   10  A    between atoms: C_21  and  C_22
REMARK                            x       y       z     vdW  Elec       q    Type
REMARK                         _______ _______ _______ _____ _____    ______ ____
ROOT
ATOM      1  C   UNL     1      -7.309  -2.572  -0.848  0.00  0.00    +0.178 C 
ATOM      2  N   UNL     1      -7.304  -3.840  -0.072  0.00  0.00    -0.234 NA
ATOM      3  N   UNL     1      -8.665  -3.894   0.485  0.00  0.00    -0.229 NA
ATOM      4  C   UNL     1      -8.980  -2.488   0.827  0.00  0.00    +0.200 C 
ATOM      5  N   UNL     1      -8.117  -1.642  -0.027  0.00  0.00    -0.259 NA
ATOM      6  H   UNL     1      -7.128  -4.631  -0.672  0.00  0.00    +0.142 HD
ATOM      7  H   UNL     1      -9.319  -4.256  -0.193  0.00  0.00    +0.143 HD
ENDROOT
BRANCH   5   8
ATOM      8  C   UNL     1      -8.921  -0.753  -0.875  0.00  0.00    +0.085 C 
ATOM      9  C   UNL     1      -7.996   0.206  -1.629  0.00  0.00    +0.020 C 
ENDBRANCH   5   8
BRANCH   1  10
ATOM     10  C   UNL     1      -5.884  -2.041  -1.013  0.00  0.00    +0.265 C 
BRANCH  10  11
ATOM     11  O   UNL     1      -5.288  -1.866   0.274  0.00  0.00    -0.489 OA
BRANCH  11  15
ATOM     12  C   UNL     1      -1.418  -0.442   0.369  0.00  0.00    -0.047 A 
ATOM     13  C   UNL     1      -2.078  -0.726   1.551  0.00  0.00    +0.007 A 
ATOM     14  C   UNL     1      -3.374  -1.203   1.521  0.00  0.00    +0.046 A 
ATOM     15  C   UNL     1      -4.013  -1.396   0.305  0.00  0.00    +0.121 A 
ATOM     16  C   UNL     1      -3.349  -1.110  -0.878  0.00  0.00    +0.046 A 
ATOM     17  C   UNL     1      -2.055  -0.628  -0.843  0.00  0.00    +0.007 A 
BRANCH  12  19
ATOM     18  C   UNL     1      -0.023   1.607   0.470  0.00  0.00    +0.009 C 
ATOM     19  C   UNL     1      -0.004   0.078   0.405  0.00  0.00    +0.032 C 
ENDBRANCH  12  19
ENDBRANCH  11  15
ENDBRANCH  10  11
ENDBRANCH   1  10
BRANCH   4  20
ATOM     20  S   UNL     1     -10.727  -2.140   0.481  0.00  0.00    -0.119 S 
BRANCH  20  21
ATOM     21  C   UNL     1     -11.614  -2.951   1.839  0.00  0.00    +0.125 C 
BRANCH  21  22
ATOM     22  C   UNL     1     -13.084  -2.635   1.740  0.00  0.00    +0.030 A 
ATOM     23  N   UNL     1     -13.509  -1.399   2.095  0.00  0.00    -0.356 N 
ATOM     24  C   UNL     1     -14.839  -1.046   2.028  0.00  0.00    +0.069 A 
ATOM     25  C   UNL     1     -15.783  -1.986   1.579  0.00  0.00    +0.046 A 
ATOM     26  C   UNL     1     -17.133  -1.641   1.507  0.00  0.00    +0.014 A 
ATOM     27  C   UNL     1     -17.532  -0.386   1.875  0.00  0.00    +0.002 A 
ATOM     28  C   UNL     1     -16.605   0.547   2.318  0.00  0.00    +0.022 A 
ATOM     29  C   UNL     1     -15.266   0.227   2.397  0.00  0.00    +0.065 A 
ATOM     30 CL   UNL     1     -14.119   1.405   2.955  0.00  0.00    -0.081 Cl
ATOM     31  C   UNL     1     -15.310  -3.327   1.194  0.00  0.00    +0.190 A 
ATOM     32  O   UNL     1     -16.088  -4.180   0.798  0.00  0.00    -0.287 OA
ATOM     33  C   UNL     1     -13.924  -3.591   1.294  0.00  0.00    +0.073 A 
ATOM     34  H   UNL     1     -12.862  -0.746   2.406  0.00  0.00    +0.166 HD
ENDBRANCH  21  22
ENDBRANCH  20  21
ENDBRANCH   4  20
TORSDOF 8
