REMARK  Name = ZINC14456422
REMARK  4 active torsions:
REMARK  status: ('A' for Active; 'I' for Inactive)
REMARK    1  A    between atoms: C_1  and  C_2
REMARK    2  A    between atoms: C_5  and  C_7
REMARK    3  A    between atoms: C_17  and  N_24
REMARK    4  A    between atoms: C_20  and  O_23
REMARK                            x       y       z     vdW  Elec       q    Type
REMARK                         _______ _______ _______ _____ _____    ______ ____
ROOT
ATOM      1  C   UNL     1       0.987  -4.141  -0.098  0.00  0.00    +0.112 C 
ATOM      2  C   UNL     1       1.434  -4.521   1.302  0.00  0.00    +0.029 C 
ATOM      3  C   UNL     1       0.340  -4.695   2.364  0.00  0.00    +0.033 C 
ATOM      4  C   UNL     1       0.976  -5.729   3.295  0.00  0.00    -0.030 C 
ATOM      5  C   UNL     1       1.859  -6.460   2.626  0.00  0.00    -0.023 C 
ATOM      6  C   UNL     1       1.896  -6.006   1.202  0.00  0.00    +0.051 C 
ATOM      7  C   UNL     1       3.123  -6.044   0.377  0.00  0.00    +0.014 A 
ATOM      8  C   UNL     1       4.151  -6.932   0.620  0.00  0.00    +0.132 A 
ATOM      9  C   UNL     1       5.272  -6.941  -0.188  0.00  0.00    +0.037 A 
ATOM     10  C   UNL     1       5.369  -6.056  -1.247  0.00  0.00    +0.049 A 
ATOM     11  C   UNL     1       4.347  -5.159  -1.497  0.00  0.00    +0.138 A 
ATOM     12  C   UNL     1       3.215  -5.139  -0.684  0.00  0.00    +0.076 A 
ATOM     13  N   UNL     1       2.205  -4.197  -0.936  0.00  0.00    -0.333 N 
ATOM     14  H   UNL     1       2.307  -3.572  -1.671  0.00  0.00    +0.147 HD
ENDROOT
BRANCH   1  19
ATOM     15  C   UNL     1      -0.211   1.396  -0.096  0.00  0.00    +0.051 C 
ATOM     16  C   UNL     1      -0.154  -0.110  -0.100  0.00  0.00    -0.013 A 
ATOM     17  C   UNL     1      -1.173  -1.003  -0.120  0.00  0.00    +0.011 A 
ATOM     18  C   UNL     1      -0.880  -2.354  -0.120  0.00  0.00    +0.013 A 
ATOM     19  C   UNL     1       0.417  -2.746  -0.101  0.00  0.00    +0.010 A 
ATOM     20  S   UNL     1       1.275  -1.180  -0.088  0.00  0.00    -0.097 S 
ENDBRANCH   1  19
BRANCH   8  21
ATOM     21  N   UNL     1       4.051  -7.880   1.752  0.00  0.00    +0.057 N 
ATOM     22  O   UNL     1       4.940  -7.941   2.569  0.00  0.00    -0.126 OA
ATOM     23  O   UNL     1       3.082  -8.594   1.859  0.00  0.00    -0.126 OA
ENDBRANCH   8  21
BRANCH  11  24
ATOM     24  O   UNL     1       4.446  -4.292  -2.541  0.00  0.00    -0.505 OA
ATOM     25  H   UNL     1       4.085  -4.633  -3.371  0.00  0.00    +0.292 HD
ENDBRANCH  11  24
TORSDOF 3
