REMARK  Name = ZINC06194791
REMARK  9 active torsions:
REMARK  status: ('A' for Active; 'I' for Inactive)
REMARK    1  A    between atoms: C_1  and  C_2
REMARK    2  A    between atoms: C_6  and  C_15
REMARK    3  A    between atoms: C_13  and  C_14
REMARK    4  A    between atoms: C_15  and  C_17
REMARK    5  A    between atoms: C_15  and  N_73
REMARK    6  A    between atoms: N_21  and  C_22
REMARK    7  A    between atoms: N_29  and  C_32
REMARK    8  A    between atoms: C_37  and  O_38
REMARK    9  A    between atoms: O_38  and  C_39
REMARK                            x       y       z     vdW  Elec       q    Type
REMARK                         _______ _______ _______ _____ _____    ______ ____
ROOT
ATOM      1  C   UNL     1       2.614  -0.633  -0.043  0.00  0.00    +0.039 C 
ENDROOT
BRANCH   1   7
ATOM      2  C   UNL     1       4.644   0.611   7.025  0.00  0.00    +0.044 C 
ATOM      3  C   UNL     1       4.385  -0.332   5.878  0.00  0.00    -0.047 A 
ATOM      4  C   UNL     1       3.973   0.163   4.674  0.00  0.00    +0.013 A 
ATOM      5  C   UNL     1       3.732  -0.712   3.610  0.00  0.00    -0.001 A 
ATOM      6  C   UNL     1       3.293  -0.215   2.305  0.00  0.00    +0.017 A 
ATOM      7  C   UNL     1       3.071  -1.111   1.312  0.00  0.00    +0.011 A 
ATOM      8  C   UNL     1       3.272  -2.490   1.540  0.00  0.00    +0.251 A 
ATOM      9  O   UNL     1       3.071  -3.277   0.632  0.00  0.00    -0.268 OA
ATOM     10  N   UNL     1       3.679  -2.955   2.733  0.00  0.00    -0.322 N 
ATOM     11  H   UNL     1       3.807  -3.909   2.856  0.00  0.00    +0.169 HD
ATOM     12  C   UNL     1       3.918  -2.097   3.786  0.00  0.00    +0.049 A 
ATOM     13  C   UNL     1       4.339  -2.578   5.021  0.00  0.00    +0.030 A 
ATOM     14  C   UNL     1       4.569  -1.697   6.056  0.00  0.00    -0.046 A 
ATOM     15  C   UNL     1       5.025  -2.220   7.393  0.00  0.00    +0.044 C 
ENDBRANCH   1   7
BRANCH   1  21
ATOM     16  C   UNL     1       4.935  -0.525  -0.724  0.00  0.00    -0.058 C 
ATOM     17  C   UNL     1       5.942  -1.025  -1.762  0.00  0.00    +0.086 C 
ATOM     18  N   UNL     1       5.530  -0.572  -3.098  0.00  0.00    -0.331 N 
ATOM     19  C   UNL     1       4.192  -1.078  -3.434  0.00  0.00    +0.086 C 
ATOM     20  C   UNL     1       3.185  -0.577  -2.395  0.00  0.00    -0.058 C 
ATOM     21  N   UNL     1       3.599  -1.058  -1.060  0.00  0.00    +0.391 N 
ATOM     22  H   UNL     1       3.643  -2.084  -1.074  0.00  0.00    -0.080 HD
BRANCH  18  23
ATOM     23  C   UNL     1       6.467  -0.950  -4.067  0.00  0.00    +0.072 A 
ATOM     24  C   UNL     1       7.487  -1.832  -3.741  0.00  0.00    +0.027 A 
ATOM     25  C   UNL     1       8.408  -2.208  -4.701  0.00  0.00    +0.002 A 
ATOM     26  C   UNL     1       8.321  -1.700  -5.984  0.00  0.00    +0.004 A 
ATOM     27  C   UNL     1       7.310  -0.816  -6.314  0.00  0.00    +0.047 A 
ATOM     28  C   UNL     1       6.380  -0.438  -5.360  0.00  0.00    +0.141 A 
BRANCH  28  29
ATOM     29  O   UNL     1       5.386   0.431  -5.683  0.00  0.00    -0.493 OA
ATOM     30  C   UNL     1       5.359   0.915  -7.028  0.00  0.00    +0.277 C 
ENDBRANCH  28  29
ENDBRANCH  18  23
ENDBRANCH   1  21
BRANCH   1  31
ATOM     31  C   UNL     1       2.485   0.868  -0.028  0.00  0.00    +0.143 A 
ATOM     32  N   UNL     1       3.465   1.738  -0.056  0.00  0.00    -0.115 NA
ATOM     33  N   UNL     1       2.950   2.919  -0.029  0.00  0.00    -0.023 NA
ATOM     34  N   UNL     1       1.666   2.825   0.009  0.00  0.00    -0.044 NA
ATOM     35  N   UNL     1       1.341   1.576   0.017  0.00  0.00    -0.227 N 
BRANCH  35  36
ATOM     36  C   UNL     1      -0.018   1.031   0.060  0.00  0.00    +0.111 C 
ATOM     37  C   UNL     1      -0.752   1.541   1.317  0.00  0.00    +0.027 C 
ATOM     38  C   UNL     1      -1.553   2.769   0.817  0.00  0.00    +0.002 C 
ATOM     39  C   UNL     1      -2.021   2.324  -0.591  0.00  0.00    +0.002 C 
ATOM     40  C   UNL     1      -0.824   1.529  -1.153  0.00  0.00    +0.027 C 
ENDBRANCH  35  36
ENDBRANCH   1  31
TORSDOF 6
