REMARK  Name = ZINC54209096
REMARK  7 active torsions:
REMARK  status: ('A' for Active; 'I' for Inactive)
REMARK    1  A    between atoms: C_1  and  C_2
REMARK    2  A    between atoms: C_2  and  C_4
REMARK    3  A    between atoms: C_2  and  N_15
REMARK    4  A    between atoms: N_6  and  C_7
REMARK    5  A    between atoms: C_18  and  N_21
REMARK    6  A    between atoms: N_21  and  S_22
REMARK    7  A    between atoms: S_22  and  C_25
REMARK                            x       y       z     vdW  Elec       q    Type
REMARK                         _______ _______ _______ _____ _____    ______ ____
ROOT
ATOM      1  C   UNL     1      -0.119   1.532   0.266  0.00  0.00    -0.004 C 
ATOM      2  C   UNL     1      -0.028   0.023   0.029  0.00  0.00    +0.016 C 
ENDROOT
BRANCH   2   3
ATOM      3  N   UNL     1       0.594  -0.619   1.195  0.00  0.00    +0.387 N 
ATOM      4  C   UNL     1       0.570  -2.076   1.020  0.00  0.00    -0.076 C 
ATOM      5  C   UNL     1       1.288  -2.746   2.193  0.00  0.00    +0.002 C 
ATOM      6  C   UNL     1       0.578  -2.376   3.498  0.00  0.00    +0.073 C 
ATOM      7  C   UNL     1       0.543  -0.851   3.634  0.00  0.00    +0.002 C 
ATOM      8  C   UNL     1      -0.147  -0.251   2.408  0.00  0.00    -0.076 C 
ATOM      9  H   UNL     1       1.550  -0.308   1.279  0.00  0.00    -0.081 HD
BRANCH   6  10
ATOM     10  N   UNL     1       1.305  -2.952   4.632  0.00  0.00    -0.192 NA
ATOM     11  H   UNL     1       2.273  -3.016   4.606  0.00  0.00    +0.148 HD
BRANCH  10  12
ATOM     12  S   UNL     1       0.475  -3.494   5.959  0.00  0.00    +0.027 S 
ATOM     13  O   UNL     1       1.480  -3.955   6.852  0.00  0.00    -0.158 OA
ATOM     14  O   UNL     1      -0.376  -2.415   6.320  0.00  0.00    -0.158 OA
ATOM     15  C   UNL     1      -0.510  -4.891   5.353  0.00  0.00    +0.214 C 
ENDBRANCH  10  12
ENDBRANCH   6  10
ENDBRANCH   2   3
BRANCH   2  16
ATOM     16  C   UNL     1       0.808  -0.244  -1.196  0.00  0.00    +0.203 C 
ATOM     17  O   UNL     1       1.930  -0.689  -1.080  0.00  0.00    -0.277 OA
ATOM     18  N   UNL     1       0.308   0.012  -2.421  0.00  0.00    -0.286 N 
ATOM     19  H   UNL     1      -0.558   0.439  -2.513  0.00  0.00    +0.155 HD
BRANCH  18  20
ATOM     20  C   UNL     1       1.039  -0.338  -3.563  0.00  0.00    +0.053 A 
ATOM     21  C   UNL     1       2.426  -0.273  -3.547  0.00  0.00    +0.044 A 
ATOM     22  C   UNL     1       3.145  -0.620  -4.675  0.00  0.00    +0.043 A 
ATOM     23  C   UNL     1       2.484  -1.031  -5.820  0.00  0.00    +0.021 A 
ATOM     24  C   UNL     1       1.103  -1.095  -5.839  0.00  0.00    +0.023 A 
ATOM     25  C   UNL     1       0.379  -0.755  -4.712  0.00  0.00    +0.062 A 
ATOM     26 CL   UNL     1      -1.355  -0.844  -4.734  0.00  0.00    -0.082 Cl
ATOM     27 CL   UNL     1       4.879  -0.539  -4.657  0.00  0.00    -0.083 Cl
ENDBRANCH  18  20
ENDBRANCH   2  16
TORSDOF 5
