REMARK  Name = ZINC17481261
REMARK  7 active torsions:
REMARK  status: ('A' for Active; 'I' for Inactive)
REMARK    1  A    between atoms: C_1  and  C_2
REMARK    2  A    between atoms: C_2  and  O_3
REMARK    3  A    between atoms: O_3  and  C_4
REMARK    4  A    between atoms: C_8  and  N_10
REMARK    5  A    between atoms: C_12  and  C_24
REMARK    6  A    between atoms: C_16  and  N_21
REMARK    7  A    between atoms: C_26  and  C_29
REMARK                            x       y       z     vdW  Elec       q    Type
REMARK                         _______ _______ _______ _____ _____    ______ ____
ROOT
ATOM      1  N   UNL     1       0.555   4.632  -0.521  0.00  0.00    -0.325 N 
ATOM      2  C   UNL     1       1.763   4.511  -0.001  0.00  0.00    +0.209 A 
ATOM      3  C   UNL     1       2.460   3.215  -0.003  0.00  0.00    +0.068 A 
ATOM      4  C   UNL     1       3.881   3.232  -0.023  0.00  0.00    +0.027 A 
ATOM      5  C   UNL     1       4.521   4.469   0.109  0.00  0.00    +0.020 A 
ATOM      6  C   UNL     1       5.926   4.580   0.024  0.00  0.00    +0.044 A 
ATOM      7  C   UNL     1       6.507   5.807   0.112  0.00  0.00    +0.127 A 
ATOM      8  C   UNL     1       5.745   6.957   0.303  0.00  0.00    +0.036 A 
ATOM      9  C   UNL     1       4.375   6.900   0.433  0.00  0.00    +0.049 A 
ATOM     10  C   UNL     1       3.727   5.673   0.362  0.00  0.00    +0.138 A 
ATOM     11  O   UNL     1       2.396   5.577   0.553  0.00  0.00    -0.439 OA
ATOM     12  H   UNL     1       0.093   3.779  -1.040  0.00  0.00    +0.169 HD
ENDROOT
BRANCH   1  17
ATOM     13  C   UNL     1      -0.737   7.935  -1.336  0.00  0.00    +0.122 A 
ATOM     14  C   UNL     1      -1.485   8.200  -0.192  0.00  0.00    +0.046 A 
ATOM     15  C   UNL     1      -1.548   7.272   0.835  0.00  0.00    +0.006 A 
ATOM     16  C   UNL     1      -0.875   6.076   0.733  0.00  0.00    +0.026 A 
ATOM     17  C   UNL     1      -0.110   5.798  -0.415  0.00  0.00    +0.045 A 
ATOM     18  C   UNL     1      -0.050   6.743  -1.455  0.00  0.00    +0.071 A 
BRANCH  13  19
ATOM     19  O   UNL     1      -0.681   8.852  -2.337  0.00  0.00    -0.492 OA
BRANCH  19  21
ATOM     20  C   UNL     1      -1.234  10.965  -3.371  0.00  0.00    +0.048 C 
ATOM     21  C   UNL     1      -1.415  10.063  -2.149  0.00  0.00    +0.225 C 
ENDBRANCH  19  21
ENDBRANCH  13  19
ENDBRANCH   1  17
BRANCH   3  22
ATOM     22  C   UNL     1       1.742   1.999   0.010  0.00  0.00    +0.114 A 
ATOM     23  N   UNL     1       2.211   0.747   0.006  0.00  0.00    -0.239 NA
ATOM     24  C   UNL     1       1.387  -0.263   0.020  0.00  0.00    +0.079 A 
ATOM     25  C   UNL     1      -0.004   0.001   0.039  0.00  0.00    +0.075 A 
ATOM     26  S   UNL     1      -0.024   1.738   0.036  0.00  0.00    -0.075 S 
BRANCH  24  27
ATOM     27  C   UNL     1       1.893  -1.651   0.015  0.00  0.00    +0.001 A 
ATOM     28  C   UNL     1       0.998  -2.725   0.035  0.00  0.00    +0.011 A 
ATOM     29  C   UNL     1       1.477  -4.018   0.024  0.00  0.00    +0.020 A 
ATOM     30  C   UNL     1       2.843  -4.254   0.005  0.00  0.00    +0.041 A 
ATOM     31  C   UNL     1       3.736  -3.194  -0.009  0.00  0.00    +0.020 A 
ATOM     32  C   UNL     1       3.270  -1.897  -0.004  0.00  0.00    +0.011 A 
ATOM     33 CL   UNL     1       3.437  -5.885   0.000  0.00  0.00    -0.084 Cl
ENDBRANCH  24  27
ENDBRANCH   3  22
BRANCH   7  34
ATOM     34  N   UNL     1       7.979   5.922   0.002  0.00  0.00    +0.056 N 
ATOM     35  O   UNL     1       8.711   4.843  -0.179  0.00  0.00    -0.126 OA
ATOM     36  O   UNL     1       8.555   7.103   0.086  0.00  0.00    -0.126 OA
ENDBRANCH   7  34
TORSDOF 6
