REMARK  Name = ZINC02502629
REMARK  8 active torsions:
REMARK  status: ('A' for Active; 'I' for Inactive)
REMARK    1  A    between atoms: C_1  and  O_2
REMARK    2  A    between atoms: O_2  and  C_3
REMARK    3  A    between atoms: C_3  and  C_5
REMARK    4  A    between atoms: C_6  and  N_32
REMARK    5  A    between atoms: C_10  and  C_12
REMARK    6  A    between atoms: C_17  and  O_18
REMARK    7  A    between atoms: O_18  and  C_19
REMARK    8  A    between atoms: C_19  and  C_20
REMARK                            x       y       z     vdW  Elec       q    Type
REMARK                         _______ _______ _______ _____ _____    ______ ____
ROOT
ATOM      1  C   UNL     1       0.063   1.624  -0.092  0.00  0.00    +0.105 C 
ATOM      2  C   UNL     1       1.253   2.175   0.261  0.00  0.00    +0.195 C 
ATOM      3  O   UNL     1       2.366   1.433   0.350  0.00  0.00    -0.446 OA
ATOM      4  C   UNL     1       2.273   0.100   0.520  0.00  0.00    +0.115 C 
ATOM      5  C   UNL     1       1.155  -0.572   0.189  0.00  0.00    +0.045 C 
ATOM      6  C   UNL     1      -0.035   0.154  -0.389  0.00  0.00    +0.101 C 
ATOM      7  C   UNL     1       1.058  -1.965   0.371  0.00  0.00    +0.163 C 
ATOM      8  O   UNL     1       0.040  -2.540   0.041  0.00  0.00    -0.292 OA
ATOM      9  C   UNL     1       2.192  -2.754   0.968  0.00  0.00    +0.080 C 
ATOM     10  C   UNL     1       2.995  -1.839   1.898  0.00  0.00    +0.016 C 
ATOM     11  C   UNL     1       3.467  -0.626   1.095  0.00  0.00    +0.075 C 
ENDROOT
BRANCH   6  12
ATOM     12  C   UNL     1      -0.070  -0.053  -1.882  0.00  0.00    +0.007 A 
ATOM     13  C   UNL     1       0.982   0.382  -2.665  0.00  0.00    +0.008 A 
ATOM     14  C   UNL     1       0.952   0.188  -4.033  0.00  0.00    +0.001 A 
ATOM     15  C   UNL     1      -0.134  -0.433  -4.623  0.00  0.00    +0.004 A 
ATOM     16  C   UNL     1      -1.190  -0.865  -3.845  0.00  0.00    +0.046 A 
ATOM     17  C   UNL     1      -1.161  -0.676  -2.471  0.00  0.00    +0.125 A 
BRANCH  17  18
ATOM     18  O   UNL     1      -2.199  -1.100  -1.703  0.00  0.00    -0.487 OA
BRANCH  18  19
ATOM     19  C   UNL     1      -3.288  -1.734  -2.377  0.00  0.00    +0.264 C 
BRANCH  19  20
ATOM     20  C   UNL     1      -4.337  -2.133  -1.372  0.00  0.00    -0.010 A 
ATOM     21  C   UNL     1      -4.287  -3.381  -0.780  0.00  0.00    +0.008 A 
ATOM     22  C   UNL     1      -5.246  -3.746   0.146  0.00  0.00    +0.020 A 
ATOM     23  C   UNL     1      -6.262  -2.866   0.473  0.00  0.00    +0.041 A 
ATOM     24  C   UNL     1      -6.315  -1.619  -0.124  0.00  0.00    +0.020 A 
ATOM     25  C   UNL     1      -5.352  -1.253  -1.046  0.00  0.00    +0.008 A 
ATOM     26 CL   UNL     1      -7.470  -3.326   1.631  0.00  0.00    -0.084 Cl
ENDBRANCH  19  20
ENDBRANCH  18  19
ENDBRANCH  17  18
ENDBRANCH   6  12
BRANCH   2  27
ATOM     27  N   UNL     1       1.318   3.515   0.532  0.00  0.00    -0.329 N 
ATOM     28  H   UNL     1       0.618   3.939   1.053  0.00  0.00    +0.145 HD
ATOM     29  H   UNL     1       2.064   4.041   0.204  0.00  0.00    +0.145 HD
ENDBRANCH   2  27
BRANCH   1  30
ATOM     30  C   UNL     1      -1.080   2.433  -0.186  0.00  0.00    +0.341 C 
ATOM     31  O   UNL     1      -0.984   3.640  -0.055  0.00  0.00    -0.245 OA
BRANCH  30  33
ATOM     32  C   UNL     1      -3.406   2.757  -0.507  0.00  0.00    +0.280 C 
ATOM     33  O   UNL     1      -2.286   1.873  -0.423  0.00  0.00    -0.465 OA
ENDBRANCH  30  33
ENDBRANCH   1  30
TORSDOF 7
