REMARK  Name = ZINC22457000
REMARK  3 active torsions:
REMARK  status: ('A' for Active; 'I' for Inactive)
REMARK    1  A    between atoms: C_1  and  C_2
REMARK    2  A    between atoms: C_2  and  C_31
REMARK    3  A    between atoms: N_19  and  C_20
REMARK                            x       y       z     vdW  Elec       q    Type
REMARK                         _______ _______ _______ _____ _____    ______ ____
ROOT
ATOM      1  C   UNL     1      -2.833   5.563   0.436  0.00  0.00    +0.011 C 
ATOM      2  C   UNL     1      -1.310   5.505   0.574  0.00  0.00    -0.022 C 
ATOM      3  C   UNL     1      -0.806   4.161   0.038  0.00  0.00    +0.063 C 
ATOM      4  C   UNL     1       0.700   4.172   0.012  0.00  0.00    +0.061 A 
ATOM      5  C   UNL     1       1.448   5.347   0.019  0.00  0.00    +0.080 A 
ATOM      6  C   UNL     1       2.846   4.960  -0.006  0.00  0.00    +0.156 A 
ATOM      7  N   UNL     1       2.873   3.645  -0.023  0.00  0.00    -0.148 NA
ATOM      8  N   UNL     1       1.561   3.153  -0.019  0.00  0.00    -0.201 N 
ATOM      9  C   UNL     1       1.210   1.809  -0.037  0.00  0.00    +0.230 A 
ATOM     10  N   UNL     1       2.094   0.769  -0.068  0.00  0.00    -0.322 N 
ATOM     11  H   UNL     1       3.176   0.966  -0.080  0.00  0.00    +0.169 HD
ATOM     12  C   UNL     1       1.352  -0.399  -0.079  0.00  0.00    +0.068 A 
ATOM     13  C   UNL     1       1.679  -1.747  -0.108  0.00  0.00    +0.028 A 
ATOM     14  C   UNL     1       0.679  -2.696  -0.111  0.00  0.00    +0.002 A 
ATOM     15  C   UNL     1      -0.654  -2.312  -0.085  0.00  0.00    +0.002 A 
ATOM     16  C   UNL     1      -0.998  -0.980  -0.056  0.00  0.00    +0.030 A 
ATOM     17  C   UNL     1       0.004  -0.005  -0.053  0.00  0.00    +0.091 A 
ATOM     18  N   UNL     1      -0.015   1.352  -0.028  0.00  0.00    -0.211 NA
ATOM     19  N   UNL     1       3.946   5.815  -0.005  0.00  0.00    -0.297 N 
ATOM     20  C   UNL     1       0.812   6.668   0.046  0.00  0.00    +0.169 C 
ATOM     21  O   UNL     1       1.437   7.687   0.256  0.00  0.00    -0.292 OA
ATOM     22  C   UNL     1      -0.688   6.667  -0.206  0.00  0.00    +0.086 C 
ATOM     23  C   UNL     1      -0.934   5.631   2.052  0.00  0.00    +0.011 C 
ATOM     24  H   UNL     1       3.797   6.903  -0.077  0.00  0.00    +0.154 HD
ENDROOT
BRANCH  19  25
ATOM     25  C   UNL     1       5.239   5.292   0.086  0.00  0.00    +0.034 A 
ATOM     26  C   UNL     1       6.317   6.006  -0.420  0.00  0.00    +0.025 A 
ATOM     27  C   UNL     1       7.593   5.487  -0.328  0.00  0.00    +0.023 A 
ATOM     28  C   UNL     1       7.799   4.255   0.268  0.00  0.00    +0.059 A 
ATOM     29  C   UNL     1       6.727   3.541   0.775  0.00  0.00    +0.061 A 
ATOM     30  C   UNL     1       5.448   4.058   0.690  0.00  0.00    +0.044 A 
ATOM     31 CL   UNL     1       6.990   1.996   1.524  0.00  0.00    -0.082 Cl
ATOM     32 CL   UNL     1       9.405   3.606   0.382  0.00  0.00    -0.082 Cl
ENDBRANCH  19  25
TORSDOF 1
