REMARK  Name = ZINC40038308
REMARK  7 active torsions:
REMARK  status: ('A' for Active; 'I' for Inactive)
REMARK    1  A    between atoms: C_1  and  C_2
REMARK    2  A    between atoms: C_2  and  C_3
REMARK    3  A    between atoms: N_9  and  S_10
REMARK    4  A    between atoms: S_10  and  C_13
REMARK    5  A    between atoms: C_16  and  N_19
REMARK    6  A    between atoms: C_20  and  C_22
REMARK    7  A    between atoms: C_23  and  C_32
REMARK                            x       y       z     vdW  Elec       q    Type
REMARK                         _______ _______ _______ _____ _____    ______ ____
ROOT
ATOM      1  C   UNL     1      -1.793   2.694   1.843  0.00  0.00    +0.106 A 
ATOM      2  C   UNL     1      -0.974   3.423   1.000  0.00  0.00    +0.030 A 
ATOM      3  C   UNL     1      -1.295   4.727   0.680  0.00  0.00    +0.025 A 
ATOM      4  C   UNL     1      -2.443   5.307   1.205  0.00  0.00    +0.034 A 
ATOM      5  C   UNL     1      -3.264   4.572   2.051  0.00  0.00    +0.025 A 
ATOM      6  C   UNL     1      -2.939   3.266   2.363  0.00  0.00    +0.030 A 
ENDROOT
BRANCH   4   7
ATOM      7  N   UNL     1      -2.771   6.627   0.883  0.00  0.00    -0.279 N 
ATOM      8  C   UNL     1      -3.383   7.410   1.793  0.00  0.00    +0.284 C 
ATOM      9  O   UNL     1      -3.561   7.002   2.926  0.00  0.00    -0.266 OA
ATOM     10  H   UNL     1      -2.559   6.979   0.005  0.00  0.00    +0.155 HD
BRANCH   8  11
ATOM     11  C   UNL     1      -3.835   8.758   1.418  0.00  0.00    +0.194 A 
ATOM     12  C   UNL     1      -4.455   9.634   2.250  0.00  0.00    +0.008 A 
ATOM     13  C   UNL     1      -4.717  10.832   1.454  0.00  0.00    +0.027 A 
ATOM     14  C   UNL     1      -5.316  12.066   1.721  0.00  0.00    +0.050 A 
ATOM     15  C   UNL     1      -5.408  13.008   0.720  0.00  0.00    +0.124 A 
ATOM     16  C   UNL     1      -4.908  12.734  -0.548  0.00  0.00    +0.042 A 
ATOM     17  C   UNL     1      -4.315  11.521  -0.824  0.00  0.00    +0.050 A 
ATOM     18  C   UNL     1      -4.211  10.556   0.171  0.00  0.00    +0.136 A 
ATOM     19  O   UNL     1      -3.691   9.313   0.197  0.00  0.00    -0.450 OA
ATOM     20  F   UNL     1      -5.987  14.203   0.971  0.00  0.00    -0.205 F 
ATOM     21  C   UNL     1      -4.804   9.415   3.700  0.00  0.00    +0.048 C 
ENDBRANCH   8  11
ENDBRANCH   4   7
BRANCH   1  22
ATOM     22  S   UNL     1      -1.379   1.030   2.248  0.00  0.00    +0.061 S 
ATOM     23  O   UNL     1      -1.887   0.792   3.554  0.00  0.00    -0.153 OA
ATOM     24  O   UNL     1      -0.007   0.862   1.922  0.00  0.00    -0.153 OA
BRANCH  22  30
ATOM     25  C   UNL     1      -1.761  -0.194  -0.147  0.00  0.00    +0.080 C 
ATOM     26  C   UNL     1      -1.673  -1.706  -0.380  0.00  0.00    +0.021 C 
ATOM     27  C   UNL     1      -3.024  -2.347  -0.058  0.00  0.00    +0.003 C 
ATOM     28  C   UNL     1      -3.368  -2.105   1.413  0.00  0.00    +0.017 C 
ATOM     29  C   UNL     1      -3.476  -0.598   1.667  0.00  0.00    +0.110 C 
ATOM     30  N   UNL     1      -2.233   0.049   1.223  0.00  0.00    -0.174 NA
BRANCH  25  32
ATOM     31  C   UNL     1       0.054   0.294  -1.793  0.00  0.00    +0.005 C 
ATOM     32  C   UNL     1      -0.379   0.435  -0.332  0.00  0.00    +0.017 C 
ENDBRANCH  25  32
ENDBRANCH  22  30
ENDBRANCH   1  22
TORSDOF 5
