REMARK  Name = ZINC16031665
REMARK  8 active torsions:
REMARK  status: ('A' for Active; 'I' for Inactive)
REMARK    1  A    between atoms: C_1  and  C_2
REMARK    2  A    between atoms: C_2  and  C_4
REMARK    3  A    between atoms: C_2  and  N_10
REMARK    4  A    between atoms: C_30  and  C_32
REMARK    5  A    between atoms: C_34  and  O_40
REMARK    6  A    between atoms: C_37  and  O_38
REMARK    7  A    between atoms: O_38  and  C_39
REMARK    8  A    between atoms: O_40  and  C_41
REMARK                            x       y       z     vdW  Elec       q    Type
REMARK                         _______ _______ _______ _____ _____    ______ ____
ROOT
ATOM      1  N   UNL     1       4.016  -1.256  -1.010  0.00  0.00    -0.284 N 
ATOM      2  C   UNL     1       2.791  -1.611  -1.708  0.00  0.00    +0.204 C 
ATOM      3  C   UNL     1       1.607  -0.879  -1.168  0.00  0.00    +0.234 C 
ATOM      4  O   UNL     1       0.524  -1.116  -1.661  0.00  0.00    -0.274 OA
ATOM      5  N   UNL     1       1.662   0.037  -0.200  0.00  0.00    -0.276 N 
ATOM      6  C   UNL     1       2.913   0.470   0.421  0.00  0.00    +0.167 C 
ATOM      7  C   UNL     1       4.082  -0.330  -0.055  0.00  0.00    +0.237 C 
ATOM      8  O   UNL     1       5.160  -0.124   0.461  0.00  0.00    -0.274 OA
ATOM      9  C   UNL     1       3.154   1.950   0.093  0.00  0.00    +0.069 C 
ATOM     10  C   UNL     1       1.868   2.711   0.293  0.00  0.00    -0.015 A 
ATOM     11  C   UNL     1       1.683   4.141   0.432  0.00  0.00    +0.003 A 
ATOM     12  C   UNL     1       2.576   5.217   0.433  0.00  0.00    +0.010 A 
ATOM     13  C   UNL     1       2.038   6.470   0.589  0.00  0.00    +0.001 A 
ATOM     14  C   UNL     1       0.676   6.673   0.741  0.00  0.00    +0.002 A 
ATOM     15  C   UNL     1      -0.230   5.627   0.746  0.00  0.00    +0.026 A 
ATOM     16  C   UNL     1       0.288   4.342   0.590  0.00  0.00    +0.047 A 
ATOM     17  N   UNL     1      -0.308   3.115   0.545  0.00  0.00    -0.356 N 
ATOM     18  H   UNL     1      -1.261   2.953   0.624  0.00  0.00    +0.166 HD
ATOM     19  C   UNL     1       0.644   2.145   0.373  0.00  0.00    +0.046 A 
ATOM     20  C   UNL     1       0.406   0.655   0.276  0.00  0.00    +0.158 C 
ENDROOT
BRANCH  20  21
ATOM     21  C   UNL     1       0.043   0.105   1.631  0.00  0.00    +0.024 A 
ATOM     22  C   UNL     1       0.306   0.842   2.769  0.00  0.00    +0.055 A 
ATOM     23  C   UNL     1      -0.032   0.337   4.016  0.00  0.00    +0.121 A 
ATOM     24  C   UNL     1      -0.625  -0.912   4.120  0.00  0.00    +0.049 A 
ATOM     25  C   UNL     1      -0.883  -1.652   2.983  0.00  0.00    +0.049 A 
ATOM     26  C   UNL     1      -0.550  -1.145   1.736  0.00  0.00    +0.126 A 
BRANCH  26  27
ATOM     27  O   UNL     1      -0.805  -1.872   0.615  0.00  0.00    -0.495 OA
ATOM     28  C   UNL     1      -1.417  -3.151   0.798  0.00  0.00    +0.277 C 
ENDBRANCH  26  27
BRANCH  23  29
ATOM     29  O   UNL     1       0.222   1.065   5.136  0.00  0.00    -0.495 OA
ATOM     30  C   UNL     1      -0.147   0.481   6.387  0.00  0.00    +0.277 C 
ENDBRANCH  23  29
ENDBRANCH  20  21
BRANCH   1  32
ATOM     31  C   UNL     1       5.026  -3.467  -1.273  0.00  0.00    +0.033 C 
ATOM     32  C   UNL     1       5.248  -1.957  -1.379  0.00  0.00    +0.104 C 
BRANCH  32  33
ATOM     33  C   UNL     1       5.624  -1.603  -2.794  0.00  0.00    -0.027 A 
ATOM     34  C   UNL     1       4.796  -1.965  -3.841  0.00  0.00    +0.005 A 
ATOM     35  C   UNL     1       5.139  -1.636  -5.139  0.00  0.00    +0.000 A 
ATOM     36  C   UNL     1       6.314  -0.953  -5.391  0.00  0.00    +0.000 A 
ATOM     37  C   UNL     1       7.144  -0.595  -4.346  0.00  0.00    +0.000 A 
ATOM     38  C   UNL     1       6.799  -0.920  -3.047  0.00  0.00    +0.005 A 
ENDBRANCH  32  33
ENDBRANCH   1  32
TORSDOF 5
