REMARK  Name = ZINC43087863
REMARK  8 active torsions:
REMARK  status: ('A' for Active; 'I' for Inactive)
REMARK    1  A    between atoms: C_1  and  C_2
REMARK    2  A    between atoms: C_2  and  C_3
REMARK    3  A    between atoms: C_3  and  C_5
REMARK    4  A    between atoms: C_3  and  N_23
REMARK    5  A    between atoms: C_5  and  C_7
REMARK    6  A    between atoms: C_5  and  O_14
REMARK    7  A    between atoms: O_14  and  C_15
REMARK    8  A    between atoms: C_19  and  C_21
REMARK                            x       y       z     vdW  Elec       q    Type
REMARK                         _______ _______ _______ _____ _____    ______ ____
ROOT
ATOM      1  C   UNL     1       0.966  -2.015  -1.163  0.00  0.00    +0.191 C 
ENDROOT
BRANCH   1   2
ATOM      2  C   UNL     1       1.859  -2.664  -2.188  0.00  0.00    +0.009 A 
ATOM      3  C   UNL     1       1.306  -3.349  -3.253  0.00  0.00    +0.008 A 
ATOM      4  C   UNL     1       2.125  -3.945  -4.193  0.00  0.00    +0.000 A 
ATOM      5  C   UNL     1       3.499  -3.855  -4.069  0.00  0.00    +0.001 A 
ATOM      6  C   UNL     1       4.054  -3.171  -3.005  0.00  0.00    +0.020 A 
ATOM      7  C   UNL     1       3.234  -2.569  -2.066  0.00  0.00    +0.048 A 
ATOM      8 CL   UNL     1       3.930  -1.703  -0.733  0.00  0.00    -0.083 Cl
ENDBRANCH   1   2
BRANCH   1   9
ATOM      9  C   UNL     1       0.750  -0.546  -1.532  0.00  0.00    -0.029 C 
BRANCH   9  10
ATOM     10  N   UNL     1       0.203  -0.457  -2.892  0.00  0.00    +0.383 N 
ATOM     11  H   UNL     1       0.851  -0.876  -3.543  0.00  0.00    -0.089 HD
ATOM     12  H   UNL     1      -0.678  -0.947  -2.933  0.00  0.00    -0.089 HD
ATOM     13  H   UNL     1       0.061   0.511  -3.135  0.00  0.00    -0.089 HD
ENDBRANCH   9  10
BRANCH   9  15
ATOM     14  C   UNL     1      -0.343   1.588  -0.829  0.00  0.00    +0.002 C 
ATOM     15  C   UNL     1      -0.232   0.089  -0.545  0.00  0.00    -0.016 C 
ENDBRANCH   9  15
ENDBRANCH   1   9
BRANCH   1  16
ATOM     16  O   UNL     1      -0.294  -2.688  -1.134  0.00  0.00    -0.486 OA
BRANCH  16  17
ATOM     17  C   UNL     1      -0.379  -3.805  -0.364  0.00  0.00    +0.123 A 
ATOM     18  C   UNL     1       0.749  -4.288   0.285  0.00  0.00    +0.046 A 
ATOM     19  C   UNL     1       0.669  -5.423   1.070  0.00  0.00    +0.005 A 
ATOM     20  C   UNL     1      -0.534  -6.085   1.213  0.00  0.00    +0.019 A 
ATOM     21  C   UNL     1      -1.674  -5.607   0.565  0.00  0.00    +0.055 A 
ATOM     22  C   UNL     1      -1.592  -4.457  -0.223  0.00  0.00    +0.064 A 
BRANCH  21  23
ATOM     23  C   UNL     1      -2.924  -6.290   0.711  0.00  0.00    +0.099 C 
ATOM     24  N   UNL     1      -3.915  -6.832   0.827  0.00  0.00    -0.191 NA
ENDBRANCH  21  23
ENDBRANCH  16  17
ENDBRANCH   1  16
TORSDOF 7
