REMARK  Name = ZINC44020370
REMARK  6 active torsions:
REMARK  status: ('A' for Active; 'I' for Inactive)
REMARK    1  A    between atoms: C_1  and  C_2
REMARK    2  A    between atoms: C_2  and  C_3
REMARK    3  A    between atoms: C_2  and  C_4
REMARK    4  A    between atoms: C_2  and  N_5
REMARK    5  A    between atoms: C_9  and  N_14
REMARK    6  A    between atoms: N_14  and  C_15
REMARK                            x       y       z     vdW  Elec       q    Type
REMARK                         _______ _______ _______ _____ _____    ______ ____
ROOT
ATOM      1  N   UNL     1       0.708  -0.445  -1.204  0.00  0.00    -0.256 N 
ATOM      2  C   UNL     1       0.055  -1.260  -2.056  0.00  0.00    +0.259 A 
ATOM      3  O   UNL     1      -1.094  -1.595  -1.826  0.00  0.00    -0.267 OA
ATOM      4  C   UNL     1       0.707  -1.721  -3.211  0.00  0.00    +0.112 A 
ATOM      5  C   UNL     1       1.996  -1.331  -3.446  0.00  0.00    +0.109 A 
ATOM      6  N   UNL     1       2.623  -0.498  -2.550  0.00  0.00    -0.295 N 
ATOM      7  H   UNL     1       3.538  -0.217  -2.712  0.00  0.00    +0.172 HD
ATOM      8  C   UNL     1       1.974  -0.066  -1.454  0.00  0.00    +0.331 A 
ATOM      9  O   UNL     1       2.543   0.674  -0.674  0.00  0.00    -0.246 OA
ENDROOT
BRANCH   1  11
ATOM     10  C   UNL     1      -0.035   1.567  -0.027  0.00  0.00    +0.034 C 
ATOM     11  C   UNL     1       0.029   0.038   0.001  0.00  0.00    +0.045 C 
ATOM     12  C   UNL     1       0.804  -0.417   1.240  0.00  0.00    +0.034 C 
ATOM     13  C   UNL     1      -1.390  -0.531   0.051  0.00  0.00    +0.034 C 
ENDBRANCH   1  11
BRANCH   5  14
ATOM     14  N   UNL     1       2.658  -1.766  -4.567  0.00  0.00    -0.300 N 
ATOM     15  H   UNL     1       2.287  -1.595  -5.447  0.00  0.00    +0.154 HD
BRANCH  14  16
ATOM     16  C   UNL     1       3.868  -2.458  -4.440  0.00  0.00    +0.052 A 
ATOM     17  C   UNL     1       4.339  -2.811  -3.183  0.00  0.00    +0.025 A 
ATOM     18  C   UNL     1       5.534  -3.493  -3.060  0.00  0.00    +0.003 A 
ATOM     19  C   UNL     1       6.262  -3.825  -4.188  0.00  0.00    +0.021 A 
ATOM     20  C   UNL     1       5.796  -3.475  -5.443  0.00  0.00    +0.061 A 
ATOM     21  C   UNL     1       4.598  -2.797  -5.573  0.00  0.00    +0.080 A 
ATOM     22 CL   UNL     1       4.010  -2.364  -7.148  0.00  0.00    -0.080 Cl
ATOM     23 CL   UNL     1       6.714  -3.893  -6.856  0.00  0.00    -0.082 Cl
ENDBRANCH  14  16
ENDBRANCH   5  14
TORSDOF 3
