REMARK  Name = ZINC61595499
REMARK  6 active torsions:
REMARK  status: ('A' for Active; 'I' for Inactive)
REMARK    1  A    between atoms: C_1  and  C_2
REMARK    2  A    between atoms: C_2  and  C_3
REMARK    3  A    between atoms: C_2  and  N_4
REMARK    4  A    between atoms: C_10  and  S_11
REMARK    5  A    between atoms: S_11  and  C_12
REMARK    6  A    between atoms: C_18  and  C_20
REMARK                            x       y       z     vdW  Elec       q    Type
REMARK                         _______ _______ _______ _____ _____    ______ ____
ROOT
ATOM      1  N   UNL     1       0.711  -0.489   1.189  0.00  0.00    -0.268 N 
ATOM      2  C   UNL     1       1.991  -0.217   1.510  0.00  0.00    +0.345 A 
ATOM      3  O   UNL     1       2.763   0.474   0.868  0.00  0.00    -0.245 OA
ATOM      4  N   UNL     1       2.263  -0.848   2.671  0.00  0.00    -0.226 N 
ATOM      5  H   UNL     1       3.108  -0.834   3.147  0.00  0.00    +0.194 HD
ATOM      6  N   UNL     1       1.100  -1.526   3.062  0.00  0.00    -0.145 NA
ATOM      7  C   UNL     1       0.181  -1.297   2.170  0.00  0.00    +0.193 A 
ENDROOT
BRANCH   1   9
ATOM      8  C   UNL     1      -0.019   1.526   0.010  0.00  0.00    +0.031 C 
ATOM      9  C   UNL     1       0.002  -0.004   0.002  0.00  0.00    +0.088 C 
ATOM     10  C   UNL     1       0.718  -0.497  -1.257  0.00  0.00    +0.031 C 
ENDBRANCH   1   9
BRANCH   7  11
ATOM     11  S   UNL     1      -1.467  -1.920   2.208  0.00  0.00    -0.081 S 
BRANCH  11  12
ATOM     12  C   UNL     1      -1.530  -2.899   3.735  0.00  0.00    +0.071 C 
ATOM     13  C   UNL     1      -1.350  -1.976   4.941  0.00  0.00    +0.016 C 
ATOM     14  C   UNL     1      -1.403  -2.801   6.228  0.00  0.00    +0.001 C 
ATOM     15  C   UNL     1      -2.756  -3.509   6.324  0.00  0.00    +0.001 C 
ATOM     16  C   UNL     1      -2.936  -4.433   5.118  0.00  0.00    +0.019 C 
ATOM     17  C   UNL     1      -2.883  -3.607   3.831  0.00  0.00    +0.105 C 
BRANCH  17  18
ATOM     18  C   UNL     1      -3.961  -2.605   3.846  0.00  0.00    +0.067 C 
ATOM     19  N   UNL     1      -4.793  -1.832   3.858  0.00  0.00    -0.196 NA
ENDBRANCH  17  18
ENDBRANCH  11  12
ENDBRANCH   7  11
TORSDOF 4
