REMARK  Name = ZINC32906724
REMARK  4 active torsions:
REMARK  status: ('A' for Active; 'I' for Inactive)
REMARK    1  A    between atoms: C_6  and  C_7
REMARK    2  A    between atoms: C_7  and  C_9
REMARK    3  A    between atoms: C_7  and  O_23
REMARK    4  A    between atoms: C_9  and  N_10
REMARK                            x       y       z     vdW  Elec       q    Type
REMARK                         _______ _______ _______ _____ _____    ______ ____
ROOT
ATOM      1  N   UNL     1      -3.735   4.506  -1.188  0.00  0.00    -0.221 N 
ATOM      2  C   UNL     1      -2.439   4.843  -1.031  0.00  0.00    +0.247 C 
ATOM      3  O   UNL     1      -1.914   5.894  -1.329  0.00  0.00    -0.273 OA
ATOM      4  C   UNL     1      -1.776   3.633  -0.405  0.00  0.00    +0.113 C 
ATOM      5  C   UNL     1      -0.693   3.094  -1.299  0.00  0.00    +0.035 C 
ATOM      6  C   UNL     1      -0.688   1.554  -1.194  0.00  0.00    +0.003 C 
ATOM      7  C   UNL     1      -0.013   1.086   0.008  0.00  0.00    +0.000 C 
ATOM      8  C   UNL     1      -0.703   1.568   1.299  0.00  0.00    +0.000 C 
ATOM      9  C   UNL     1      -0.272   2.985   1.569  0.00  0.00    +0.003 C 
ATOM     10  C   UNL     1      -1.264   4.015   0.997  0.00  0.00    +0.035 C 
ATOM     11  N   UNL     1      -2.877   2.666  -0.266  0.00  0.00    -0.285 N 
ATOM     12  C   UNL     1      -3.979   3.266  -0.750  0.00  0.00    +0.309 C 
ATOM     13  O   UNL     1      -5.074   2.740  -0.785  0.00  0.00    -0.252 OA
ATOM     14  H   UNL     1      -2.685   1.674   0.171  0.00  0.00    +0.151 HD
ENDROOT
BRANCH   1  15
ATOM     15  C   UNL     1      -4.751   5.389  -1.768  0.00  0.00    +0.154 C 
BRANCH  15  16
ATOM     16  C   UNL     1      -4.810   5.174  -3.281  0.00  0.00    +0.162 C 
BRANCH  16  22
ATOM     17  C   UNL     1      -7.127   5.933  -3.847  0.00  0.00    +0.007 A 
ATOM     18  C   UNL     1      -8.003   6.846  -4.403  0.00  0.00    +0.020 A 
ATOM     19  C   UNL     1      -7.517   7.987  -5.016  0.00  0.00    +0.041 A 
ATOM     20  C   UNL     1      -6.154   8.217  -5.067  0.00  0.00    +0.020 A 
ATOM     21  C   UNL     1      -5.278   7.306  -4.505  0.00  0.00    +0.007 A 
ATOM     22  C   UNL     1      -5.765   6.166  -3.893  0.00  0.00    -0.018 A 
ATOM     23 CL   UNL     1      -8.617   9.129  -5.722  0.00  0.00    -0.084 Cl
ENDBRANCH  16  22
BRANCH  16  24
ATOM     24  O   UNL     1      -5.261   3.846  -3.557  0.00  0.00    -0.386 OA
ATOM     25  H   UNL     1      -4.689   2.983  -3.188  0.00  0.00    +0.210 HD
ENDBRANCH  16  24
ENDBRANCH  15  16
ENDBRANCH   1  15
TORSDOF 4
