REMARK  Name = ZINC00933762
REMARK  10 active torsions:
REMARK  status: ('A' for Active; 'I' for Inactive)
REMARK    1  A    between atoms: C_3  and  C_6
REMARK    2  A    between atoms: C_6  and  N_7
REMARK    3  A    between atoms: N_7  and  C_8
REMARK    4  A    between atoms: N_7  and  S_16
REMARK    5  A    between atoms: C_8  and  C_9
REMARK    6  A    between atoms: S_16  and  C_19
REMARK    7  A    between atoms: C_22  and  S_25
REMARK    8  A    between atoms: S_25  and  N_28
REMARK    9  A    between atoms: N_28  and  C_29
REMARK   10  A    between atoms: C_29  and  C_30
REMARK                            x       y       z     vdW  Elec       q    Type
REMARK                         _______ _______ _______ _____ _____    ______ ____
ROOT
ATOM      1  S   UNL     1      -1.660   0.597  -8.021  0.00  0.00    +0.061 S 
ATOM      2  O   UNL     1      -0.435   1.192  -8.427  0.00  0.00    -0.153 OA
ATOM      3  O   UNL     1      -1.829  -0.811  -7.926  0.00  0.00    -0.153 OA
ENDROOT
BRANCH   1   4
ATOM      4  C   UNL     1      -2.038   1.258  -6.432  0.00  0.00    +0.106 A 
ATOM      5  C   UNL     1      -2.756   0.504  -5.523  0.00  0.00    +0.030 A 
ATOM      6  C   UNL     1      -3.051   1.022  -4.276  0.00  0.00    +0.030 A 
ATOM      7  C   UNL     1      -2.629   2.294  -3.938  0.00  0.00    +0.105 A 
ATOM      8  C   UNL     1      -1.916   3.050  -4.849  0.00  0.00    +0.030 A 
ATOM      9  C   UNL     1      -1.616   2.530  -6.094  0.00  0.00    +0.030 A 
BRANCH   7  10
ATOM     10  S   UNL     1      -3.006   2.954  -2.348  0.00  0.00    +0.058 S 
ATOM     11  O   UNL     1      -4.156   2.261  -1.883  0.00  0.00    -0.153 OA
ATOM     12  O   UNL     1      -2.970   4.369  -2.477  0.00  0.00    -0.153 OA
BRANCH  10  13
ATOM     13  N   UNL     1      -1.762   2.539  -1.338  0.00  0.00    -0.187 NA
ATOM     14  H   UNL     1      -1.922   1.940  -0.592  0.00  0.00    +0.148 HD
BRANCH  13  15
ATOM     15  C   UNL     1      -0.419   3.077  -1.570  0.00  0.00    +0.137 C 
BRANCH  15  16
ATOM     16  C   UNL     1       0.441   2.858  -0.324  0.00  0.00    +0.134 C 
ATOM     17  C   UNL     1       1.854   3.428  -0.556  0.00  0.00    +0.035 C 
ATOM     18  C   UNL     1       2.031   4.473   0.572  0.00  0.00    +0.031 C 
ATOM     19  C   UNL     1       0.977   4.013   1.610  0.00  0.00    +0.160 C 
ATOM     20  O   UNL     1      -0.125   3.562   0.794  0.00  0.00    -0.375 OA
ENDBRANCH  15  16
ENDBRANCH  13  15
ENDBRANCH  10  13
ENDBRANCH   7  10
ENDBRANCH   1   4
BRANCH   1  21
ATOM     21  N   UNL     1      -2.821   1.144  -9.067  0.00  0.00    -0.167 NA
BRANCH  21  22
ATOM     22  C   UNL     1      -2.683   2.462  -9.691  0.00  0.00    +0.152 C 
BRANCH  22  25
ATOM     23  C   UNL     1      -1.838   2.007 -13.377  0.00  0.00    +0.008 A 
ATOM     24  C   UNL     1      -2.633   2.114 -12.252  0.00  0.00    +0.012 A 
ATOM     25  C   UNL     1      -2.044   2.312 -11.047  0.00  0.00    +0.005 A 
ATOM     26  S   UNL     1      -0.313   2.340 -11.483  0.00  0.00    -0.100 S 
ATOM     27  C   UNL     1      -0.492   2.093 -13.242  0.00  0.00    +0.045 A 
ENDBRANCH  22  25
ENDBRANCH  21  22
BRANCH  21  28
ATOM     28  C   UNL     1      -3.987   0.309  -9.369  0.00  0.00    +0.145 C 
BRANCH  28  29
ATOM     29  C   UNL     1      -5.138   0.715  -8.484  0.00  0.00    -0.032 A 
ATOM     30  C   UNL     1      -5.360   0.052  -7.292  0.00  0.00    +0.006 A 
ATOM     31  C   UNL     1      -6.412   0.427  -6.478  0.00  0.00    +0.020 A 
ATOM     32  C   UNL     1      -7.249   1.460  -6.861  0.00  0.00    +0.041 A 
ATOM     33  C   UNL     1      -7.029   2.120  -8.057  0.00  0.00    +0.020 A 
ATOM     34  C   UNL     1      -5.974   1.747  -8.868  0.00  0.00    +0.006 A 
ATOM     35 CL   UNL     1      -8.574   1.927  -5.842  0.00  0.00    -0.084 Cl
ENDBRANCH  28  29
ENDBRANCH  21  28
ENDBRANCH   1  21
TORSDOF 10
