REMARK  Name = ZINC39532688
REMARK  10 active torsions:
REMARK  status: ('A' for Active; 'I' for Inactive)
REMARK    1  A    between atoms: C_1  and  C_2
REMARK    2  A    between atoms: C_4  and  C_21
REMARK    3  A    between atoms: C_7  and  C_10
REMARK    4  A    between atoms: C_15  and  N_16
REMARK    5  A    between atoms: N_16  and  S_17
REMARK    6  A    between atoms: S_17  and  C_20
REMARK    7  A    between atoms: C_21  and  N_22
REMARK    8  A    between atoms: N_22  and  C_23
REMARK    9  A    between atoms: N_22  and  C_24
REMARK   10  A    between atoms: C_24  and  C_25
REMARK                            x       y       z     vdW  Elec       q    Type
REMARK                         _______ _______ _______ _____ _____    ______ ____
ROOT
ATOM      1  C   UNL     1       0.803   1.852   0.292  0.00  0.00    +0.039 C 
ATOM      2  C   UNL     1       0.665   0.342   0.087  0.00  0.00    +0.133 C 
ATOM      3  C   UNL     1      -0.810  -0.028  -0.161  0.00  0.00    +0.068 C 
ATOM      4  N   UNL     1      -1.155  -0.960   0.942  0.00  0.00    -0.284 NA
ATOM      5  C   UNL     1       0.164  -1.494   1.372  0.00  0.00    +0.220 C 
ATOM      6  O   UNL     1       1.053  -0.359   1.284  0.00  0.00    -0.353 OA
ATOM      7  H   UNL     1      -1.611  -0.471   1.699  0.00  0.00    +0.125 HD
ENDROOT
BRANCH   5   8
ATOM      8  C   UNL     1       0.090  -2.003   2.788  0.00  0.00    +0.018 A 
ATOM      9  C   UNL     1      -0.975  -1.653   3.595  0.00  0.00    +0.009 A 
ATOM     10  C   UNL     1      -1.043  -2.118   4.895  0.00  0.00    +0.001 A 
ATOM     11  C   UNL     1      -0.045  -2.936   5.393  0.00  0.00    +0.002 A 
ATOM     12  C   UNL     1       1.023  -3.290   4.592  0.00  0.00    +0.025 A 
ATOM     13  C   UNL     1       1.092  -2.828   3.283  0.00  0.00    +0.055 A 
BRANCH  13  14
ATOM     14  N   UNL     1       2.168  -3.189   2.469  0.00  0.00    -0.220 N 
ATOM     15  H   UNL     1       2.521  -2.556   1.825  0.00  0.00    +0.173 HD
BRANCH  14  16
ATOM     16  S   UNL     1       2.840  -4.696   2.605  0.00  0.00    +0.040 S 
ATOM     17  O   UNL     1       3.827  -4.746   1.584  0.00  0.00    -0.155 OA
ATOM     18  O   UNL     1       3.207  -4.808   3.973  0.00  0.00    -0.155 OA
ATOM     19  C   UNL     1       1.489  -5.845   2.224  0.00  0.00    +0.218 C 
ENDBRANCH  14  16
ENDBRANCH  13  14
ENDBRANCH   5   8
BRANCH   3  20
ATOM     20  C   UNL     1      -1.691   1.222  -0.101  0.00  0.00    -0.057 C 
BRANCH  20  21
ATOM     21  N   UNL     1      -3.102   0.832  -0.221  0.00  0.00    +0.382 N 
ATOM     22  C   UNL     1      -3.340   0.253  -1.549  0.00  0.00    -0.096 C 
ATOM     23  H   UNL     1      -3.324   0.150   0.489  0.00  0.00    -0.082 HD
BRANCH  21  24
ATOM     24  C   UNL     1      -3.953   2.017  -0.044  0.00  0.00    -0.041 C 
BRANCH  24  25
ATOM     25  C   UNL     1      -5.401   1.599  -0.043  0.00  0.00    -0.039 A 
ATOM     26  C   UNL     1      -6.141   1.020   1.081  0.00  0.00    +0.001 A 
ATOM     27  C   UNL     1      -5.807   0.690   2.396  0.00  0.00    +0.010 A 
ATOM     28  C   UNL     1      -6.752   0.150   3.221  0.00  0.00    +0.001 A 
ATOM     29  C   UNL     1      -8.043  -0.074   2.763  0.00  0.00    +0.002 A 
ATOM     30  C   UNL     1      -8.395   0.244   1.469  0.00  0.00    +0.026 A 
ATOM     31  C   UNL     1      -7.448   0.796   0.612  0.00  0.00    +0.047 A 
ATOM     32  N   UNL     1      -7.486   1.211  -0.700  0.00  0.00    -0.360 N 
ATOM     33  C   UNL     1      -6.259   1.692  -1.071  0.00  0.00    +0.085 A 
ATOM     34  H   UNL     1      -8.266   1.173  -1.275  0.00  0.00    +0.165 HD
ENDBRANCH  24  25
ENDBRANCH  21  24
ENDBRANCH  20  21
ENDBRANCH   3  20
TORSDOF 7
