REMARK  Name = ZINC02533854
REMARK  7 active torsions:
REMARK  status: ('A' for Active; 'I' for Inactive)
REMARK    1  A    between atoms: C_4  and  C_7
REMARK    2  A    between atoms: C_7  and  C_8
REMARK    3  A    between atoms: C_8  and  N_9
REMARK    4  A    between atoms: N_20  and  C_23
REMARK    5  A    between atoms: C_23  and  C_24
REMARK    6  A    between atoms: N_26  and  C_27
REMARK    7  A    between atoms: C_27  and  C_28
REMARK                            x       y       z     vdW  Elec       q    Type
REMARK                         _______ _______ _______ _____ _____    ______ ____
ROOT
ATOM      1  N   UNL     1      -6.025   4.355   0.077  0.00  0.00    -0.255 N 
ATOM      2  C   UNL     1      -4.809   4.875   0.074  0.00  0.00    +0.259 C 
ATOM      3  O   UNL     1      -4.625   6.076   0.085  0.00  0.00    -0.269 OA
ATOM      4  C   UNL     1      -3.678   3.907   0.054  0.00  0.00    +0.089 C 
ATOM      5  C   UNL     1      -2.317   4.143   0.043  0.00  0.00    +0.065 C 
ATOM      6  C   UNL     1      -1.230   3.141   0.029  0.00  0.00    +0.010 A 
ATOM      7  C   UNL     1      -1.218   1.748   0.017  0.00  0.00    +0.010 A 
ATOM      8  C   UNL     1      -0.013   1.076   0.008  0.00  0.00    +0.001 A 
ATOM      9  C   UNL     1       1.178   1.784   0.000  0.00  0.00    +0.002 A 
ATOM     10  C   UNL     1       1.176   3.164   0.007  0.00  0.00    +0.024 A 
ATOM     11  C   UNL     1      -0.027   3.861   0.022  0.00  0.00    +0.045 A 
ATOM     12  N   UNL     1      -0.306   5.223   0.030  0.00  0.00    -0.258 N 
ATOM     13  C   UNL     1      -1.631   5.451   0.043  0.00  0.00    +0.253 C 
ATOM     14  O   UNL     1      -2.169   6.542   0.053  0.00  0.00    -0.270 OA
ATOM     15  S   UNL     1      -4.566   2.356   0.055  0.00  0.00    -0.060 S 
ATOM     16  C   UNL     1      -6.223   3.022   0.073  0.00  0.00    +0.121 C 
ATOM     17  S   UNL     1      -7.708   2.170   0.081  0.00  0.00    -0.027 S 
ENDROOT
BRANCH   1  18
ATOM     18  C   UNL     1      -7.184   5.250   0.092  0.00  0.00    +0.119 C 
BRANCH  18  19
ATOM     19  C   UNL     1      -7.575   5.555   1.540  0.00  0.00    +0.054 C 
BRANCH  19  23
ATOM     20  C   UNL     1     -10.957   8.164   1.583  0.00  0.00    +0.000 A 
ATOM     21  C   UNL     1     -11.141   6.794   1.578  0.00  0.00    +0.000 A 
ATOM     22  C   UNL     1     -10.046   5.950   1.564  0.00  0.00    +0.004 A 
ATOM     23  C   UNL     1      -8.768   6.475   1.555  0.00  0.00    -0.046 A 
ATOM     24  C   UNL     1      -8.584   7.845   1.565  0.00  0.00    +0.004 A 
ATOM     25  C   UNL     1      -9.678   8.690   1.575  0.00  0.00    +0.000 A 
ENDBRANCH  19  23
ENDBRANCH  18  19
ENDBRANCH   1  18
BRANCH  12  26
ATOM     26  C   UNL     1       0.713   6.275   0.026  0.00  0.00    +0.209 C 
BRANCH  26  27
ATOM     27  C   UNL     1       1.050   6.642  -1.396  0.00  0.00    +0.231 C 
ATOM     28  O   UNL     1       0.494   6.080  -2.316  0.00  0.00    -0.274 OA
ATOM     29  N   UNL     1       1.970   7.595  -1.646  0.00  0.00    -0.310 N 
ATOM     30  H   UNL     1       2.475   8.104  -0.812  0.00  0.00    +0.149 HD
BRANCH  29  31
ATOM     31  C   UNL     1       2.298   7.952  -3.029  0.00  0.00    +0.139 C 
BRANCH  31  32
ATOM     32  C   UNL     1       3.347   9.034  -3.033  0.00  0.00    -0.030 A 
ATOM     33  C   UNL     1       2.968  10.363  -3.029  0.00  0.00    +0.005 A 
ATOM     34  C   UNL     1       3.930  11.356  -3.029  0.00  0.00    +0.000 A 
ATOM     35  C   UNL     1       5.271  11.019  -3.041  0.00  0.00    +0.000 A 
ATOM     36  C   UNL     1       5.649   9.690  -3.050  0.00  0.00    +0.000 A 
ATOM     37  C   UNL     1       4.688   8.697  -3.046  0.00  0.00    +0.005 A 
ENDBRANCH  31  32
ENDBRANCH  29  31
ENDBRANCH  26  27
ENDBRANCH  12  26
TORSDOF 7
