REMARK  Name = ZINC44737375
REMARK  11 active torsions:
REMARK  status: ('A' for Active; 'I' for Inactive)
REMARK    1  A    between atoms: C_1  and  C_2
REMARK    2  A    between atoms: C_2  and  C_3
REMARK    3  A    between atoms: C_3  and  C_4
REMARK    4  A    between atoms: C_4  and  C_5
REMARK    5  A    between atoms: C_5  and  C_6
REMARK    6  A    between atoms: C_6  and  C_7
REMARK    7  A    between atoms: C_11  and  C_20
REMARK    8  A    between atoms: N_22  and  C_23
REMARK    9  A    between atoms: C_23  and  C_25
REMARK   10  A    between atoms: C_23  and  C_26
REMARK   11  A    between atoms: C_31  and  C_35
REMARK                            x       y       z     vdW  Elec       q    Type
REMARK                         _______ _______ _______ _____ _____    ______ ____
ROOT
ATOM      1  C   UNL     1      -3.929  -4.677  -0.105  0.00  0.00    +0.216 C 
ATOM      2  O   UNL     1      -4.790  -3.824  -0.130  0.00  0.00    -0.276 OA
ATOM      3  N   UNL     1      -4.272  -5.980  -0.067  0.00  0.00    -0.300 N 
ATOM      4  C   UNL     1      -3.370  -7.155  -0.026  0.00  0.00    +0.121 C 
ATOM      5  C   UNL     1      -4.055  -8.139   0.949  0.00  0.00    +0.100 C 
ATOM      6  C   UNL     1      -5.542  -7.745   0.924  0.00  0.00    -0.004 C 
ATOM      7  C   UNL     1      -5.636  -6.561  -0.049  0.00  0.00    +0.115 C 
ATOM      8  C   UNL     1      -5.998  -7.315   2.315  0.00  0.00    -0.010 C 
ATOM      9  C   UNL     1      -7.492  -6.983   2.277  0.00  0.00    -0.082 C 
ATOM     10  N   UNL     1      -8.246  -8.162   1.835  0.00  0.00    +0.379 N 
ATOM     11  C   UNL     1      -7.868  -8.513   0.461  0.00  0.00    -0.082 C 
ATOM     12  C   UNL     1      -6.389  -8.910   0.422  0.00  0.00    -0.010 C 
ATOM     13  H   UNL     1      -8.043  -8.938   2.447  0.00  0.00    -0.086 HD
ATOM     14  H   UNL     1      -9.234  -7.960   1.869  0.00  0.00    -0.086 HD
ENDROOT
BRANCH   5  15
ATOM     15  C   UNL     1      -3.491  -7.981   2.337  0.00  0.00    +0.219 C 
ATOM     16  O   UNL     1      -3.080  -6.901   2.705  0.00  0.00    -0.275 OA
ATOM     17  N   UNL     1      -3.444  -9.039   3.170  0.00  0.00    -0.305 N 
ATOM     18  H   UNL     1      -3.773  -9.903   2.876  0.00  0.00    +0.149 HD
BRANCH  17  19
ATOM     19  C   UNL     1      -2.895  -8.885   4.520  0.00  0.00    +0.136 C 
ATOM     20  C   UNL     1      -3.991  -8.380   5.461  0.00  0.00    +0.036 C 
BRANCH  19  21
ATOM     21  C   UNL     1      -2.386 -10.216   5.010  0.00  0.00    +0.128 A 
ATOM     22  N   UNL     1      -2.804 -11.374   4.590  0.00  0.00    -0.231 NA
ATOM     23  C   UNL     1      -2.137 -12.363   5.239  0.00  0.00    +0.089 A 
ATOM     24  C   UNL     1      -2.186 -13.758   5.181  0.00  0.00    +0.030 A 
ATOM     25  C   UNL     1      -1.367 -14.502   5.982  0.00  0.00    +0.005 A 
ATOM     26  C   UNL     1      -0.483 -13.887   6.856  0.00  0.00    -0.048 A 
ATOM     27  C   UNL     1      -0.417 -12.512   6.931  0.00  0.00    +0.031 A 
ATOM     28  C   UNL     1      -1.242 -11.739   6.125  0.00  0.00    +0.067 A 
ATOM     29  N   UNL     1      -1.419 -10.381   5.952  0.00  0.00    -0.340 N 
ATOM     30  C   UNL     1       0.411 -14.728   7.731  0.00  0.00    +0.044 C 
ATOM     31  H   UNL     1      -0.943  -9.676   6.418  0.00  0.00    +0.167 HD
ENDBRANCH  19  21
ENDBRANCH  17  19
ENDBRANCH   5  15
BRANCH   1  32
ATOM     32  C   UNL     1      -2.475  -4.280  -0.118  0.00  0.00    +0.096 C 
BRANCH  32  33
ATOM     33  C   UNL     1      -2.363  -2.755  -0.163  0.00  0.00    +0.009 C 
BRANCH  33  34
ATOM     34  C   UNL     1      -0.887  -2.353  -0.176  0.00  0.00    +0.000 C 
BRANCH  34  35
ATOM     35  C   UNL     1      -0.775  -0.827  -0.221  0.00  0.00    -0.000 C 
BRANCH  35  37
ATOM     36  C   UNL     1       0.813   1.101  -0.279  0.00  0.00    +0.004 C 
ATOM     37  C   UNL     1       0.701  -0.424  -0.234  0.00  0.00    -0.003 C 
ENDBRANCH  35  37
ENDBRANCH  34  35
ENDBRANCH  33  34
ENDBRANCH  32  33
ENDBRANCH   1  32
TORSDOF 8
