REMARK  Name = ZINC15378306
REMARK  8 active torsions:
REMARK  status: ('A' for Active; 'I' for Inactive)
REMARK    1  A    between atoms: C_4  and  O_34
REMARK    2  A    between atoms: C_5  and  N_7
REMARK    3  A    between atoms: N_10  and  C_13
REMARK    4  A    between atoms: C_13  and  C_14
REMARK    5  A    between atoms: C_17  and  C_20
REMARK    6  A    between atoms: C_20  and  N_21
REMARK    7  A    between atoms: N_24  and  C_27
REMARK    8  A    between atoms: C_32  and  O_33
REMARK                            x       y       z     vdW  Elec       q    Type
REMARK                         _______ _______ _______ _____ _____    ______ ____
ROOT
ATOM      1  C   UNL     1      -1.051   1.363   1.380  0.00  0.00    -0.064 A 
ATOM      2  C   UNL     1      -0.891   2.545   2.079  0.00  0.00    +0.002 A 
ATOM      3  C   UNL     1      -1.658   2.792   3.203  0.00  0.00    +0.005 A 
ATOM      4  C   UNL     1      -2.577   1.854   3.632  0.00  0.00    -0.033 A 
ATOM      5  C   UNL     1      -2.733   0.670   2.936  0.00  0.00    +0.005 A 
ATOM      6  C   UNL     1      -1.970   0.425   1.810  0.00  0.00    +0.002 A 
ENDROOT
BRANCH   1   7
ATOM      7  C   UNL     1      -0.219   1.096   0.152  0.00  0.00    -0.043 C 
BRANCH   7  11
ATOM      8  N   UNL     1      -2.022   1.419  -3.655  0.00  0.00    -0.331 N 
ATOM      9  C   UNL     1      -0.788   2.180  -3.410  0.00  0.00    +0.086 C 
ATOM     10  C   UNL     1      -0.047   1.575  -2.216  0.00  0.00    -0.059 C 
ATOM     11  N   UNL     1      -0.922   1.601  -1.035  0.00  0.00    +0.384 N 
ATOM     12  C   UNL     1      -2.155   0.840  -1.280  0.00  0.00    -0.059 C 
ATOM     13  C   UNL     1      -2.896   1.445  -2.474  0.00  0.00    +0.086 C 
ATOM     14  H   UNL     1      -1.201   2.647  -0.842  0.00  0.00    -0.081 HD
BRANCH   8  19
ATOM     15  C   UNL     1      -4.588   2.985  -5.772  0.00  0.00    +0.002 A 
ATOM     16  C   UNL     1      -4.017   2.851  -7.024  0.00  0.00    +0.004 A 
ATOM     17  C   UNL     1      -2.784   2.242  -7.164  0.00  0.00    +0.047 A 
ATOM     18  C   UNL     1      -2.116   1.765  -6.048  0.00  0.00    +0.138 A 
ATOM     19  C   UNL     1      -2.691   1.900  -4.786  0.00  0.00    +0.072 A 
ATOM     20  C   UNL     1      -3.931   2.507  -4.654  0.00  0.00    +0.027 A 
BRANCH  18  21
ATOM     21  O   UNL     1      -0.903   1.165  -6.184  0.00  0.00    -0.505 OA
ATOM     22  H   UNL     1      -0.375   0.786  -5.297  0.00  0.00    +0.292 HD
ENDBRANCH  18  21
ENDBRANCH   8  19
ENDBRANCH   7  11
ENDBRANCH   1   7
BRANCH   4  23
ATOM     23  C   UNL     1      -3.410   2.122   4.860  0.00  0.00    +0.119 C 
BRANCH  23  24
ATOM     24  N   UNL     1      -2.708   1.617   6.047  0.00  0.00    -0.295 NA
ATOM     25  C   UNL     1      -2.603   0.151   6.013  0.00  0.00    +0.103 C 
ATOM     26  C   UNL     1      -1.799  -0.328   7.224  0.00  0.00    +0.120 C 
ATOM     27  N   UNL     1      -2.460   0.121   8.457  0.00  0.00    -0.325 N 
ATOM     28  C   UNL     1      -2.566   1.586   8.491  0.00  0.00    +0.120 C 
ATOM     29  C   UNL     1      -3.370   2.066   7.280  0.00  0.00    +0.103 C 
BRANCH  27  30
ATOM     30  C   UNL     1      -1.792  -0.360   9.589  0.00  0.00    +0.072 A 
ATOM     31  C   UNL     1      -0.550  -0.966   9.458  0.00  0.00    +0.027 A 
ATOM     32  C   UNL     1       0.110  -1.436  10.578  0.00  0.00    +0.002 A 
ATOM     33  C   UNL     1      -0.468  -1.313  11.828  0.00  0.00    +0.004 A 
ATOM     34  C   UNL     1      -1.708  -0.716  11.965  0.00  0.00    +0.047 A 
ATOM     35  C   UNL     1      -2.374  -0.238  10.848  0.00  0.00    +0.138 A 
BRANCH  35  36
ATOM     36  O   UNL     1      -3.593   0.349  10.982  0.00  0.00    -0.505 OA
ATOM     37  H   UNL     1      -4.052   0.445  11.977  0.00  0.00    +0.292 HD
ENDBRANCH  35  36
ENDBRANCH  27  30
ENDBRANCH  23  24
ENDBRANCH   4  23
TORSDOF 8
