REMARK  Name = ZINC39319106
REMARK  5 active torsions:
REMARK  status: ('A' for Active; 'I' for Inactive)
REMARK    1  A    between atoms: C_8  and  N_13
REMARK    2  A    between atoms: N_13  and  N_14
REMARK    3  A    between atoms: C_20  and  C_22
REMARK    4  A    between atoms: C_25  and  N_31
REMARK    5  A    between atoms: C_27  and  N_28
REMARK                            x       y       z     vdW  Elec       q    Type
REMARK                         _______ _______ _______ _____ _____    ______ ____
ROOT
ATOM      1  N   UNL     1       3.142  -4.562   0.653  0.00  0.00    -0.193 NA
ATOM      2  C   UNL     1       3.571  -5.293   1.613  0.00  0.00    +0.044 C 
ATOM      3  C   UNL     1       4.442  -6.499   1.341  0.00  0.00    +0.053 C 
ATOM      4  C   UNL     1       3.839  -7.708   2.062  0.00  0.00    +0.006 C 
ATOM      5  C   UNL     1       3.664  -7.380   3.546  0.00  0.00    +0.001 C 
ATOM      6  C   UNL     1       2.661  -6.236   3.708  0.00  0.00    +0.014 C 
ATOM      7  C   UNL     1       3.224  -4.968   3.049  0.00  0.00    +0.067 C 
ENDROOT
BRANCH   7   8
ATOM      8  C   UNL     1       2.188  -3.874   3.085  0.00  0.00    -0.008 A 
ATOM      9  C   UNL     1       1.028  -3.996   2.343  0.00  0.00    +0.009 A 
ATOM     10  C   UNL     1       0.078  -2.993   2.376  0.00  0.00    +0.033 A 
ATOM     11  C   UNL     1       0.288  -1.867   3.151  0.00  0.00    +0.128 A 
ATOM     12  C   UNL     1       1.447  -1.746   3.894  0.00  0.00    +0.065 A 
ATOM     13  C   UNL     1       2.396  -2.751   3.864  0.00  0.00    +0.132 A 
BRANCH  13  14
ATOM     14  N   UNL     1       3.635  -2.624   4.664  0.00  0.00    +0.057 N 
ATOM     15  O   UNL     1       3.953  -1.549   5.118  0.00  0.00    -0.126 OA
ATOM     16  O   UNL     1       4.329  -3.594   4.862  0.00  0.00    -0.126 OA
ENDBRANCH  13  14
BRANCH  11  17
ATOM     17  N   UNL     1      -0.729  -0.792   3.186  0.00  0.00    +0.056 N 
ATOM     18  O   UNL     1      -1.743  -0.898   2.535  0.00  0.00    -0.126 OA
ATOM     19  O   UNL     1      -0.546   0.192   3.864  0.00  0.00    -0.126 OA
ENDBRANCH  11  17
ENDBRANCH   7   8
BRANCH   1  20
ATOM     20  N   UNL     1       2.839  -3.214   0.881  0.00  0.00    -0.238 N 
ATOM     21  H   UNL     1       2.960  -2.832   1.764  0.00  0.00    +0.171 HD
BRANCH  20  29
ATOM     22  C   UNL     1       0.698   2.074   0.594  0.00  0.00    +0.002 A 
ATOM     23  C   UNL     1       1.838   2.568  -0.060  0.00  0.00    +0.002 A 
ATOM     24  C   UNL     1       2.794   1.761  -0.578  0.00  0.00    +0.025 A 
ATOM     25  C   UNL     1       2.676   0.357  -0.476  0.00  0.00    +0.057 A 
ATOM     26  N   UNL     1       3.613  -0.427  -0.983  0.00  0.00    -0.281 N 
ATOM     27  C   UNL     1       3.531  -1.757  -0.903  0.00  0.00    +0.259 C 
ATOM     28  O   UNL     1       4.405  -2.456  -1.375  0.00  0.00    -0.271 OA
ATOM     29  C   UNL     1       2.338  -2.381  -0.215  0.00  0.00    +0.269 C 
ATOM     30  N   UNL     1       1.313  -1.481   0.338  0.00  0.00    -0.357 N 
ATOM     31  C   UNL     1       1.482  -0.196   0.211  0.00  0.00    +0.059 A 
ATOM     32  C   UNL     1       0.487   0.748   0.746  0.00  0.00    +0.027 A 
ATOM     33  H   UNL     1       0.531  -1.837   0.787  0.00  0.00    +0.162 HD
ATOM     34  H   UNL     1       4.378  -0.025  -1.423  0.00  0.00    +0.155 HD
ENDBRANCH  20  29
ENDBRANCH   1  20
TORSDOF 5
