REMARK  Name = ZINC35761452
REMARK  13 active torsions:
REMARK  status: ('A' for Active; 'I' for Inactive)
REMARK    1  A    between atoms: C_1  and  C_2
REMARK    2  A    between atoms: C_5  and  C_8
REMARK    3  A    between atoms: C_8  and  N_9
REMARK    4  A    between atoms: N_9  and  C_10
REMARK    5  A    between atoms: C_10  and  C_11
REMARK    6  A    between atoms: C_11  and  C_12
REMARK    7  A    between atoms: C_22  and  C_24
REMARK    8  A    between atoms: C_24  and  N_25
REMARK    9  A    between atoms: N_25  and  C_26
REMARK   10  A    between atoms: N_31  and  C_32
REMARK   11  A    between atoms: C_35  and  C_38
REMARK   12  A    between atoms: C_38  and  C_39
REMARK   13  A    between atoms: C_38  and  C_40
REMARK                            x       y       z     vdW  Elec       q    Type
REMARK                         _______ _______ _______ _____ _____    ______ ____
ROOT
ATOM      1  N   UNL     1      -0.259  -3.666  -1.112  0.00  0.00    -0.296 N 
ATOM      2  C   UNL     1       0.765  -3.871  -1.964  0.00  0.00    +0.233 C 
ATOM      3  O   UNL     1       1.894  -3.995  -1.538  0.00  0.00    -0.274 OA
ENDROOT
BRANCH   1   4
ATOM      4  C   UNL     1      -1.633  -3.617  -1.617  0.00  0.00    +0.143 C 
BRANCH   4   9
ATOM      5  C   UNL     1      -3.158   1.882  -2.526  0.00  0.00    +0.044 C 
ATOM      6  C   UNL     1      -2.760   0.448  -2.289  0.00  0.00    -0.050 A 
ATOM      7  C   UNL     1      -2.246  -0.307  -3.326  0.00  0.00    +0.003 A 
ATOM      8  C   UNL     1      -1.881  -1.623  -3.109  0.00  0.00    +0.005 A 
ATOM      9  C   UNL     1      -2.030  -2.183  -1.854  0.00  0.00    -0.030 A 
ATOM     10  C   UNL     1      -2.544  -1.427  -0.816  0.00  0.00    +0.005 A 
ATOM     11  C   UNL     1      -2.905  -0.110  -1.033  0.00  0.00    +0.003 A 
ENDBRANCH   4   9
ENDBRANCH   1   4
BRANCH   1  12
ATOM     12  C   UNL     1       0.003  -3.493   0.319  0.00  0.00    +0.113 C 
BRANCH  12  13
ATOM     13  C   UNL     1      -0.029  -4.857   1.012  0.00  0.00    +0.056 C 
BRANCH  13  14
ATOM     14  C   UNL     1       0.240  -4.679   2.484  0.00  0.00    -0.021 A 
ATOM     15  C   UNL     1       1.429  -4.787   3.097  0.00  0.00    +0.087 A 
ATOM     16  N   UNL     1       1.285  -4.559   4.439  0.00  0.00    -0.360 N 
ATOM     17  H   UNL     1       2.004  -4.582   5.088  0.00  0.00    +0.165 HD
ATOM     18  C   UNL     1      -0.035  -4.293   4.729  0.00  0.00    +0.047 A 
ATOM     19  C   UNL     1      -0.746  -4.350   3.516  0.00  0.00    +0.003 A 
ATOM     20  C   UNL     1      -2.121  -4.112   3.503  0.00  0.00    +0.010 A 
ATOM     21  C   UNL     1      -2.770  -3.821   4.670  0.00  0.00    +0.001 A 
ATOM     22  C   UNL     1      -2.072  -3.759   5.869  0.00  0.00    +0.002 A 
ATOM     23  C   UNL     1      -0.716  -4.000   5.905  0.00  0.00    +0.026 A 
ENDBRANCH  13  14
ENDBRANCH  12  13
ENDBRANCH   1  12
BRANCH   2  24
ATOM     24  C   UNL     1       0.508  -3.945  -3.447  0.00  0.00    +0.205 C 
BRANCH  24  25
ATOM     25  N   UNL     1       1.754  -4.278  -4.143  0.00  0.00    -0.274 N 
ATOM     26  C   UNL     1       2.575  -3.295  -4.563  0.00  0.00    +0.307 C 
ATOM     27  O   UNL     1       2.329  -2.138  -4.285  0.00  0.00    -0.252 OA
ATOM     28  N   UNL     1       3.669  -3.596  -5.290  0.00  0.00    -0.269 N 
ATOM     29  H   UNL     1       3.819  -4.508  -5.586  0.00  0.00    +0.156 HD
BRANCH  28  30
ATOM     30  C   UNL     1       4.587  -2.593  -5.620  0.00  0.00    +0.035 A 
ATOM     31  C   UNL     1       4.833  -1.555  -4.731  0.00  0.00    +0.023 A 
ATOM     32  C   UNL     1       5.741  -0.567  -5.059  0.00  0.00    +0.006 A 
ATOM     33  C   UNL     1       6.404  -0.611  -6.271  0.00  0.00    -0.045 A 
ATOM     34  C   UNL     1       6.162  -1.643  -7.159  0.00  0.00    +0.006 A 
ATOM     35  C   UNL     1       5.259  -2.637  -6.834  0.00  0.00    +0.023 A 
BRANCH  33  36
ATOM     36  C   UNL     1       7.394   0.469  -6.626  0.00  0.00    +0.013 C 
ATOM     37  C   UNL     1       8.772  -0.157  -6.852  0.00  0.00    +0.012 C 
ATOM     38  C   UNL     1       6.939   1.178  -7.903  0.00  0.00    +0.012 C 
ENDBRANCH  33  36
ENDBRANCH  28  30
BRANCH  25  39
ATOM     39  C   UNL     1       2.106  -5.680  -4.382  0.00  0.00    +0.078 C 
ATOM     40  C   UNL     1       1.016  -6.730  -4.162  0.00  0.00    +0.024 C 
ATOM     41  C   UNL     1       2.173  -6.609  -3.168  0.00  0.00    +0.024 C 
ENDBRANCH  25  39
ENDBRANCH  24  25
ENDBRANCH   2  24
TORSDOF 10
