REMARK  Name = ZINC04347413
REMARK  13 active torsions:
REMARK  status: ('A' for Active; 'I' for Inactive)
REMARK    1  A    between atoms: C_1  and  C_2
REMARK    2  A    between atoms: C_2  and  O_3
REMARK    3  A    between atoms: O_3  and  C_4
REMARK    4  A    between atoms: C_7  and  C_10
REMARK    5  A    between atoms: C_10  and  O_12
REMARK    6  A    between atoms: O_12  and  C_13
REMARK    7  A    between atoms: C_22  and  C_23
REMARK    8  A    between atoms: N_24  and  N_25
REMARK    9  A    between atoms: C_26  and  C_28
REMARK   10  A    between atoms: C_28  and  N_29
REMARK   11  A    between atoms: C_30  and  C_32
REMARK   12  A    between atoms: C_35  and  O_38
REMARK   13  A    between atoms: O_38  and  C_39
REMARK                            x       y       z     vdW  Elec       q    Type
REMARK                         _______ _______ _______ _____ _____    ______ ____
ROOT
ATOM      1  C   UNL     1       1.249   5.986   0.035  0.00  0.00    +0.141 A 
ATOM      2  C   UNL     1       2.499   5.477  -0.316  0.00  0.00    +0.047 A 
ATOM      3  C   UNL     1       2.724   4.141  -0.424  0.00  0.00    +0.012 A 
ATOM      4  C   UNL     1       1.692   3.216  -0.184  0.00  0.00    -0.017 A 
ATOM      5  C   UNL     1       1.913   1.833  -0.293  0.00  0.00    +0.008 A 
ATOM      6  C   UNL     1       0.890   0.966  -0.052  0.00  0.00    +0.001 A 
ATOM      7  C   UNL     1      -0.376   1.430   0.296  0.00  0.00    +0.001 A 
ATOM      8  C   UNL     1      -0.624   2.765   0.417  0.00  0.00    +0.009 A 
ATOM      9  C   UNL     1       0.405   3.684   0.176  0.00  0.00    -0.006 A 
ATOM     10  C   UNL     1       0.182   5.124   0.288  0.00  0.00    +0.045 A 
ENDROOT
BRANCH  10  11
ATOM     11  C   UNL     1      -1.138   5.653   0.660  0.00  0.00    +0.142 C 
ATOM     12  N   UNL     1      -1.304   6.932   0.820  0.00  0.00    -0.188 NA
BRANCH  12  13
ATOM     13  N   UNL     1      -2.531   7.427   1.282  0.00  0.00    -0.206 N 
ATOM     14  C   UNL     1      -2.740   8.757   1.345  0.00  0.00    +0.249 C 
ATOM     15  O   UNL     1      -1.838   9.526   1.089  0.00  0.00    -0.272 OA
ATOM     16  H   UNL     1      -3.229   6.813   1.556  0.00  0.00    +0.177 HD
BRANCH  14  17
ATOM     17  C   UNL     1      -4.096   9.289   1.732  0.00  0.00    +0.202 C 
BRANCH  17  18
ATOM     18  N   UNL     1      -4.066  10.753   1.727  0.00  0.00    -0.303 N 
ATOM     19  C   UNL     1      -5.175  11.451   2.044  0.00  0.00    +0.244 C 
ATOM     20  O   UNL     1      -6.200  10.865   2.334  0.00  0.00    -0.270 OA
ATOM     21  H   UNL     1      -3.248  11.221   1.495  0.00  0.00    +0.150 HD
BRANCH  19  22
ATOM     22  C   UNL     1      -5.144  12.927   2.039  0.00  0.00    +0.037 A 
ATOM     23  C   UNL     1      -3.966  13.602   1.711  0.00  0.00    +0.016 A 
ATOM     24  C   UNL     1      -3.943  14.979   1.701  0.00  0.00    +0.046 A 
ATOM     25  C   UNL     1      -5.088  15.697   2.029  0.00  0.00    +0.120 A 
ATOM     26  C   UNL     1      -6.260  15.029   2.361  0.00  0.00    +0.046 A 
ATOM     27  C   UNL     1      -6.293  13.652   2.367  0.00  0.00    +0.016 A 
BRANCH  25  28
ATOM     28  O   UNL     1      -5.060  17.054   2.025  0.00  0.00    -0.495 OA
ATOM     29  C   UNL     1      -3.822  17.676   1.674  0.00  0.00    +0.277 C 
ENDBRANCH  25  28
ENDBRANCH  19  22
ENDBRANCH  17  18
ENDBRANCH  14  17
ENDBRANCH  12  13
ENDBRANCH  10  11
BRANCH   1  30
ATOM     30  O   UNL     1       1.070   7.328   0.132  0.00  0.00    -0.422 OA
BRANCH  30  31
ATOM     31  C   UNL     1       1.239   7.882   1.349  0.00  0.00    +0.344 C 
ATOM     32  O   UNL     1       1.438   7.174   2.316  0.00  0.00    -0.245 OA
BRANCH  31  36
ATOM     33  C   UNL     1       1.077  12.100   1.803  0.00  0.00    +0.121 A 
ATOM     34  C   UNL     1       1.313  11.292   2.910  0.00  0.00    +0.046 A 
ATOM     35  C   UNL     1       1.366   9.924   2.767  0.00  0.00    +0.018 A 
ATOM     36  C   UNL     1       1.183   9.347   1.507  0.00  0.00    +0.060 A 
ATOM     37  C   UNL     1       0.951  10.163   0.396  0.00  0.00    +0.018 A 
ATOM     38  C   UNL     1       0.893  11.530   0.548  0.00  0.00    +0.046 A 
BRANCH  33  39
ATOM     39  O   UNL     1       1.024  13.448   1.948  0.00  0.00    -0.492 OA
BRANCH  39  41
ATOM     40  C   UNL     1       0.755  15.706   1.129  0.00  0.00    +0.048 C 
ATOM     41  C   UNL     1       0.778  14.218   0.770  0.00  0.00    +0.225 C 
ENDBRANCH  39  41
ENDBRANCH  33  39
ENDBRANCH  31  36
ENDBRANCH  30  31
ENDBRANCH   1  30
TORSDOF 11
