REMARK  Name = ZINC09129999
REMARK  11 active torsions:
REMARK  status: ('A' for Active; 'I' for Inactive)
REMARK    1  A    between atoms: C_1  and  C_2
REMARK    2  A    between atoms: C_5  and  C_33
REMARK    3  A    between atoms: C_6  and  C_8
REMARK    4  A    between atoms: C_8  and  O_9
REMARK    5  A    between atoms: O_9  and  C_10
REMARK    6  A    between atoms: C_13  and  C_17
REMARK    7  A    between atoms: C_14  and  O_16
REMARK    8  A    between atoms: C_18  and  O_24
REMARK    9  A    between atoms: O_24  and  C_25
REMARK   10  A    between atoms: C_28  and  O_31
REMARK   11  A    between atoms: O_31  and  C_32
REMARK                            x       y       z     vdW  Elec       q    Type
REMARK                         _______ _______ _______ _____ _____    ______ ____
ROOT
ATOM      1  C   UNL     1      -3.675  -0.326  -0.023  0.00  0.00    +0.124 A 
ATOM      2  C   UNL     1      -3.810  -1.708  -0.060  0.00  0.00    +0.046 A 
ATOM      3  C   UNL     1      -5.062  -2.284  -0.025  0.00  0.00    +0.017 A 
ATOM      4  C   UNL     1      -6.198  -1.478   0.036  0.00  0.00    +0.046 A 
ATOM      5  C   UNL     1      -6.062  -0.085   0.069  0.00  0.00    +0.130 A 
ATOM      6  C   UNL     1      -4.800   0.484   0.039  0.00  0.00    +0.091 A 
ENDROOT
BRANCH   4   7
ATOM      7  C   UNL     1      -7.544  -2.093   0.067  0.00  0.00    +0.122 A 
ATOM      8  C   UNL     1      -7.894  -3.090  -0.856  0.00  0.00    +0.173 A 
ATOM      9  C   UNL     1      -9.166  -3.638  -0.782  0.00  0.00    +0.162 A 
ATOM     10  N   UNL     1     -10.007  -3.199   0.143  0.00  0.00    -0.219 NA
ATOM     11  C   UNL     1      -9.650  -2.253   0.997  0.00  0.00    +0.213 A 
ATOM     12  N   UNL     1      -8.446  -1.704   0.968  0.00  0.00    -0.211 NA
ATOM     13  N   UNL     1     -10.563  -1.824   1.948  0.00  0.00    -0.327 N 
ATOM     14  H   UNL     1     -10.315  -1.131   2.580  0.00  0.00    +0.145 HD
ATOM     15  H   UNL     1     -11.449  -2.217   1.982  0.00  0.00    +0.145 HD
BRANCH   8  16
ATOM     16  O   UNL     1      -7.006  -3.512  -1.795  0.00  0.00    -0.452 OA
BRANCH  16  17
ATOM     17  C   UNL     1      -7.440  -4.397  -2.731  0.00  0.00    +0.129 A 
ATOM     18  C   UNL     1      -7.079  -5.734  -2.642  0.00  0.00    +0.050 A 
ATOM     19  C   UNL     1      -7.524  -6.634  -3.590  0.00  0.00    +0.049 A 
ATOM     20  C   UNL     1      -8.323  -6.200  -4.638  0.00  0.00    +0.120 A 
ATOM     21  C   UNL     1      -8.680  -4.863  -4.729  0.00  0.00    +0.049 A 
ATOM     22  C   UNL     1      -8.240  -3.963  -3.778  0.00  0.00    +0.050 A 
BRANCH  20  23
ATOM     23  O   UNL     1      -8.756  -7.085  -5.574  0.00  0.00    -0.495 OA
ATOM     24  C   UNL     1      -8.350  -8.446  -5.418  0.00  0.00    +0.277 C 
ENDBRANCH  20  23
ENDBRANCH  16  17
ENDBRANCH   8  16
ENDBRANCH   4   7
BRANCH   5  25
ATOM     25  O   UNL     1      -7.164   0.706   0.130  0.00  0.00    -0.506 OA
ATOM     26  H   UNL     1      -7.514   0.959  -0.735  0.00  0.00    +0.292 HD
ENDBRANCH   5  25
BRANCH   1  27
ATOM     27  O   UNL     1      -2.438   0.235  -0.052  0.00  0.00    -0.487 OA
BRANCH  27  28
ATOM     28  C   UNL     1      -1.323  -0.656  -0.116  0.00  0.00    +0.264 C 
BRANCH  28  34
ATOM     29  C   UNL     1       1.035   3.757  -0.082  0.00  0.00    +0.044 C 
ATOM     30  C   UNL     1       1.084   2.252  -0.124  0.00  0.00    -0.050 A 
ATOM     31  C   UNL     1       2.302   1.601  -0.186  0.00  0.00    +0.003 A 
ATOM     32  C   UNL     1       2.347   0.220  -0.224  0.00  0.00    +0.004 A 
ATOM     33  C   UNL     1       1.174  -0.511  -0.201  0.00  0.00    -0.044 A 
ATOM     34  C   UNL     1      -0.044   0.140  -0.140  0.00  0.00    -0.007 A 
ATOM     35  C   UNL     1      -0.089   1.521  -0.102  0.00  0.00    +0.010 A 
ATOM     36  C   UNL     1       1.222  -2.016  -0.242  0.00  0.00    +0.044 C 
ENDBRANCH  28  34
ENDBRANCH  27  28
ENDBRANCH   1  27
TORSDOF 8
