REMARK  Name = ZINC03600581
REMARK  4 active torsions:
REMARK  status: ('A' for Active; 'I' for Inactive)
REMARK    1  A    between atoms: C_1  and  N_2
REMARK    2  A    between atoms: N_2  and  C_3
REMARK    3  A    between atoms: C_9  and  C_11
REMARK    4  A    between atoms: C_11  and  N_12
REMARK                            x       y       z     vdW  Elec       q    Type
REMARK                         _______ _______ _______ _____ _____    ______ ____
ROOT
ATOM      1  N   UNL     1       3.809  -4.703  -0.371  0.00  0.00    -0.215 N 
ATOM      2  C   UNL     1       4.586  -5.033   0.681  0.00  0.00    +0.251 C 
ATOM      3  O   UNL     1       4.283  -5.002   1.855  0.00  0.00    -0.272 OA
ATOM      4  C   UNL     1       5.913  -5.451   0.089  0.00  0.00    +0.138 C 
ATOM      5  C   UNL     1       6.211  -6.905   0.432  0.00  0.00    +0.040 C 
ATOM      6  C   UNL     1       6.589  -6.987   1.916  0.00  0.00    +0.008 C 
ATOM      7  C   UNL     1       7.944  -6.310   2.108  0.00  0.00    +0.035 C 
ATOM      8  C   UNL     1       7.940  -4.931   1.502  0.00  0.00    -0.042 A 
ATOM      9  C   UNL     1       7.006  -4.537   0.568  0.00  0.00    -0.012 A 
ATOM     10  C   UNL     1       7.060  -3.253   0.042  0.00  0.00    +0.006 A 
ATOM     11  C   UNL     1       8.039  -2.369   0.448  0.00  0.00    +0.000 A 
ATOM     12  C   UNL     1       8.974  -2.764   1.387  0.00  0.00    +0.000 A 
ATOM     13  C   UNL     1       8.923  -4.039   1.910  0.00  0.00    +0.004 A 
ATOM     14  N   UNL     1       5.720  -5.296  -1.359  0.00  0.00    -0.281 N 
ATOM     15  C   UNL     1       4.458  -4.859  -1.531  0.00  0.00    +0.310 C 
ATOM     16  O   UNL     1       3.964  -4.630  -2.618  0.00  0.00    -0.252 OA
ATOM     17  H   UNL     1       6.542  -5.531  -2.052  0.00  0.00    +0.152 HD
ENDROOT
BRANCH   1  18
ATOM     18  C   UNL     1       2.425  -4.236  -0.258  0.00  0.00    +0.214 C 
BRANCH  18  21
ATOM     19  C   UNL     1      -0.013  -2.833   0.105  0.00  0.00    +0.138 C 
ATOM     20  N   UNL     1       1.237  -2.079  -0.020  0.00  0.00    -0.273 N 
ATOM     21  C   UNL     1       2.410  -2.734  -0.137  0.00  0.00    +0.237 C 
ATOM     22  O   UNL     1       3.452  -2.114  -0.144  0.00  0.00    -0.274 OA
BRANCH  20  23
ATOM     23  C   UNL     1       1.214  -0.680  -0.019  0.00  0.00    +0.036 A 
ATOM     24  C   UNL     1       1.777   0.024   1.038  0.00  0.00    +0.023 A 
ATOM     25  C   UNL     1       1.753   1.405   1.036  0.00  0.00    +0.002 A 
ATOM     26  C   UNL     1       1.170   2.086  -0.017  0.00  0.00    +0.000 A 
ATOM     27  C   UNL     1       0.609   1.388  -1.070  0.00  0.00    +0.002 A 
ATOM     28  C   UNL     1       0.629   0.007  -1.074  0.00  0.00    +0.023 A 
ENDBRANCH  20  23
ENDBRANCH  18  21
ENDBRANCH   1  18
TORSDOF 3
