REMARK  Name = ZINC01848076
REMARK  3 active torsions:
REMARK  status: ('A' for Active; 'I' for Inactive)
REMARK    1  A    between atoms: C_3  and  C_10
REMARK    2  A    between atoms: C_5  and  N_7
REMARK    3  A    between atoms: C_15  and  C_16
REMARK                            x       y       z     vdW  Elec       q    Type
REMARK                         _______ _______ _______ _____ _____    ______ ____
ROOT
ATOM      1  C   UNL     1      -4.311   1.472   0.238  0.00  0.00    +0.129 C 
ATOM      2  C   UNL     1      -2.846   1.628  -0.070  0.00  0.00    -0.026 C 
ATOM      3  C   UNL     1      -2.200   1.658   1.112  0.00  0.00    +0.028 C 
ATOM      4  C   UNL     1      -0.727   1.803   1.170  0.00  0.00    -0.023 C 
ATOM      5  C   UNL     1      -0.073   2.069   2.320  0.00  0.00    +0.051 C 
ATOM      6  C   UNL     1      -0.002   1.630  -0.153  0.00  0.00    +0.037 C 
ATOM      7  C   UNL     1      -0.792   2.371  -1.238  0.00  0.00    +0.009 C 
ATOM      8  C   UNL     1      -2.175   1.735  -1.411  0.00  0.00    +0.035 C 
ATOM      9  N   UNL     1      -3.088   1.539   2.166  0.00  0.00    -0.353 NA
ATOM     10  N   UNL     1      -4.373   1.423   1.714  0.00  0.00    -0.248 NA
ATOM     11  H   UNL     1      -2.839   0.644   2.756  0.00  0.00    +0.141 HD
ATOM     12  H   UNL     1      -4.994   2.253   2.083  0.00  0.00    +0.143 HD
ATOM     13  H   UNL     1      -3.018   2.431   2.806  0.00  0.00    +0.141 HD
ENDROOT
BRANCH   1  16
ATOM     14  C   UNL     1      -5.108  -2.186  -0.248  0.00  0.00    +0.003 A 
ATOM     15  C   UNL     1      -4.623  -1.011   0.295  0.00  0.00    +0.006 A 
ATOM     16  C   UNL     1      -4.839   0.191  -0.353  0.00  0.00    -0.023 A 
ATOM     17  C   UNL     1      -5.546   0.218  -1.541  0.00  0.00    +0.038 A 
ATOM     18  C   UNL     1      -6.027  -0.958  -2.086  0.00  0.00    +0.127 A 
ATOM     19  C   UNL     1      -5.810  -2.160  -1.438  0.00  0.00    +0.033 A 
BRANCH  18  20
ATOM     20  N   UNL     1      -6.778  -0.930  -3.361  0.00  0.00    +0.056 N 
ATOM     21  O   UNL     1      -7.205  -1.965  -3.840  0.00  0.00    -0.126 OA
ATOM     22  O   UNL     1      -6.969   0.129  -3.932  0.00  0.00    -0.126 OA
ENDBRANCH  18  20
ENDBRANCH   1  16
BRANCH   5  23
ATOM     23  C   UNL     1       1.390   2.034   2.356  0.00  0.00    +0.128 A 
ATOM     24  C   UNL     1       2.176   2.403   3.410  0.00  0.00    +0.049 A 
ATOM     25  C   UNL     1       3.510   2.208   3.007  0.00  0.00    +0.042 A 
ATOM     26  C   UNL     1       3.478   1.735   1.744  0.00  0.00    +0.195 A 
ATOM     27  O   UNL     1       2.197   1.626   1.355  0.00  0.00    -0.464 OA
ENDBRANCH   5  23
TORSDOF 3
