REMARK  Name = ZINC04890591
REMARK  5 active torsions:
REMARK  status: ('A' for Active; 'I' for Inactive)
REMARK    1  A    between atoms: C_4  and  C_7
REMARK    2  A    between atoms: C_8  and  C_9
REMARK    3  A    between atoms: N_10  and  N_11
REMARK    4  A    between atoms: N_18  and  C_19
REMARK    5  A    between atoms: N_25  and  C_26
REMARK                            x       y       z     vdW  Elec       q    Type
REMARK                         _______ _______ _______ _____ _____    ______ ____
ROOT
ATOM      1  N   UNL     1       1.543  -4.387   1.261  0.00  0.00    -0.205 N 
ATOM      2  C   UNL     1       1.449  -5.719   1.614  0.00  0.00    +0.241 A 
ATOM      3  N   UNL     1       2.481  -6.534   1.416  0.00  0.00    -0.179 NA
ATOM      4  C   UNL     1       2.391  -7.816   1.756  0.00  0.00    +0.225 A 
ATOM      5  N   UNL     1       1.269  -8.283   2.295  0.00  0.00    -0.181 NA
ATOM      6  C   UNL     1       0.237  -7.469   2.493  0.00  0.00    +0.225 A 
ATOM      7  N   UNL     1       0.329  -6.186   2.157  0.00  0.00    -0.179 NA
ATOM      8  N   UNL     1      -0.929  -7.955   3.053  0.00  0.00    -0.283 N 
ATOM      9  N   UNL     1       3.463  -8.662   1.550  0.00  0.00    -0.283 N 
ATOM     10  H   UNL     1       0.820  -3.777   1.475  0.00  0.00    +0.177 HD
ATOM     11  H   UNL     1      -0.969  -8.870   3.371  0.00  0.00    +0.155 HD
ATOM     12  H   UNL     1       4.299  -8.311   1.204  0.00  0.00    +0.155 HD
ENDROOT
BRANCH   8  13
ATOM     13  C   UNL     1      -2.050  -7.127   3.161  0.00  0.00    +0.034 A 
ATOM     14  C   UNL     1      -2.300  -6.163   2.193  0.00  0.00    +0.023 A 
ATOM     15  C   UNL     1      -3.409  -5.347   2.302  0.00  0.00    +0.002 A 
ATOM     16  C   UNL     1      -4.270  -5.489   3.374  0.00  0.00    +0.000 A 
ATOM     17  C   UNL     1      -4.025  -6.448   4.340  0.00  0.00    +0.002 A 
ATOM     18  C   UNL     1      -2.921  -7.271   4.233  0.00  0.00    +0.023 A 
ENDBRANCH   8  13
BRANCH   9  19
ATOM     19  C   UNL     1       3.345 -10.025   1.841  0.00  0.00    +0.034 A 
ATOM     20  C   UNL     1       2.120 -10.664   1.694  0.00  0.00    +0.023 A 
ATOM     21  C   UNL     1       2.006 -12.009   1.981  0.00  0.00    +0.002 A 
ATOM     22  C   UNL     1       3.109 -12.721   2.416  0.00  0.00    +0.000 A 
ATOM     23  C   UNL     1       4.330 -12.088   2.564  0.00  0.00    +0.002 A 
ATOM     24  C   UNL     1       4.452 -10.744   2.272  0.00  0.00    +0.023 A 
ENDBRANCH   9  19
BRANCH   1  26
ATOM     25  C   UNL     1       2.814  -2.646   0.346  0.00  0.00    +0.145 C 
ATOM     26  N   UNL     1       2.682  -3.918   0.593  0.00  0.00    -0.187 NA
BRANCH  25  28
ATOM     27  C   UNL     1       4.176  -0.828  -0.531  0.00  0.00    +0.024 C 
ATOM     28  C   UNL     1       4.049  -2.143  -0.252  0.00  0.00    +0.038 C 
ATOM     29 BR   UNL     1       5.468  -3.332  -0.634  0.00  0.00    -0.049 Br
BRANCH  27  33
ATOM     30  C   UNL     1       1.217   1.915   0.777  0.00  0.00    +0.000 A 
ATOM     31  C   UNL     1       1.599   0.870   1.600  0.00  0.00    +0.001 A 
ATOM     32  C   UNL     1       2.560  -0.026   1.182  0.00  0.00    +0.008 A 
ATOM     33  C   UNL     1       3.149   0.123  -0.077  0.00  0.00    -0.024 A 
ATOM     34  C   UNL     1       2.758   1.181  -0.903  0.00  0.00    +0.008 A 
ATOM     35  C   UNL     1       1.796   2.070  -0.471  0.00  0.00    +0.001 A 
ENDBRANCH  27  33
ENDBRANCH  25  28
ENDBRANCH   1  26
TORSDOF 5
