REMARK  Name = ZINC23421183
REMARK  1 active torsions:
REMARK  status: ('A' for Active; 'I' for Inactive)
REMARK    1  A    between atoms: C_8  and  C_12
REMARK                            x       y       z     vdW  Elec       q    Type
REMARK                         _______ _______ _______ _____ _____    ______ ____
ROOT
ATOM      1  C   UNL     1       1.326   3.138  -0.058  0.00  0.00    +0.101 A 
ATOM      2  C   UNL     1       0.242   3.911  -0.112  0.00  0.00    +0.067 A 
ATOM      3  S   UNL     1      -1.050   2.714  -0.409  0.00  0.00    -0.058 S 
ATOM      4  C   UNL     1      -0.022   1.263  -0.443  0.00  0.00    +0.179 A 
ATOM      5  N   UNL     1       1.227   1.775  -0.224  0.00  0.00    -0.293 N 
ATOM      6  C   UNL     1       2.104   0.656  -0.234  0.00  0.00    +0.082 A 
ATOM      7  C   UNL     1       3.457   0.398  -0.087  0.00  0.00    +0.049 A 
ATOM      8  C   UNL     1       3.911  -0.905  -0.173  0.00  0.00    +0.078 A 
ATOM      9  S   UNL     1       2.406  -1.817  -0.470  0.00  0.00    -0.063 S 
ATOM     10  C   UNL     1       1.275  -0.448  -0.465  0.00  0.00    +0.128 A 
ATOM     11  N   UNL     1       0.020  -0.036  -0.583  0.00  0.00    -0.214 NA
ENDROOT
BRANCH   8  12
ATOM     12  C   UNL     1       5.237  -1.393  -0.055  0.00  0.00    +0.254 C 
ATOM     13  O   UNL     1       6.173  -0.614  -0.037  0.00  0.00    -0.269 OA
ATOM     14  N   UNL     1       5.461  -2.719   0.037  0.00  0.00    -0.287 N 
ATOM     15  C   UNL     1       6.828  -3.260   0.128  0.00  0.00    +0.127 C 
ATOM     16  C   UNL     1       6.956  -4.000   1.466  0.00  0.00    +0.123 C 
ATOM     17  N   UNL     1       5.812  -4.875   1.683  0.00  0.00    -0.313 N 
ATOM     18  C   UNL     1       4.625  -4.730   1.092  0.00  0.00    +0.230 C 
ATOM     19  O   UNL     1       3.724  -5.476   1.414  0.00  0.00    -0.274 OA
ATOM     20  C   UNL     1       4.352  -3.684   0.046  0.00  0.00    +0.203 C 
ATOM     21  H   UNL     1       5.894  -5.726   2.374  0.00  0.00    +0.149 HD
ENDBRANCH   8  12
TORSDOF 1
