REMARK  Name = ZINC62120360
REMARK  8 active torsions:
REMARK  status: ('A' for Active; 'I' for Inactive)
REMARK    1  A    between atoms: C_1  and  C_2
REMARK    2  A    between atoms: N_7  and  C_8
REMARK    3  A    between atoms: C_8  and  C_9
REMARK    4  A    between atoms: C_8  and  C_10
REMARK    5  A    between atoms: C_10  and  N_11
REMARK    6  A    between atoms: C_12  and  C_14
REMARK    7  A    between atoms: N_16  and  C_17
REMARK    8  A    between atoms: C_22  and  N_23
REMARK                            x       y       z     vdW  Elec       q    Type
REMARK                         _______ _______ _______ _____ _____    ______ ____
ROOT
ATOM      1  C   UNL     1       1.625  -3.486   4.945  0.00  0.00    +0.303 C 
ATOM      2  O   UNL     1       1.247  -4.270   4.098  0.00  0.00    -0.265 OA
ATOM      3  N   UNL     1       2.153  -3.943   6.098  0.00  0.00    -0.276 N 
ATOM      4  H   UNL     1       2.411  -3.318   6.794  0.00  0.00    +0.155 HD
ENDROOT
BRANCH   3   5
ATOM      5  C   UNL     1       2.331  -5.317   6.290  0.00  0.00    +0.055 A 
ATOM      6  C   UNL     1       1.499  -6.223   5.648  0.00  0.00    +0.025 A 
ATOM      7  C   UNL     1       1.676  -7.580   5.840  0.00  0.00    +0.002 A 
ATOM      8  C   UNL     1       2.681  -8.040   6.671  0.00  0.00    +0.002 A 
ATOM      9  C   UNL     1       3.515  -7.145   7.315  0.00  0.00    +0.025 A 
ATOM     10  C   UNL     1       3.348  -5.781   7.124  0.00  0.00    +0.051 A 
BRANCH  10  11
ATOM     11  N   UNL     1       4.194  -4.875   7.770  0.00  0.00    -0.328 N 
ATOM     12  C   UNL     1       3.859  -4.357   9.104  0.00  0.00    +0.105 C 
ATOM     13  C   UNL     1       5.047  -4.603  10.040  0.00  0.00    +0.019 C 
ATOM     14  C   UNL     1       6.309  -3.992   9.428  0.00  0.00    +0.003 C 
ATOM     15  C   UNL     1       6.605  -4.665   8.086  0.00  0.00    +0.019 C 
ATOM     16  C   UNL     1       5.439  -4.425   7.130  0.00  0.00    +0.105 C 
ENDBRANCH  10  11
ENDBRANCH   3   5
BRANCH   1  18
ATOM     17  N   UNL     1       0.977  -1.560   3.556  0.00  0.00    -0.309 N 
ATOM     18  C   UNL     1       1.505  -2.017   4.709  0.00  0.00    +0.299 C 
ATOM     19  O   UNL     1       1.883  -1.233   5.555  0.00  0.00    -0.265 OA
ATOM     20  H   UNL     1       0.674  -2.187   2.880  0.00  0.00    +0.149 HD
BRANCH  17  21
ATOM     21  C   UNL     1       0.859  -0.119   3.324  0.00  0.00    +0.089 C 
BRANCH  21  22
ATOM     22  C   UNL     1       0.414   0.132   1.882  0.00  0.00    -0.054 C 
ATOM     23  C   UNL     1       0.074   1.612   1.703  0.00  0.00    -0.012 C 
BRANCH  22  30
ATOM     24  C   UNL     1       0.401  -2.402   0.671  0.00  0.00    -0.013 C 
ATOM     25  C   UNL     1       1.710  -1.687   1.011  0.00  0.00    -0.071 C 
ATOM     26  C   UNL     1       2.786  -2.085  -0.002  0.00  0.00    -0.016 C 
ATOM     27  C   UNL     1       4.094  -1.368   0.343  0.00  0.00    -0.003 C 
ATOM     28  C   UNL     1       3.847   0.143   0.364  0.00  0.00    -0.019 C 
ATOM     29  C   UNL     1       2.732   0.458   1.363  0.00  0.00    -0.078 C 
ATOM     30  N   UNL     1       1.501  -0.235   0.964  0.00  0.00    +0.384 N 
ATOM     31  H   UNL     1       1.252   0.037   0.025  0.00  0.00    -0.081 HD
ENDBRANCH  22  30
ENDBRANCH  21  22
ENDBRANCH  17  21
ENDBRANCH   1  18
TORSDOF 6
