REMARK  Name = ZINC40981808
REMARK  16 active torsions:
REMARK  status: ('A' for Active; 'I' for Inactive)
REMARK    1  A    between atoms: C_1  and  C_2
REMARK    2  A    between atoms: C_2  and  C_3
REMARK    3  A    between atoms: C_3  and  S_4
REMARK    4  A    between atoms: S_4  and  C_5
REMARK    5  A    between atoms: C_10  and  C_27
REMARK    6  A    between atoms: C_12  and  C_16
REMARK    7  A    between atoms: C_13  and  C_15
REMARK    8  A    between atoms: N_18  and  C_19
REMARK    9  A    between atoms: C_22  and  C_26
REMARK   10  A    between atoms: C_24  and  C_25
REMARK   11  A    between atoms: C_30  and  O_33
REMARK   12  A    between atoms: O_33  and  C_34
REMARK   13  A    between atoms: C_34  and  C_35
REMARK   14  A    between atoms: C_35  and  C_36
REMARK   15  A    between atoms: C_36  and  C_37
REMARK   16  A    between atoms: C_36  and  C_38
REMARK                            x       y       z     vdW  Elec       q    Type
REMARK                         _______ _______ _______ _____ _____    ______ ____
ROOT
ATOM      1  C   UNL     1      -3.141  -2.753  -0.215  0.00  0.00    +0.210 A 
ATOM      2  N   UNL     1      -4.183  -1.912  -0.149  0.00  0.00    -0.187 NA
ATOM      3  C   UNL     1      -5.293  -2.597  -0.098  0.00  0.00    +0.219 A 
ATOM      4  N   UNL     1      -4.977  -3.915  -0.126  0.00  0.00    -0.220 N 
ATOM      5  N   UNL     1      -3.587  -3.990  -0.210  0.00  0.00    -0.141 NA
ATOM      6  C   UNL     1      -5.969  -4.985  -0.074  0.00  0.00    +0.177 C 
ATOM      7  C   UNL     1      -7.342  -4.407  -0.288  0.00  0.00    +0.060 C 
ATOM      8  C   UNL     1      -7.596  -3.090  -0.253  0.00  0.00    +0.018 C 
ATOM      9  N   UNL     1      -6.609  -2.161  -0.028  0.00  0.00    -0.287 N 
ATOM     10  C   UNL     1      -9.009  -2.614  -0.468  0.00  0.00    +0.061 C 
ATOM     11  H   UNL     1      -6.824  -1.236   0.172  0.00  0.00    +0.155 HD
ENDROOT
BRANCH   6  12
ATOM     12  C   UNL     1      -5.912  -5.659   1.272  0.00  0.00    -0.018 A 
ATOM     13  C   UNL     1      -6.155  -4.928   2.421  0.00  0.00    +0.009 A 
ATOM     14  C   UNL     1      -6.102  -5.544   3.656  0.00  0.00    +0.046 A 
ATOM     15  C   UNL     1      -5.806  -6.896   3.744  0.00  0.00    +0.121 A 
ATOM     16  C   UNL     1      -5.563  -7.627   2.591  0.00  0.00    +0.046 A 
ATOM     17  C   UNL     1      -5.622  -7.008   1.357  0.00  0.00    +0.009 A 
BRANCH  15  18
ATOM     18  O   UNL     1      -5.753  -7.504   4.959  0.00  0.00    -0.492 OA
BRANCH  18  19
ATOM     19  C   UNL     1      -5.442  -8.899   4.974  0.00  0.00    +0.229 C 
BRANCH  19  20
ATOM     20  C   UNL     1      -5.428  -9.403   6.418  0.00  0.00    +0.044 C 
BRANCH  20  21
ATOM     21  C   UNL     1      -5.096 -10.896   6.434  0.00  0.00    -0.014 C 
ATOM     22  C   UNL     1      -4.959 -11.373   7.881  0.00  0.00    +0.007 C 
ATOM     23  C   UNL     1      -6.216 -11.676   5.744  0.00  0.00    +0.007 C 
ENDBRANCH  20  21
ENDBRANCH  19  20
ENDBRANCH  18  19
ENDBRANCH  15  18
ENDBRANCH   6  12
BRANCH   7  24
ATOM     24  C   UNL     1      -8.416  -5.293  -0.538  0.00  0.00    +0.248 C 
ATOM     25  O   UNL     1      -8.577  -5.756  -1.653  0.00  0.00    -0.270 OA
ATOM     26  N   UNL     1      -9.261  -5.626   0.458  0.00  0.00    -0.281 N 
ATOM     27  H   UNL     1      -9.172  -5.208   1.329  0.00  0.00    +0.155 HD
BRANCH  26  28
ATOM     28  C   UNL     1     -10.266  -6.573   0.236  0.00  0.00    +0.037 A 
ATOM     29  C   UNL     1     -10.886  -6.651  -1.004  0.00  0.00    +0.024 A 
ATOM     30  C   UNL     1     -11.878  -7.587  -1.221  0.00  0.00    +0.005 A 
ATOM     31  C   UNL     1     -12.254  -8.447  -0.204  0.00  0.00    -0.050 A 
ATOM     32  C   UNL     1     -11.638  -8.372   1.031  0.00  0.00    +0.008 A 
ATOM     33  C   UNL     1     -10.641  -7.441   1.252  0.00  0.00    -0.029 A 
ATOM     34  C   UNL     1      -9.966  -7.364   2.598  0.00  0.00    +0.045 C 
ATOM     35  C   UNL     1     -13.336  -9.467  -0.444  0.00  0.00    +0.044 C 
ENDBRANCH  26  28
ENDBRANCH   7  24
BRANCH   1  36
ATOM     36  S   UNL     1      -1.446  -2.277  -0.303  0.00  0.00    -0.084 S 
BRANCH  36  37
ATOM     37  C   UNL     1      -1.497  -0.464  -0.271  0.00  0.00    +0.077 C 
BRANCH  37  39
ATOM     38  C   UNL     1      -0.115   1.617  -0.315  0.00  0.00    +0.004 C 
ATOM     39  C   UNL     1      -0.072   0.088  -0.342  0.00  0.00    +0.008 C 
ENDBRANCH  37  39
ENDBRANCH  36  37
ENDBRANCH   1  36
TORSDOF 10
