REMARK  Name = ZINC49425180
REMARK  6 active torsions:
REMARK  status: ('A' for Active; 'I' for Inactive)
REMARK    1  A    between atoms: C_1  and  O_2
REMARK    2  A    between atoms: O_2  and  C_3
REMARK    3  A    between atoms: C_6  and  N_9
REMARK    4  A    between atoms: C_15  and  C_17
REMARK    5  A    between atoms: N_26  and  C_27
REMARK    6  A    between atoms: C_27  and  C_28
REMARK                            x       y       z     vdW  Elec       q    Type
REMARK                         _______ _______ _______ _____ _____    ______ ____
ROOT
ATOM      1  N   UNL     1       2.014  -2.446  -4.932  0.00  0.00    -0.327 N 
ATOM      2  C   UNL     1       2.757  -1.650  -5.918  0.00  0.00    +0.124 C 
ATOM      3  C   UNL     1       4.248  -1.991  -5.802  0.00  0.00    +0.126 C 
ATOM      4  N   UNL     1       4.397  -3.453  -5.815  0.00  0.00    -0.298 N 
ATOM      5  C   UNL     1       3.655  -4.250  -4.828  0.00  0.00    +0.126 C 
ATOM      6  C   UNL     1       2.168  -3.908  -4.941  0.00  0.00    +0.124 C 
ATOM      7  C   UNL     1       5.201  -4.053  -6.716  0.00  0.00    +0.220 C 
ATOM      8  O   UNL     1       5.884  -3.382  -7.460  0.00  0.00    -0.275 OA
ENDROOT
BRANCH   7   9
ATOM      9  C   UNL     1       5.250  -5.556  -6.798  0.00  0.00    +0.093 C 
ATOM     10  C   UNL     1       6.087  -5.974  -8.010  0.00  0.00    +0.016 C 
ATOM     11  C   UNL     1       6.111  -7.501  -8.114  0.00  0.00    +0.020 C 
ATOM     12  C   UNL     1       6.759  -8.085  -6.854  0.00  0.00    +0.109 C 
ATOM     13  N   UNL     1       6.048  -7.571  -5.675  0.00  0.00    -0.285 N 
ATOM     14  C   UNL     1       5.888  -6.118  -5.524  0.00  0.00    +0.122 C 
ATOM     15  C   UNL     1       5.551  -8.416  -4.750  0.00  0.00    +0.302 C 
ATOM     16  O   UNL     1       5.046  -7.977  -3.735  0.00  0.00    -0.253 OA
ATOM     17  N   UNL     1       5.615  -9.747  -4.951  0.00  0.00    -0.295 N 
ATOM     18  H   UNL     1       6.082 -10.099  -5.724  0.00  0.00    +0.151 HD
BRANCH  17  19
ATOM     19  C   UNL     1       4.978 -10.662  -4.000  0.00  0.00    +0.148 C 
BRANCH  19  20
ATOM     20  C   UNL     1       5.194 -12.084  -4.451  0.00  0.00    +0.007 A 
ATOM     21  C   UNL     1       6.205 -12.933  -4.144  0.00  0.00    +0.013 A 
ATOM     22  C   UNL     1       6.196 -14.207  -4.678  0.00  0.00    +0.008 A 
ATOM     23  C   UNL     1       5.176 -14.571  -5.494  0.00  0.00    +0.045 A 
ATOM     24  S   UNL     1       4.179 -13.090  -5.521  0.00  0.00    -0.100 S 
ENDBRANCH  19  20
ENDBRANCH  17  19
ENDBRANCH   7   9
BRANCH   1  28
ATOM     25  C   UNL     1      -0.470  -0.593  -2.145  0.00  0.00    +0.120 A 
ATOM     26  C   UNL     1      -0.427  -1.977  -2.223  0.00  0.00    +0.047 A 
ATOM     27  C   UNL     1       0.396  -2.592  -3.146  0.00  0.00    +0.027 A 
ATOM     28  C   UNL     1       1.180  -1.824  -3.997  0.00  0.00    +0.030 A 
ATOM     29  C   UNL     1       1.136  -0.439  -3.918  0.00  0.00    +0.027 A 
ATOM     30  C   UNL     1       0.309   0.175  -2.998  0.00  0.00    +0.047 A 
BRANCH  25  32
ATOM     31  C   UNL     1      -2.054  -0.840  -0.389  0.00  0.00    +0.277 C 
ATOM     32  O   UNL     1      -1.280   0.012  -1.236  0.00  0.00    -0.495 OA
ENDBRANCH  25  32
ENDBRANCH   1  28
TORSDOF 5
