REMARK  Name = ZINC39685795
REMARK  14 active torsions:
REMARK  status: ('A' for Active; 'I' for Inactive)
REMARK    1  A    between atoms: C_1  and  C_2
REMARK    2  A    between atoms: C_2  and  O_3
REMARK    3  A    between atoms: O_3  and  C_4
REMARK    4  A    between atoms: C_9  and  C_10
REMARK    5  A    between atoms: C_14  and  C_23
REMARK    6  A    between atoms: N_25  and  C_26
REMARK    7  A    between atoms: C_26  and  C_28
REMARK    8  A    between atoms: C_26  and  C_31
REMARK    9  A    between atoms: C_28  and  C_29
REMARK   10  A    between atoms: C_28  and  C_30
REMARK   11  A    between atoms: N_33  and  C_34
REMARK   12  A    between atoms: C_34  and  C_35
REMARK   13  A    between atoms: C_34  and  C_36
REMARK   14  A    between atoms: C_34  and  C_37
REMARK                            x       y       z     vdW  Elec       q    Type
REMARK                         _______ _______ _______ _____ _____    ______ ____
ROOT
ATOM      1  C   UNL     1      -3.684  -2.132  -0.190  0.00  0.00    +0.250 C 
ATOM      2  O   UNL     1      -3.325  -0.971  -0.155  0.00  0.00    -0.270 OA
ATOM      3  N   UNL     1      -4.998  -2.431  -0.203  0.00  0.00    -0.296 N 
ATOM      4  C   UNL     1      -5.626  -3.772  -0.135  0.00  0.00    +0.121 C 
ATOM      5  C   UNL     1      -6.862  -3.579   0.772  0.00  0.00    +0.100 C 
ATOM      6  C   UNL     1      -7.197  -2.082   0.664  0.00  0.00    -0.004 C 
ATOM      7  C   UNL     1      -6.143  -1.493  -0.284  0.00  0.00    +0.115 C 
ATOM      8  C   UNL     1      -7.096  -1.417   2.034  0.00  0.00    -0.010 C 
ATOM      9  C   UNL     1      -7.490   0.058   1.910  0.00  0.00    -0.082 C 
ATOM     10  N   UNL     1      -8.861   0.159   1.395  0.00  0.00    +0.379 N 
ATOM     11  C   UNL     1      -8.928  -0.400   0.039  0.00  0.00    -0.082 C 
ATOM     12  C   UNL     1      -8.596  -1.894   0.083  0.00  0.00    -0.010 C 
ATOM     13  H   UNL     1      -9.485  -0.354   2.000  0.00  0.00    -0.086 HD
ATOM     14  H   UNL     1      -9.139   1.128   1.372  0.00  0.00    -0.086 HD
ENDROOT
BRANCH   1  20
ATOM     15  C   UNL     1      -1.462  -3.062   0.457  0.00  0.00    +0.133 A 
ATOM     16  C   UNL     1      -0.529  -4.088   0.429  0.00  0.00    +0.046 A 
ATOM     17  C   UNL     1      -0.799  -5.250  -0.266  0.00  0.00    +0.004 A 
ATOM     18  C   UNL     1      -2.001  -5.402  -0.939  0.00  0.00    +0.001 A 
ATOM     19  C   UNL     1      -2.939  -4.393  -0.921  0.00  0.00    +0.017 A 
ATOM     20  C   UNL     1      -2.682  -3.214  -0.217  0.00  0.00    +0.078 A 
BRANCH  15  21
ATOM     21  O   UNL     1      -1.198  -1.920   1.138  0.00  0.00    -0.491 OA
BRANCH  21  23
ATOM     22  C   UNL     1       0.181  -0.486   2.510  0.00  0.00    +0.048 C 
ATOM     23  C   UNL     1       0.065  -1.837   1.801  0.00  0.00    +0.226 C 
ENDBRANCH  21  23
ENDBRANCH  15  21
ENDBRANCH   1  20
BRANCH   5  24
ATOM     24  C   UNL     1      -6.530  -3.943   2.196  0.00  0.00    +0.219 C 
ATOM     25  O   UNL     1      -7.286  -4.645   2.834  0.00  0.00    -0.275 OA
ATOM     26  N   UNL     1      -5.394  -3.489   2.761  0.00  0.00    -0.303 N 
ATOM     27  H   UNL     1      -4.790  -2.927   2.251  0.00  0.00    +0.149 HD
BRANCH  26  28
ATOM     28  C   UNL     1      -5.072  -3.843   4.146  0.00  0.00    +0.161 C 
BRANCH  28  29
ATOM     29  C   UNL     1      -4.162  -2.795   4.733  0.00  0.00    +0.234 C 
ATOM     30  O   UNL     1      -3.817  -1.845   4.062  0.00  0.00    -0.274 OA
ATOM     31  N   UNL     1      -3.732  -2.912   6.005  0.00  0.00    -0.309 N 
ATOM     32  H   UNL     1      -4.008  -3.671   6.542  0.00  0.00    +0.149 HD
BRANCH  31  33
ATOM     33  C   UNL     1      -2.848  -1.893   6.576  0.00  0.00    +0.026 C 
ATOM     34  C   UNL     1      -3.550  -0.534   6.548  0.00  0.00    +0.031 C 
ATOM     35  C   UNL     1      -2.511  -2.263   8.022  0.00  0.00    +0.031 C 
ATOM     36  C   UNL     1      -1.559  -1.818   5.756  0.00  0.00    +0.031 C 
ENDBRANCH  31  33
ENDBRANCH  28  29
BRANCH  28  37
ATOM     37  C   UNL     1      -4.369  -5.202   4.174  0.00  0.00    +0.012 C 
ATOM     38  C   UNL     1      -5.293  -6.266   3.577  0.00  0.00    +0.009 C 
ATOM     39  C   UNL     1      -3.080  -5.127   3.353  0.00  0.00    +0.009 C 
ENDBRANCH  28  37
ENDBRANCH  26  28
ENDBRANCH   5  24
TORSDOF 8
