REMARK  Name = ZINC18333320
REMARK  7 active torsions:
REMARK  status: ('A' for Active; 'I' for Inactive)
REMARK    1  A    between atoms: C_7  and  N_32
REMARK    2  A    between atoms: C_9  and  C_11
REMARK    3  A    between atoms: C_11  and  S_12
REMARK    4  A    between atoms: S_12  and  C_13
REMARK    5  A    between atoms: N_23  and  C_24
REMARK    6  A    between atoms: C_24  and  C_25
REMARK    7  A    between atoms: C_25  and  C_26
REMARK                            x       y       z     vdW  Elec       q    Type
REMARK                         _______ _______ _______ _____ _____    ______ ____
ROOT
ATOM      1  C   UNL     1      -3.368  -1.879  -1.391  0.00  0.00    +0.173 A 
ATOM      2  N   UNL     1      -3.725  -2.099  -0.150  0.00  0.00    -0.223 NA
ATOM      3  C   UNL     1      -4.872  -2.740   0.153  0.00  0.00    +0.079 A 
ATOM      4  C   UNL     1      -5.255  -2.971   1.477  0.00  0.00    +0.028 A 
ATOM      5  C   UNL     1      -6.423  -3.631   1.738  0.00  0.00    +0.002 A 
ATOM      6  C   UNL     1      -7.238  -4.077   0.706  0.00  0.00    +0.001 A 
ATOM      7  C   UNL     1      -6.890  -3.867  -0.600  0.00  0.00    +0.015 A 
ATOM      8  C   UNL     1      -5.704  -3.196  -0.895  0.00  0.00    +0.065 A 
ATOM      9  C   UNL     1      -5.279  -2.943  -2.279  0.00  0.00    +0.262 A 
ATOM     10  O   UNL     1      -5.953  -3.310  -3.224  0.00  0.00    -0.267 OA
ATOM     11  N   UNL     1      -4.111  -2.284  -2.463  0.00  0.00    -0.287 N 
ENDROOT
BRANCH   1  12
ATOM     12  S   UNL     1      -1.855  -1.027  -1.692  0.00  0.00    -0.080 S 
BRANCH  12  13
ATOM     13  C   UNL     1      -1.312  -0.741   0.011  0.00  0.00    +0.153 C 
BRANCH  13  22
ATOM     14  C   UNL     1       4.723   1.266  -0.039  0.00  0.00    +0.001 A 
ATOM     15  C   UNL     1       4.692  -0.125  -0.045  0.00  0.00    +0.002 A 
ATOM     16  C   UNL     1       3.509  -0.802  -0.037  0.00  0.00    +0.028 A 
ATOM     17  C   UNL     1       2.304  -0.087  -0.021  0.00  0.00    +0.076 A 
ATOM     18  C   UNL     1       2.337   1.329  -0.013  0.00  0.00    +0.040 A 
ATOM     19  C   UNL     1       3.569   1.993  -0.023  0.00  0.00    +0.013 A 
ATOM     20  C   UNL     1       1.106   2.027   0.002  0.00  0.00    +0.127 A 
ATOM     21  N   UNL     1      -0.016   1.319   0.009  0.00  0.00    -0.216 NA
ATOM     22  C   UNL     1       0.002  -0.004   0.002  0.00  0.00    +0.142 A 
ATOM     23  N   UNL     1       1.112  -0.703  -0.012  0.00  0.00    -0.231 NA
BRANCH  20  24
ATOM     24  N   UNL     1       1.073   3.405   0.010  0.00  0.00    -0.343 N 
ATOM     25  H   UNL     1       0.222   3.870   0.020  0.00  0.00    +0.144 HD
ATOM     26  H   UNL     1       1.901   3.910   0.004  0.00  0.00    +0.144 HD
ENDBRANCH  20  24
ENDBRANCH  13  22
ENDBRANCH  12  13
ENDBRANCH   1  12
BRANCH  11  27
ATOM     27  C   UNL     1      -3.640  -2.005  -3.822  0.00  0.00    +0.131 C 
BRANCH  27  28
ATOM     28  C   UNL     1      -2.771  -3.165  -4.309  0.00  0.00    +0.052 C 
BRANCH  28  29
ATOM     29  C   UNL     1      -2.286  -2.878  -5.707  0.00  0.00    -0.072 C 
ATOM     30  C   UNL     1      -1.119  -2.335  -5.845  0.00  0.00    -0.028 C 
ATOM     31  C   UNL     1      -0.508  -1.982  -7.169  0.00  0.00    +0.027 C 
ATOM     32  C   UNL     1      -1.233  -2.718  -8.298  0.00  0.00    +0.004 C 
ATOM     33  C   UNL     1      -2.742  -2.509  -8.122  0.00  0.00    +0.005 C 
ATOM     34  C   UNL     1      -3.184  -3.243  -6.852  0.00  0.00    +0.030 C 
ENDBRANCH  28  29
ENDBRANCH  27  28
ENDBRANCH  11  27
TORSDOF 7
