REMARK  Name = ZINC40986798
REMARK  14 active torsions:
REMARK  status: ('A' for Active; 'I' for Inactive)
REMARK    1  A    between atoms: C_1  and  C_2
REMARK    2  A    between atoms: C_2  and  C_3
REMARK    3  A    between atoms: C_3  and  C_4
REMARK    4  A    between atoms: C_4  and  S_5
REMARK    5  A    between atoms: S_5  and  C_6
REMARK    6  A    between atoms: C_11  and  C_20
REMARK    7  A    between atoms: C_13  and  C_17
REMARK    8  A    between atoms: C_14  and  C_16
REMARK    9  A    between atoms: C_23  and  O_29
REMARK   10  A    between atoms: C_24  and  O_26
REMARK   11  A    between atoms: O_26  and  C_27
REMARK   12  A    between atoms: C_27  and  C_28
REMARK   13  A    between atoms: O_29  and  C_30
REMARK   14  A    between atoms: C_30  and  C_31
REMARK                            x       y       z     vdW  Elec       q    Type
REMARK                         _______ _______ _______ _____ _____    ______ ____
ROOT
ATOM      1  C   UNL     1       1.059  -4.384  -2.662  0.00  0.00    +0.210 A 
ATOM      2  N   UNL     1       0.577  -5.134  -1.660  0.00  0.00    -0.187 NA
ATOM      3  C   UNL     1       0.907  -6.383  -1.853  0.00  0.00    +0.219 A 
ATOM      4  N   UNL     1       1.616  -6.457  -3.006  0.00  0.00    -0.220 N 
ATOM      5  N   UNL     1       1.699  -5.160  -3.509  0.00  0.00    -0.141 NA
ATOM      6  C   UNL     1       2.145  -7.705  -3.550  0.00  0.00    +0.177 C 
ATOM      7  C   UNL     1       2.044  -8.788  -2.509  0.00  0.00    +0.060 C 
ATOM      8  C   UNL     1       1.329  -8.656  -1.382  0.00  0.00    +0.018 C 
ATOM      9  N   UNL     1       0.638  -7.507  -1.085  0.00  0.00    -0.287 N 
ATOM     10  C   UNL     1       1.282  -9.806  -0.410  0.00  0.00    +0.061 C 
ATOM     11  H   UNL     1      -0.013  -7.482  -0.366  0.00  0.00    +0.155 HD
ENDROOT
BRANCH   6  12
ATOM     12  C   UNL     1       1.349  -8.102  -4.766  0.00  0.00    -0.015 A 
ATOM     13  C   UNL     1      -0.010  -8.329  -4.657  0.00  0.00    +0.010 A 
ATOM     14  C   UNL     1      -0.745  -8.692  -5.771  0.00  0.00    +0.050 A 
ATOM     15  C   UNL     1      -0.119  -8.829  -6.999  0.00  0.00    +0.162 A 
ATOM     16  C   UNL     1       1.250  -8.600  -7.109  0.00  0.00    +0.162 A 
ATOM     17  C   UNL     1       1.979  -8.232  -5.990  0.00  0.00    +0.055 A 
BRANCH  16  18
ATOM     18  O   UNL     1       1.868  -8.734  -8.313  0.00  0.00    -0.489 OA
BRANCH  18  19
ATOM     19  C   UNL     1       3.275  -8.483  -8.350  0.00  0.00    +0.226 C 
ATOM     20  C   UNL     1       3.790  -8.681  -9.777  0.00  0.00    +0.048 C 
ENDBRANCH  18  19
ENDBRANCH  16  18
BRANCH  15  21
ATOM     21  O   UNL     1      -0.840  -9.187  -8.095  0.00  0.00    -0.484 OA
BRANCH  21  22
ATOM     22  C   UNL     1      -2.239  -9.406  -7.908  0.00  0.00    +0.264 C 
BRANCH  22  23
ATOM     23  C   UNL     1      -2.868  -9.792  -9.222  0.00  0.00    -0.010 A 
ATOM     24  C   UNL     1      -3.364  -8.815 -10.064  0.00  0.00    +0.008 A 
ATOM     25  C   UNL     1      -3.940  -9.168 -11.270  0.00  0.00    +0.020 A 
ATOM     26  C   UNL     1      -4.021 -10.500 -11.633  0.00  0.00    +0.041 A 
ATOM     27  C   UNL     1      -3.525 -11.478 -10.790  0.00  0.00    +0.020 A 
ATOM     28  C   UNL     1      -2.943 -11.123  -9.587  0.00  0.00    +0.008 A 
ATOM     29 CL   UNL     1      -4.746 -10.945 -13.147  0.00  0.00    -0.084 Cl
ENDBRANCH  22  23
ENDBRANCH  21  22
ENDBRANCH  15  21
ENDBRANCH   6  12
BRANCH   7  30
ATOM     30  C   UNL     1       2.735 -10.003  -2.730  0.00  0.00    +0.241 C 
ATOM     31  O   UNL     1       3.925 -10.081  -2.485  0.00  0.00    -0.271 OA
ATOM     32  N   UNL     1       2.075 -11.075  -3.213  0.00  0.00    -0.325 N 
ATOM     33  H   UNL     1       1.127 -11.014  -3.409  0.00  0.00    +0.145 HD
ATOM     34  H   UNL     1       2.549 -11.908  -3.365  0.00  0.00    +0.145 HD
ENDBRANCH   7  30
BRANCH   1  35
ATOM     35  S   UNL     1       0.860  -2.640  -2.820  0.00  0.00    -0.084 S 
BRANCH  35  36
ATOM     36  C   UNL     1      -0.100  -2.173  -1.353  0.00  0.00    +0.077 C 
BRANCH  36  37
ATOM     37  C   UNL     1      -0.347  -0.663  -1.366  0.00  0.00    +0.011 C 
BRANCH  37  39
ATOM     38  C   UNL     1      -1.403   1.242  -0.141  0.00  0.00    +0.004 C 
ATOM     39  C   UNL     1      -1.156  -0.268  -0.129  0.00  0.00    -0.003 C 
ENDBRANCH  37  39
ENDBRANCH  36  37
ENDBRANCH  35  36
ENDBRANCH   1  35
TORSDOF 11
