REMARK  Name = ZINC63271566
REMARK  6 active torsions:
REMARK  status: ('A' for Active; 'I' for Inactive)
REMARK    1  A    between atoms: N_17  and  C_18
REMARK    2  A    between atoms: C_18  and  C_19
REMARK    3  A    between atoms: C_19  and  C_20
REMARK    4  A    between atoms: N_22  and  C_23
REMARK    5  A    between atoms: C_23  and  C_24
REMARK    6  A    between atoms: C_24  and  C_25
REMARK                            x       y       z     vdW  Elec       q    Type
REMARK                         _______ _______ _______ _____ _____    ______ ____
ROOT
ATOM      1  C   UNL     1      -0.019   1.345   0.015  0.00  0.00    +0.001 A 
ATOM      2  C   UNL     1       1.162   2.099   0.011  0.00  0.00    +0.002 A 
ATOM      3  C   UNL     1       2.387   1.532   0.000  0.00  0.00    +0.026 A 
ATOM      4  C   UNL     1       2.526   0.118  -0.008  0.00  0.00    +0.043 A 
ATOM      5  N   UNL     1       3.589  -0.655  -0.039  0.00  0.00    -0.376 N 
ATOM      6  C   UNL     1       3.153  -2.047   0.045  0.00  0.00    +0.124 C 
ATOM      7  C   UNL     1       3.651  -2.874  -1.145  0.00  0.00    +0.138 C 
ATOM      8  N   UNL     1       2.856  -4.111  -1.199  0.00  0.00    -0.283 N 
ATOM      9  C   UNL     1       1.399  -4.056  -1.362  0.00  0.00    +0.114 C 
ATOM     10  C   UNL     1       0.789  -3.239  -0.209  0.00  0.00    +0.052 C 
ATOM     11  C   UNL     1       1.636  -2.000  -0.029  0.00  0.00    -0.036 C 
ATOM     12  C   UNL     1       1.291  -0.704  -0.011  0.00  0.00    -0.001 A 
ATOM     13  C   UNL     1      -0.001  -0.006   0.005  0.00  0.00    +0.010 A 
ATOM     14  C   UNL     1       3.472  -5.306  -1.099  0.00  0.00    +0.302 C 
ATOM     15  O   UNL     1       4.686  -5.362  -1.058  0.00  0.00    -0.253 OA
ATOM     16  N   UNL     1       2.743  -6.438  -1.042  0.00  0.00    -0.299 N 
ATOM     17  H   UNL     1       1.779  -6.399  -1.148  0.00  0.00    +0.150 HD
ATOM     18  H   UNL     1       4.508  -0.352  -0.106  0.00  0.00    +0.160 HD
ENDROOT
BRANCH  16  19
ATOM     19  C   UNL     1       3.405  -7.726  -0.822  0.00  0.00    +0.115 C 
BRANCH  19  20
ATOM     20  C   UNL     1       2.357  -8.841  -0.801  0.00  0.00    +0.114 C 
BRANCH  20  21
ATOM     21  C   UNL     1       3.038 -10.166  -0.574  0.00  0.00    +0.215 C 
ATOM     22  O   UNL     1       4.243 -10.213  -0.442  0.00  0.00    -0.276 OA
ATOM     23  N   UNL     1       2.309 -11.297  -0.518  0.00  0.00    -0.315 N 
ATOM     24  H   UNL     1       1.345 -11.259  -0.624  0.00  0.00    +0.149 HD
BRANCH  23  25
ATOM     25  C   UNL     1       2.971 -12.586  -0.298  0.00  0.00    +0.108 C 
BRANCH  25  26
ATOM     26  C   UNL     1       1.923 -13.701  -0.277  0.00  0.00    +0.052 C 
BRANCH  26  27
ATOM     27  C   UNL     1       2.604 -15.026  -0.050  0.00  0.00    -0.040 C 
ATOM     28  C   UNL     1       2.772 -15.662   1.131  0.00  0.00    -0.001 A 
ATOM     29  C   UNL     1       2.386 -15.323   2.507  0.00  0.00    +0.010 A 
ATOM     30  C   UNL     1       2.700 -16.180   3.506  0.00  0.00    +0.001 A 
ATOM     31  C   UNL     1       3.383 -17.379   3.261  0.00  0.00    +0.002 A 
ATOM     32  C   UNL     1       3.771 -17.758   2.025  0.00  0.00    +0.026 A 
ATOM     33  C   UNL     1       3.492 -16.934   0.900  0.00  0.00    +0.043 A 
ATOM     34  N   UNL     1       3.760 -17.079  -0.376  0.00  0.00    -0.380 N 
ATOM     35  C   UNL     1       3.233 -15.916  -1.099  0.00  0.00    +0.144 C 
ATOM     36  H   UNL     1       4.224 -17.831  -0.775  0.00  0.00    +0.160 HD
ENDBRANCH  26  27
ENDBRANCH  25  26
ENDBRANCH  23  25
ENDBRANCH  20  21
ENDBRANCH  19  20
ENDBRANCH  16  19
TORSDOF 6
