REMARK  Name = ZINC20294451
REMARK  12 active torsions:
REMARK  status: ('A' for Active; 'I' for Inactive)
REMARK    1  A    between atoms: C_1  and  C_2
REMARK    2  A    between atoms: C_3  and  N_19
REMARK    3  A    between atoms: C_4  and  C_18
REMARK    4  A    between atoms: N_5  and  C_7
REMARK    5  A    between atoms: C_7  and  C_8
REMARK    6  A    between atoms: N_19  and  C_20
REMARK    7  A    between atoms: C_20  and  N_22
REMARK    8  A    between atoms: N_22  and  C_23
REMARK    9  A    between atoms: C_24  and  C_34
REMARK   10  A    between atoms: C_29  and  C_33
REMARK   11  A    between atoms: C_34  and  O_36
REMARK   12  A    between atoms: O_36  and  C_37
REMARK                            x       y       z     vdW  Elec       q    Type
REMARK                         _______ _______ _______ _____ _____    ______ ____
ROOT
ATOM      1  N   UNL     1       4.665  -3.200   1.102  0.00  0.00    -0.294 N 
ATOM      2  H   UNL     1       3.973  -2.641   1.749  0.00  0.00    +0.154 HD
ENDROOT
BRANCH   1   5
ATOM      3  C   UNL     1       5.247  -6.162   0.334  0.00  0.00    +0.069 C 
ATOM      4  C   UNL     1       5.974  -5.321   1.352  0.00  0.00    +0.081 A 
ATOM      5  C   UNL     1       5.684  -3.987   1.672  0.00  0.00    +0.076 A 
ATOM      6  C   UNL     1       6.562  -3.587   2.627  0.00  0.00    +0.058 A 
ATOM      7  N   UNL     1       7.374  -4.641   2.903  0.00  0.00    -0.262 N 
ATOM      8  N   UNL     1       6.984  -5.710   2.087  0.00  0.00    -0.174 NA
ATOM      9  C   UNL     1       6.624  -2.224   3.266  0.00  0.00    +0.067 C 
BRANCH   7  10
ATOM     10  C   UNL     1       8.468  -4.654   3.877  0.00  0.00    +0.179 C 
BRANCH  10  11
ATOM     11  C   UNL     1       7.926  -5.012   5.237  0.00  0.00    -0.018 A 
ATOM     12  C   UNL     1       7.630  -4.032   6.135  0.00  0.00    +0.006 A 
ATOM     13  C   UNL     1       7.121  -4.342   7.394  0.00  0.00    +0.001 A 
ATOM     14  C   UNL     1       6.916  -5.635   7.768  0.00  0.00    +0.008 A 
ATOM     15  C   UNL     1       7.215  -6.674   6.870  0.00  0.00    -0.018 A 
ATOM     16  C   UNL     1       7.727  -6.358   5.587  0.00  0.00    -0.013 A 
ATOM     17  C   UNL     1       8.026  -7.397   4.689  0.00  0.00    +0.009 A 
ATOM     18  C   UNL     1       7.822  -8.690   5.063  0.00  0.00    +0.001 A 
ATOM     19  C   UNL     1       7.319  -9.001   6.325  0.00  0.00    +0.001 A 
ATOM     20  C   UNL     1       7.018  -8.021   7.221  0.00  0.00    +0.008 A 
ENDBRANCH  10  11
ENDBRANCH   7  10
ENDBRANCH   1   5
BRANCH   1  21
ATOM     21  C   UNL     1       4.539  -3.130  -0.238  0.00  0.00    +0.139 C 
ATOM     22  S   UNL     1       5.670  -3.924  -1.248  0.00  0.00    -0.018 S 
BRANCH  21  23
ATOM     23  N   UNL     1       3.521  -2.435  -0.784  0.00  0.00    -0.291 N 
ATOM     24  H   UNL     1       2.793  -1.925  -0.135  0.00  0.00    +0.154 HD
BRANCH  23  25
ATOM     25  C   UNL     1       3.390  -2.364  -2.161  0.00  0.00    +0.086 A 
ATOM     26  C   UNL     1       2.419  -1.704  -2.903  0.00  0.00    +0.091 A 
ATOM     27  C   UNL     1       2.508  -1.790  -4.351  0.00  0.00    -0.021 A 
ATOM     28  C   UNL     1       3.550  -2.508  -4.822  0.00  0.00    -0.004 A 
ATOM     29  S   UNL     1       4.399  -3.075  -3.376  0.00  0.00    -0.077 S 
ATOM     30  C   UNL     1       3.894  -2.766  -6.256  0.00  0.00    +0.046 C 
ATOM     31  C   UNL     1       2.679  -2.398  -7.120  0.00  0.00    -0.009 C 
ATOM     32  C   UNL     1       2.166  -1.021  -6.688  0.00  0.00    +0.008 C 
ATOM     33  C   UNL     1       1.525  -1.117  -5.302  0.00  0.00    +0.037 C 
ATOM     34  C   UNL     1       3.090  -2.356  -8.593  0.00  0.00    +0.008 C 
BRANCH  26  35
ATOM     35  C   UNL     1       1.343  -0.955  -2.251  0.00  0.00    +0.342 C 
ATOM     36  O   UNL     1       1.494   0.224  -1.991  0.00  0.00    -0.245 OA
BRANCH  35  37
ATOM     37  O   UNL     1       0.185  -1.571  -1.938  0.00  0.00    -0.464 OA
ATOM     38  C   UNL     1      -0.837  -0.767  -1.293  0.00  0.00    +0.280 C 
ENDBRANCH  35  37
ENDBRANCH  26  35
ENDBRANCH  23  25
ENDBRANCH  21  23
ENDBRANCH   1  21
TORSDOF 8
