REMARK  Name = ZINC38573407
REMARK  8 active torsions:
REMARK  status: ('A' for Active; 'I' for Inactive)
REMARK    1  A    between atoms: C_1  and  C_2
REMARK    2  A    between atoms: C_5  and  O_37
REMARK    3  A    between atoms: C_6  and  C_8
REMARK    4  A    between atoms: C_11  and  C_13
REMARK    5  A    between atoms: N_15  and  C_16
REMARK    6  A    between atoms: C_18  and  C_28
REMARK    7  A    between atoms: N_30  and  C_31
REMARK    8  A    between atoms: C_31  and  C_32
REMARK                            x       y       z     vdW  Elec       q    Type
REMARK                         _______ _______ _______ _____ _____    ______ ____
ROOT
ATOM      1  C   UNL     1       0.441  -3.712   6.123  0.00  0.00    +0.261 C 
ATOM      2  O   UNL     1       0.766  -2.738   6.776  0.00  0.00    -0.269 OA
ATOM      3  N   UNL     1       0.098  -4.857   6.747  0.00  0.00    -0.298 N 
ATOM      4  H   UNL     1      -0.225  -5.612   6.231  0.00  0.00    +0.150 HD
ENDROOT
BRANCH   3   5
ATOM      5  C   UNL     1       0.214  -4.961   8.203  0.00  0.00    +0.144 C 
ATOM      6  C   UNL     1      -0.731  -6.045   8.744  0.00  0.00    +0.109 C 
ATOM      7  C   UNL     1      -1.821  -5.528   9.665  0.00  0.00    +0.016 C 
ATOM      8  C   UNL     1      -3.114  -5.257   8.861  0.00  0.00    +0.005 C 
ATOM      9  C   UNL     1      -3.881  -4.260   9.764  0.00  0.00    +0.001 C 
ATOM     10  C   UNL     1      -2.780  -3.351  10.345  0.00  0.00    +0.014 C 
ATOM     11  C   UNL     1      -1.476  -4.149  10.286  0.00  0.00    +0.052 C 
ATOM     12  S   UNL     1      -0.378  -3.421   9.009  0.00  0.00    -0.134 S 
BRANCH   6  13
ATOM     13  C   UNL     1       0.088  -7.058   9.501  0.00  0.00    +0.219 C 
ATOM     14  O   UNL     1      -0.114  -7.240  10.683  0.00  0.00    -0.275 OA
ATOM     15  N   UNL     1       1.044  -7.763   8.865  0.00  0.00    -0.308 N 
ATOM     16  H   UNL     1       1.205  -7.618   7.920  0.00  0.00    +0.149 HD
BRANCH  15  17
ATOM     17  C   UNL     1       1.840  -8.748   9.601  0.00  0.00    +0.178 C 
BRANCH  17  18
ATOM     18  C   UNL     1       2.832  -9.392   8.666  0.00  0.00    +0.122 A 
ATOM     19  C   UNL     1       4.082  -8.958   8.426  0.00  0.00    +0.046 A 
ATOM     20  C   UNL     1       4.654  -9.853   7.492  0.00  0.00    +0.041 A 
ATOM     21  C   UNL     1       3.718 -10.780   7.218  0.00  0.00    +0.195 A 
ATOM     22  O   UNL     1       2.619 -10.499   7.936  0.00  0.00    -0.466 OA
ENDBRANCH  17  18
ENDBRANCH  15  17
ENDBRANCH   6  13
ENDBRANCH   3   5
BRANCH   1  26
ATOM     23  C   UNL     1       0.557  -3.015   2.393  0.00  0.00    +0.080 C 
ATOM     24  N   UNL     1       0.172  -4.256   2.592  0.00  0.00    -0.153 NA
ATOM     25  N   UNL     1       0.100  -4.591   3.820  0.00  0.00    -0.148 NA
ATOM     26  C   UNL     1       0.423  -3.641   4.659  0.00  0.00    +0.131 C 
ATOM     27  C   UNL     1       0.781  -2.450   3.786  0.00  0.00    +0.120 C 
BRANCH  23  33
ATOM     28  C   UNL     1       1.789   1.077  -0.165  0.00  0.00    +0.044 C 
ATOM     29  C   UNL     1       1.330  -0.358  -0.130  0.00  0.00    -0.050 A 
ATOM     30  C   UNL     1       1.079  -1.031  -1.317  0.00  0.00    +0.007 A 
ATOM     31  C   UNL     1       0.658  -2.346  -1.301  0.00  0.00    +0.046 A 
ATOM     32  C   UNL     1       0.483  -3.006  -0.095  0.00  0.00    +0.126 A 
ATOM     33  C   UNL     1       0.737  -2.330   1.112  0.00  0.00    +0.040 A 
ATOM     34  C   UNL     1       1.169  -0.996   1.078  0.00  0.00    +0.016 A 
BRANCH  32  35
ATOM     35  O   UNL     1       0.070  -4.298  -0.079  0.00  0.00    -0.506 OA
ATOM     36  H   UNL     1       0.790  -4.942  -0.100  0.00  0.00    +0.292 HD
ENDBRANCH  32  35
ENDBRANCH  23  33
ENDBRANCH   1  26
TORSDOF 7
