REMARK  Name = ZINC19852139
REMARK  10 active torsions:
REMARK  status: ('A' for Active; 'I' for Inactive)
REMARK    1  A    between atoms: C_1  and  O_2
REMARK    2  A    between atoms: O_2  and  C_3
REMARK    3  A    between atoms: C_3  and  C_5
REMARK    4  A    between atoms: C_8  and  C_11
REMARK    5  A    between atoms: N_16  and  C_30
REMARK    6  A    between atoms: C_20  and  C_28
REMARK    7  A    between atoms: C_21  and  N_27
REMARK    8  A    between atoms: C_22  and  C_23
REMARK    9  A    between atoms: C_22  and  C_25
REMARK   10  A    between atoms: C_30  and  C_31
REMARK                            x       y       z     vdW  Elec       q    Type
REMARK                         _______ _______ _______ _____ _____    ______ ____
ROOT
ATOM      1  C   UNL     1      -2.752  -1.789   3.688  0.00  0.00    +0.067 C 
ATOM      2  C   UNL     1      -2.576  -0.373   3.137  0.00  0.00    +0.044 C 
ATOM      3  C   UNL     1      -2.480  -0.356   1.629  0.00  0.00    +0.094 C 
ATOM      4  N   UNL     1      -3.744   0.038   1.000  0.00  0.00    -0.294 NA
ATOM      5  C   UNL     1      -4.139   1.383   1.454  0.00  0.00    +0.112 C 
ATOM      6  C   UNL     1      -4.391   1.308   2.939  0.00  0.00    -0.006 C 
ATOM      7  C   UNL     1      -3.683   0.481   3.687  0.00  0.00    -0.026 C 
ATOM      8  C   UNL     1      -3.970   0.362   5.138  0.00  0.00    +0.074 C 
ATOM      9  C   UNL     1      -3.466  -0.694   5.827  0.00  0.00    +0.054 C 
ATOM     10  C   UNL     1      -2.602  -1.751   5.209  0.00  0.00    +0.188 C 
ENDROOT
BRANCH   1  14
ATOM     11  C   UNL     1       0.231  -4.361   2.021  0.00  0.00    +0.059 A 
ATOM     12  C   UNL     1       0.579  -3.090   2.482  0.00  0.00    +0.015 A 
ATOM     13  C   UNL     1      -0.388  -2.265   3.018  0.00  0.00    +0.005 A 
ATOM     14  C   UNL     1      -1.701  -2.695   3.100  0.00  0.00    -0.041 A 
ATOM     15  C   UNL     1      -2.052  -3.956   2.649  0.00  0.00    +0.005 A 
ATOM     16  C   UNL     1      -1.096  -4.788   2.106  0.00  0.00    +0.015 A 
BRANCH  11  17
ATOM     17  C   UNL     1       1.261  -5.250   1.446  0.00  0.00    +0.339 C 
ATOM     18  O   UNL     1       2.415  -4.875   1.373  0.00  0.00    -0.245 OA
BRANCH  17  20
ATOM     19  C   UNL     1       1.986  -7.295   0.449  0.00  0.00    +0.280 C 
ATOM     20  O   UNL     1       0.922  -6.476   1.002  0.00  0.00    -0.464 OA
ENDBRANCH  17  20
ENDBRANCH  11  17
ENDBRANCH   1  14
BRANCH   9  21
ATOM     21  N   UNL     1      -3.762  -0.798   7.157  0.00  0.00    -0.358 N 
ATOM     22  H   UNL     1      -3.369  -1.641   7.744  0.00  0.00    +0.142 HD
ATOM     23  H   UNL     1      -4.393  -0.038   7.641  0.00  0.00    +0.142 HD
ENDBRANCH   9  21
BRANCH  10  24
ATOM     24  C   UNL     1      -1.195  -1.478   5.545  0.00  0.00    +0.091 C 
ATOM     25  N   UNL     1      -0.109  -1.268   5.805  0.00  0.00    -0.194 NA
ENDBRANCH  10  24
BRANCH  10  26
ATOM     26  C   UNL     1      -2.981  -3.062   5.759  0.00  0.00    +0.091 C 
ATOM     27  N   UNL     1      -3.273  -4.074   6.184  0.00  0.00    -0.194 NA
ENDBRANCH  10  26
BRANCH   8  28
ATOM     28  C   UNL     1      -4.768   1.348   5.803  0.00  0.00    +0.101 C 
ATOM     29  N   UNL     1      -5.400   2.130   6.330  0.00  0.00    -0.191 NA
ENDBRANCH   8  28
BRANCH   4  30
ATOM     30  C   UNL     1      -3.642  -0.016  -0.464  0.00  0.00    +0.120 C 
BRANCH  30  31
ATOM     31  C   UNL     1      -2.508   0.865  -0.922  0.00  0.00    -0.033 A 
ATOM     32  C   UNL     1      -1.234   0.343  -1.046  0.00  0.00    +0.005 A 
ATOM     33  C   UNL     1      -0.195   1.149  -1.471  0.00  0.00    +0.000 A 
ATOM     34  C   UNL     1      -0.428   2.479  -1.767  0.00  0.00    +0.000 A 
ATOM     35  C   UNL     1      -1.701   3.002  -1.637  0.00  0.00    +0.000 A 
ATOM     36  C   UNL     1      -2.740   2.196  -1.213  0.00  0.00    +0.005 A 
ENDBRANCH  30  31
ENDBRANCH   4  30
TORSDOF 9
