REMARK  Name = ZINC17449369
REMARK  4 active torsions:
REMARK  status: ('A' for Active; 'I' for Inactive)
REMARK    1  A    between atoms: C_1  and  C_2
REMARK    2  A    between atoms: C_10  and  C_11
REMARK    3  A    between atoms: N_13  and  N_14
REMARK    4  A    between atoms: C_15  and  C_17
REMARK                            x       y       z     vdW  Elec       q    Type
REMARK                         _______ _______ _______ _____ _____    ______ ____
ROOT
ATOM      1  C   UNL     1       1.810  -1.745  -0.025  0.00  0.00    +0.296 C 
ATOM      2  O   UNL     1       1.026  -2.675  -0.023  0.00  0.00    -0.265 OA
ATOM      3  N   UNL     1       3.137  -1.983  -0.039  0.00  0.00    -0.228 N 
ATOM      4  H   UNL     1       3.763  -1.242  -0.041  0.00  0.00    +0.173 HD
ENDROOT
BRANCH   1  14
ATOM      5  C   UNL     1      -1.190  -0.926   0.009  0.00  0.00    +0.048 C 
ATOM      6  C   UNL     1       0.002  -0.004   0.002  0.00  0.00    +0.008 A 
ATOM      7  C   UNL     1      -0.018   1.458   0.010  0.00  0.00    +0.024 A 
ATOM      8  C   UNL     1      -1.032   2.418   0.030  0.00  0.00    +0.012 A 
ATOM      9  C   UNL     1      -0.709   3.746   0.028  0.00  0.00    +0.001 A 
ATOM     10  C   UNL     1       0.621   4.146   0.018  0.00  0.00    +0.004 A 
ATOM     11  C   UNL     1       1.636   3.215   0.003  0.00  0.00    +0.047 A 
ATOM     12  C   UNL     1       1.331   1.858  -0.001  0.00  0.00    +0.136 A 
ATOM     13  O   UNL     1       2.087   0.743  -0.014  0.00  0.00    -0.450 OA
ATOM     14  C   UNL     1       1.312  -0.362  -0.012  0.00  0.00    +0.195 A 
ENDBRANCH   1  14
BRANCH   3  15
ATOM     15  N   UNL     1       3.612  -3.301  -0.051  0.00  0.00    -0.231 N 
ATOM     16  C   UNL     1       4.939  -3.539  -0.065  0.00  0.00    +0.270 C 
ATOM     17  O   UNL     1       5.721  -2.612  -0.067  0.00  0.00    -0.270 OA
ATOM     18  H   UNL     1       2.987  -4.042  -0.049  0.00  0.00    +0.173 HD
BRANCH  16  19
ATOM     19  C   UNL     1       5.450  -4.956  -0.078  0.00  0.00    +0.264 C 
ATOM     20  C   UNL     1       5.187  -5.646   1.282  0.00  0.00    +0.093 C 
ATOM     21  C   UNL     1       6.426  -6.506   1.441  0.00  0.00    -0.000 A 
ATOM     22  C   UNL     1       6.712  -7.571   2.267  0.00  0.00    +0.027 A 
ATOM     23  C   UNL     1       7.944  -8.197   2.187  0.00  0.00    +0.041 A 
ATOM     24  C   UNL     1       8.884  -7.749   1.275  0.00  0.00    +0.023 A 
ATOM     25  C   UNL     1       8.600  -6.681   0.450  0.00  0.00    +0.047 A 
ATOM     26  C   UNL     1       7.364  -6.043   0.528  0.00  0.00    +0.125 A 
ATOM     27  O   UNL     1       6.884  -4.980  -0.175  0.00  0.00    -0.479 OA
ATOM     28 CL   UNL     1       8.309  -9.539   3.225  0.00  0.00    -0.084 Cl
ENDBRANCH  16  19
ENDBRANCH   3  15
TORSDOF 3
