REMARK  Name = ZINC38933809
REMARK  5 active torsions:
REMARK  status: ('A' for Active; 'I' for Inactive)
REMARK    1  A    between atoms: C_3  and  C_31
REMARK    2  A    between atoms: C_6  and  C_7
REMARK    3  A    between atoms: C_13  and  C_15
REMARK    4  A    between atoms: N_20  and  S_21
REMARK    5  A    between atoms: S_21  and  C_24
REMARK                            x       y       z     vdW  Elec       q    Type
REMARK                         _______ _______ _______ _____ _____    ______ ____
ROOT
ATOM      1  C   UNL     1      -2.074   0.096  -0.086  0.00  0.00    +0.250 A 
ATOM      2  N   UNL     1      -3.287   0.337  -0.520  0.00  0.00    -0.106 NA
ATOM      3  N   UNL     1      -3.970  -0.754  -0.505  0.00  0.00    -0.092 NA
ATOM      4  C   UNL     1      -3.220  -1.733  -0.061  0.00  0.00    +0.314 A 
ATOM      5  O   UNL     1      -2.004  -1.221   0.208  0.00  0.00    -0.405 OA
ATOM      6  N   UNL     1      -3.606  -3.054   0.097  0.00  0.00    -0.237 N 
ATOM      7  C   UNL     1      -4.860  -3.433  -0.220  0.00  0.00    +0.239 C 
ATOM      8  O   UNL     1      -5.651  -2.617  -0.643  0.00  0.00    -0.274 OA
ATOM      9  H   UNL     1      -2.973  -3.707   0.435  0.00  0.00    +0.159 HD
ENDROOT
BRANCH   1  15
ATOM     10  C   UNL     1      -1.195   2.417  -0.293  0.00  0.00    +0.014 A 
ATOM     11  C   UNL     1      -0.171   3.333  -0.163  0.00  0.00    +0.013 A 
ATOM     12  C   UNL     1       1.066   2.929   0.307  0.00  0.00    +0.055 A 
ATOM     13  C   UNL     1       1.285   1.606   0.649  0.00  0.00    +0.013 A 
ATOM     14  C   UNL     1       0.270   0.681   0.523  0.00  0.00    +0.014 A 
ATOM     15  C   UNL     1      -0.981   1.081   0.051  0.00  0.00    +0.039 A 
BRANCH  12  16
ATOM     16  C   UNL     1       2.180   3.934   0.446  0.00  0.00    +0.417 C 
ATOM     17  F   UNL     1       2.139   4.501   1.724  0.00  0.00    -0.166 F 
ATOM     18  F   UNL     1       3.410   3.295   0.258  0.00  0.00    -0.166 F 
ATOM     19  F   UNL     1       2.024   4.939  -0.515  0.00  0.00    -0.166 F 
ENDBRANCH  12  16
ENDBRANCH   1  15
BRANCH   7  20
ATOM     20  C   UNL     1      -5.279  -4.870  -0.048  0.00  0.00    +0.166 C 
ATOM     21  C   UNL     1      -4.963  -5.666  -1.332  0.00  0.00    +0.031 C 
ATOM     22  C   UNL     1      -6.181  -6.618  -1.459  0.00  0.00    +0.019 C 
ATOM     23  C   UNL     1      -7.332  -5.723  -0.934  0.00  0.00    +0.110 C 
ATOM     24  N   UNL     1      -6.732  -4.944   0.169  0.00  0.00    -0.165 NA
BRANCH  24  25
ATOM     25  S   UNL     1      -7.554  -4.268   1.437  0.00  0.00    +0.062 S 
ATOM     26  O   UNL     1      -6.694  -3.287   2.002  0.00  0.00    -0.153 OA
ATOM     27  O   UNL     1      -8.854  -3.955   0.957  0.00  0.00    -0.153 OA
BRANCH  25  28
ATOM     28  C   UNL     1      -7.755  -5.523   2.657  0.00  0.00    +0.106 A 
ATOM     29  C   UNL     1      -8.825  -6.395   2.581  0.00  0.00    +0.030 A 
ATOM     30  C   UNL     1      -8.984  -7.380   3.537  0.00  0.00    +0.022 A 
ATOM     31  C   UNL     1      -8.071  -7.494   4.571  0.00  0.00    +0.041 A 
ATOM     32  C   UNL     1      -7.000  -6.621   4.646  0.00  0.00    +0.022 A 
ATOM     33  C   UNL     1      -6.840  -5.640   3.686  0.00  0.00    +0.030 A 
ATOM     34 CL   UNL     1      -8.270  -8.730   5.773  0.00  0.00    -0.084 Cl
ENDBRANCH  25  28
ENDBRANCH  24  25
ENDBRANCH   7  20
TORSDOF 5
