REMARK  Name = ZINC64057442
REMARK  6 active torsions:
REMARK  status: ('A' for Active; 'I' for Inactive)
REMARK    1  A    between atoms: C_1  and  C_2
REMARK    2  A    between atoms: N_4  and  C_5
REMARK    3  A    between atoms: C_5  and  C_7
REMARK    4  A    between atoms: C_5  and  C_17
REMARK    5  A    between atoms: C_7  and  C_8
REMARK    6  A    between atoms: C_22  and  C_25
REMARK                            x       y       z     vdW  Elec       q    Type
REMARK                         _______ _______ _______ _____ _____    ______ ____
ROOT
ATOM      1  C   UNL     1      -0.272  -2.634   1.378  0.00  0.00    +0.236 C 
ATOM      2  O   UNL     1       0.621  -2.061   1.965  0.00  0.00    -0.274 OA
ATOM      3  N   UNL     1      -0.570  -3.912   1.685  0.00  0.00    -0.296 N 
ATOM      4  C   UNL     1       0.166  -4.638   2.734  0.00  0.00    +0.113 C 
ATOM      5  C   UNL     1      -0.824  -5.000   3.844  0.00  0.00    +0.054 C 
ATOM      6  C   UNL     1      -2.083  -5.565   3.258  0.00  0.00    -0.043 C 
ATOM      7  C   UNL     1      -2.457  -5.401   1.994  0.00  0.00    -0.004 C 
ATOM      8  C   UNL     1      -1.647  -4.633   0.992  0.00  0.00    +0.135 C 
ENDROOT
BRANCH   6   9
ATOM      9  C   UNL     1      -2.924  -6.318   4.101  0.00  0.00    -0.015 C 
ATOM     10  C   UNL     1      -2.784  -6.514   5.470  0.00  0.00    +0.022 A 
ATOM     11  C   UNL     1      -1.829  -6.063   6.410  0.00  0.00    +0.013 A 
ATOM     12  C   UNL     1      -1.977  -6.441   7.712  0.00  0.00    +0.020 A 
ATOM     13  C   UNL     1      -3.045  -7.251   8.098  0.00  0.00    +0.113 A 
ATOM     14  N   UNL     1      -3.944  -7.685   7.253  0.00  0.00    -0.238 NA
ATOM     15  C   UNL     1      -3.889  -7.368   5.942  0.00  0.00    +0.135 A 
ATOM     16  N   UNL     1      -4.677  -7.692   4.940  0.00  0.00    -0.365 N 
ATOM     17  C   UNL     1      -4.172  -7.077   3.709  0.00  0.00    +0.150 C 
ATOM     18  H   UNL     1      -5.470  -8.247   5.006  0.00  0.00    +0.161 HD
ENDBRANCH   6   9
BRANCH   1  19
ATOM     19  C   UNL     1      -1.049  -1.917   0.304  0.00  0.00    +0.163 C 
BRANCH  19  23
ATOM     20  C   UNL     1       0.495   1.575   0.586  0.00  0.00    +0.109 C 
ATOM     21  C   UNL     1       0.334   0.086   0.413  0.00  0.00    +0.211 C 
ATOM     22  O   UNL     1       1.308  -0.611   0.222  0.00  0.00    -0.276 OA
ATOM     23  N   UNL     1      -0.892  -0.470   0.472  0.00  0.00    -0.304 N 
ATOM     24  H   UNL     1      -1.671   0.088   0.625  0.00  0.00    +0.149 HD
ENDBRANCH  19  23
BRANCH  19  25
ATOM     25  C   UNL     1      -0.520  -2.331  -1.071  0.00  0.00    +0.065 C 
BRANCH  25  26
ATOM     26  C   UNL     1      -1.375  -1.710  -2.146  0.00  0.00    -0.039 C 
ATOM     27  C   UNL     1      -1.136  -0.555  -2.808  0.00  0.00    -0.001 A 
ATOM     28  C   UNL     1      -0.052   0.431  -2.728  0.00  0.00    +0.010 A 
ATOM     29  C   UNL     1      -0.089   1.514  -3.539  0.00  0.00    +0.001 A 
ATOM     30  C   UNL     1      -1.135   1.716  -4.450  0.00  0.00    +0.002 A 
ATOM     31  C   UNL     1      -2.166   0.855  -4.581  0.00  0.00    +0.026 A 
ATOM     32  C   UNL     1      -2.228  -0.318  -3.779  0.00  0.00    +0.043 A 
ATOM     33  N   UNL     1      -3.107  -1.289  -3.719  0.00  0.00    -0.380 N 
ATOM     34  C   UNL     1      -2.669  -2.255  -2.707  0.00  0.00    +0.144 C 
ATOM     35  H   UNL     1      -3.912  -1.358  -4.258  0.00  0.00    +0.160 HD
ENDBRANCH  25  26
ENDBRANCH  19  25
ENDBRANCH   1  19
TORSDOF 5
