REMARK  Name = ZINC00245304
REMARK  7 active torsions:
REMARK  status: ('A' for Active; 'I' for Inactive)
REMARK    1  A    between atoms: C_1  and  C_2
REMARK    2  A    between atoms: C_2  and  C_3
REMARK    3  A    between atoms: C_2  and  C_4
REMARK    4  A    between atoms: N_6  and  C_7
REMARK    5  A    between atoms: C_7  and  C_9
REMARK    6  A    between atoms: C_7  and  C_14
REMARK    7  A    between atoms: C_23  and  O_24
REMARK                            x       y       z     vdW  Elec       q    Type
REMARK                         _______ _______ _______ _____ _____    ______ ____
ROOT
ATOM      1  C   UNL     1       0.986  -0.676   3.640  0.00  0.00    +0.173 C 
ENDROOT
BRANCH   1   2
ATOM      2  C   UNL     1       0.710   0.244   4.801  0.00  0.00    +0.029 A 
ATOM      3  C   UNL     1       1.760   0.667   5.632  0.00  0.00    -0.009 A 
ATOM      4  C   UNL     1       3.083   0.249   5.406  0.00  0.00    +0.009 A 
ATOM      5  C   UNL     1       4.076   0.680   6.231  0.00  0.00    +0.001 A 
ATOM      6  C   UNL     1       3.801   1.530   7.301  0.00  0.00    +0.001 A 
ATOM      7  C   UNL     1       2.533   1.956   7.550  0.00  0.00    +0.008 A 
ATOM      8  C   UNL     1       1.481   1.533   6.720  0.00  0.00    -0.017 A 
ATOM      9  C   UNL     1       0.159   1.953   6.947  0.00  0.00    +0.012 A 
ATOM     10  C   UNL     1      -0.836   1.525   6.125  0.00  0.00    +0.046 A 
ATOM     11  C   UNL     1      -0.562   0.675   5.048  0.00  0.00    +0.123 A 
BRANCH  11  12
ATOM     12  O   UNL     1      -1.577   0.269   4.240  0.00  0.00    -0.506 OA
ATOM     13  H   UNL     1      -2.006  -0.548   4.528  0.00  0.00    +0.292 HD
ENDBRANCH  11  12
ENDBRANCH   1   2
BRANCH   1  14
ATOM     14  C   UNL     1       0.511  -2.066   3.976  0.00  0.00    +0.130 A 
ATOM     15  C   UNL     1       1.284  -3.081   4.399  0.00  0.00    +0.047 A 
ATOM     16  C   UNL     1       0.432  -4.193   4.593  0.00  0.00    +0.041 A 
ATOM     17  C   UNL     1      -0.812  -3.790   4.276  0.00  0.00    +0.195 A 
ATOM     18  O   UNL     1      -0.759  -2.499   3.909  0.00  0.00    -0.466 OA
ENDBRANCH   1  14
BRANCH   1  21
ATOM     19  C   UNL     1       0.731  -0.503   1.223  0.00  0.00    +0.216 C 
ATOM     20  O   UNL     1       1.725  -1.187   1.099  0.00  0.00    -0.276 OA
ATOM     21  N   UNL     1       0.278  -0.191   2.453  0.00  0.00    -0.301 N 
ATOM     22  H   UNL     1      -0.517   0.356   2.553  0.00  0.00    +0.150 HD
BRANCH  19  24
ATOM     23  C   UNL     1      -0.019   1.526   0.010  0.00  0.00    +0.017 C 
ATOM     24  C   UNL     1       0.002  -0.004   0.002  0.00  0.00    +0.069 C 
ATOM     25  C   UNL     1       0.718  -0.497  -1.257  0.00  0.00    +0.017 C 
ENDBRANCH  19  24
ENDBRANCH   1  21
TORSDOF 5
