REMARK  Name = ZINC13427236
REMARK  8 active torsions:
REMARK  status: ('A' for Active; 'I' for Inactive)
REMARK    1  A    between atoms: C_1  and  C_2
REMARK    2  A    between atoms: C_9  and  N_25
REMARK    3  A    between atoms: C_10  and  C_13
REMARK    4  A    between atoms: N_17  and  C_21
REMARK    5  A    between atoms: C_21  and  C_22
REMARK    6  A    between atoms: C_22  and  C_23
REMARK    7  A    between atoms: C_27  and  C_34
REMARK    8  A    between atoms: C_30  and  C_33
REMARK                            x       y       z     vdW  Elec       q    Type
REMARK                         _______ _______ _______ _____ _____    ______ ____
ROOT
ATOM      1  C   UNL     1       1.548   3.708   0.881  0.00  0.00    +0.047 C 
ATOM      2  C   UNL     1       1.442   2.237   0.571  0.00  0.00    -0.007 A 
ATOM      3  C   UNL     1       0.218   1.651   0.436  0.00  0.00    +0.008 A 
ATOM      4  C   UNL     1       0.136   0.282   0.147  0.00  0.00    +0.019 A 
ATOM      5  C   UNL     1       1.264  -0.450   0.004  0.00  0.00    +0.096 A 
ATOM      6  N   UNL     1       2.491   0.127   0.138  0.00  0.00    -0.267 N 
ATOM      7  C   UNL     1       2.604   1.460   0.419  0.00  0.00    +0.145 A 
ATOM      8  N   UNL     1       3.796   2.042   0.553  0.00  0.00    -0.213 NA
ATOM      9  C   UNL     1       4.923   1.358   0.420  0.00  0.00    +0.136 A 
ATOM     10  C   UNL     1       4.869  -0.026   0.130  0.00  0.00    +0.081 A 
ATOM     11  C   UNL     1       3.598  -0.633  -0.011  0.00  0.00    +0.267 A 
ATOM     12  O   UNL     1       3.504  -1.822  -0.262  0.00  0.00    -0.267 OA
ENDROOT
BRANCH  10  13
ATOM     13  C   UNL     1       6.054  -0.783  -0.018  0.00  0.00    +0.037 C 
ATOM     14  C   UNL     1       6.987  -0.416  -0.945  0.00  0.00    +0.077 C 
ATOM     15  C   UNL     1       8.251  -1.003  -1.238  0.00  0.00    +0.258 C 
ATOM     16  O   UNL     1       8.646  -1.979  -0.625  0.00  0.00    -0.269 OA
ATOM     17  N   UNL     1       8.981  -0.461  -2.197  0.00  0.00    -0.255 N 
ATOM     18  C   UNL     1       8.546   0.626  -2.872  0.00  0.00    +0.121 C 
ATOM     19  S   UNL     1       9.320   1.489  -4.132  0.00  0.00    -0.027 S 
ATOM     20  S   UNL     1       6.958   0.935  -2.114  0.00  0.00    -0.061 S 
BRANCH  17  21
ATOM     21  C   UNL     1      10.284  -1.043  -2.530  0.00  0.00    +0.126 C 
BRANCH  21  22
ATOM     22  C   UNL     1      11.369  -0.389  -1.672  0.00  0.00    +0.144 C 
BRANCH  22  23
ATOM     23  C   UNL     1      12.709  -0.988  -2.013  0.00  0.00    +0.358 C 
ATOM     24  O   UNL     1      12.788  -1.850  -2.857  0.00  0.00    -0.246 OA
ATOM     25  O   UNL     1      13.814  -0.564  -1.381  0.00  0.00    -0.246 OA
ENDBRANCH  22  23
ENDBRANCH  21  22
ENDBRANCH  17  21
ENDBRANCH  10  13
BRANCH   9  26
ATOM     26  N   UNL     1       6.139   1.990   0.563  0.00  0.00    -0.310 N 
ATOM     27  C   UNL     1       6.860   1.484   1.740  0.00  0.00    +0.138 C 
ATOM     28  C   UNL     1       8.227   2.167   1.828  0.00  0.00    +0.133 C 
ATOM     29  O   UNL     1       8.043   3.585   1.873  0.00  0.00    -0.371 OA
ATOM     30  C   UNL     1       7.345   4.112   0.742  0.00  0.00    +0.133 C 
ATOM     31  C   UNL     1       5.969   3.448   0.643  0.00  0.00    +0.138 C 
ATOM     32  C   UNL     1       8.144   3.823  -0.531  0.00  0.00    +0.039 C 
ATOM     33  C   UNL     1       8.950   1.705   3.094  0.00  0.00    +0.039 C 
ENDBRANCH   9  26
TORSDOF 5
