REMARK  Name = ZINC01200359
REMARK  7 active torsions:
REMARK  status: ('A' for Active; 'I' for Inactive)
REMARK    1  A    between atoms: C_1  and  C_2
REMARK    2  A    between atoms: C_2  and  C_3
REMARK    3  A    between atoms: C_10  and  N_15
REMARK    4  A    between atoms: C_11  and  C_12
REMARK    5  A    between atoms: C_16  and  C_18
REMARK    6  A    between atoms: C_22  and  N_25
REMARK    7  A    between atoms: C_23  and  C_24
REMARK                            x       y       z     vdW  Elec       q    Type
REMARK                         _______ _______ _______ _____ _____    ______ ____
ROOT
ATOM      1  C   UNL     1       8.750   7.192   0.821  0.00  0.00    -0.006 C 
ATOM      2  C   UNL     1       7.782   7.906   1.768  0.00  0.00    +0.008 C 
ATOM      3  C   UNL     1       6.349   7.760   1.254  0.00  0.00    +0.037 C 
ATOM      4  C   UNL     1       6.065   6.283   1.005  0.00  0.00    -0.023 A 
ATOM      5  C   UNL     1       7.074   5.393   0.877  0.00  0.00    -0.004 A 
ATOM      6  S   UNL     1       6.272   3.837   0.614  0.00  0.00    -0.077 S 
ATOM      7  C   UNL     1       4.621   4.360   0.661  0.00  0.00    +0.085 A 
ATOM      8  C   UNL     1       4.729   5.725   0.888  0.00  0.00    +0.068 A 
ATOM      9  C   UNL     1       8.542   5.676   0.951  0.00  0.00    +0.046 C 
ENDROOT
BRANCH   8  10
ATOM     10  C   UNL     1       3.538   6.573   1.004  0.00  0.00    +0.244 C 
ATOM     11  O   UNL     1       3.024   6.754   2.093  0.00  0.00    -0.270 OA
ATOM     12  N   UNL     1       3.013   7.151  -0.094  0.00  0.00    -0.325 N 
ATOM     13  H   UNL     1       3.423   7.007  -0.961  0.00  0.00    +0.145 HD
ATOM     14  H   UNL     1       2.225   7.712  -0.017  0.00  0.00    +0.145 HD
ENDBRANCH   8  10
BRANCH   7  15
ATOM     15  N   UNL     1       3.473   3.600   0.515  0.00  0.00    -0.275 N 
ATOM     16  C   UNL     1       3.566   2.273   0.298  0.00  0.00    +0.249 C 
ATOM     17  O   UNL     1       4.658   1.743   0.231  0.00  0.00    -0.270 OA
ATOM     18  H   UNL     1       2.601   4.022   0.568  0.00  0.00    +0.156 HD
BRANCH  16  19
ATOM     19  C   UNL     1       2.341   1.461   0.142  0.00  0.00    +0.042 A 
ATOM     20  C   UNL     1       1.091   2.082   0.084  0.00  0.00    +0.013 A 
ATOM     21  C   UNL     1      -0.048   1.319  -0.062  0.00  0.00    +0.003 A 
ATOM     22  C   UNL     1       0.045  -0.059  -0.152  0.00  0.00    +0.033 A 
ATOM     23  C   UNL     1       1.279  -0.680  -0.095  0.00  0.00    +0.130 A 
ATOM     24  C   UNL     1       2.427   0.071   0.051  0.00  0.00    -0.008 A 
ATOM     25  C   UNL     1       3.771  -0.608   0.113  0.00  0.00    +0.047 C 
BRANCH  23  26
ATOM     26  N   UNL     1       1.369  -2.155  -0.193  0.00  0.00    +0.057 N 
ATOM     27  O   UNL     1       0.354  -2.827  -0.199  0.00  0.00    -0.126 OA
ATOM     28  O   UNL     1       2.458  -2.695  -0.266  0.00  0.00    -0.126 OA
ENDBRANCH  23  26
ENDBRANCH  16  19
ENDBRANCH   7  15
BRANCH   1  30
ATOM     29  C   UNL     1      11.151   6.919   0.184  0.00  0.00    +0.004 C 
ATOM     30  C   UNL     1      10.191   7.546   1.196  0.00  0.00    +0.000 C 
ENDBRANCH   1  30
TORSDOF 5
