REMARK  Name = ZINC19146030
REMARK  7 active torsions:
REMARK  status: ('A' for Active; 'I' for Inactive)
REMARK    1  A    between atoms: C_1  and  C_2
REMARK    2  A    between atoms: C_5  and  N_9
REMARK    3  A    between atoms: C_7  and  C_8
REMARK    4  A    between atoms: C_14  and  N_19
REMARK    5  A    between atoms: C_20  and  C_22
REMARK    6  A    between atoms: C_23  and  C_29
REMARK    7  A    between atoms: C_25  and  C_28
REMARK                            x       y       z     vdW  Elec       q    Type
REMARK                         _______ _______ _______ _____ _____    ______ ____
ROOT
ATOM      1  N   UNL     1      -0.075   5.671   0.033  0.00  0.00    -0.236 N 
ATOM      2  C   UNL     1       0.811   6.473   0.652  0.00  0.00    +0.050 A 
ATOM      3  C   UNL     1       0.443   7.758   0.416  0.00  0.00    +0.014 A 
ATOM      4  C   UNL     1      -0.706   7.740  -0.371  0.00  0.00    +0.140 A 
ATOM      5  N   UNL     1      -1.017   6.488  -0.609  0.00  0.00    -0.174 NA
ATOM      6  C   UNL     1       1.188   8.961   0.940  0.00  0.00    +0.107 C 
ATOM      7  C   UNL     1       2.584   8.508   1.387  0.00  0.00    +0.027 C 
ATOM      8  C   UNL     1       2.457   7.286   2.300  0.00  0.00    +0.008 C 
ATOM      9  C   UNL     1       2.011   6.073   1.473  0.00  0.00    +0.056 C 
ENDROOT
BRANCH   1  14
ATOM     10  C   UNL     1       0.002  -0.004   0.002  0.00  0.00    +0.044 C 
ATOM     11  C   UNL     1      -0.018   1.503   0.010  0.00  0.00    -0.047 A 
ATOM     12  C   UNL     1       1.171   2.209   0.003  0.00  0.00    +0.006 A 
ATOM     13  C   UNL     1       1.155   3.590   0.010  0.00  0.00    +0.028 A 
ATOM     14  C   UNL     1      -0.056   4.269   0.025  0.00  0.00    +0.066 A 
ATOM     15  C   UNL     1      -1.248   3.558   0.033  0.00  0.00    +0.031 A 
ATOM     16  C   UNL     1      -1.226   2.176   0.020  0.00  0.00    -0.046 A 
ATOM     17  C   UNL     1      -2.519   1.403   0.021  0.00  0.00    +0.044 C 
ENDBRANCH   1  14
BRANCH   6  18
ATOM     18  N   UNL     1       1.310   9.966  -0.118  0.00  0.00    -0.303 N 
ATOM     19  C   UNL     1       0.310  10.843  -0.333  0.00  0.00    +0.261 C 
ATOM     20  O   UNL     1      -0.695  10.801   0.352  0.00  0.00    -0.269 OA
ATOM     21  H   UNL     1       2.111  10.000  -0.665  0.00  0.00    +0.150 HD
BRANCH  19  22
ATOM     22  C   UNL     1       0.432  11.850  -1.394  0.00  0.00    +0.105 A 
ATOM     23  C   UNL     1      -0.507  12.804  -1.723  0.00  0.00    -0.020 A 
ATOM     24  C   UNL     1       0.019  13.548  -2.784  0.00  0.00    +0.026 A 
ATOM     25  C   UNL     1       1.242  13.045  -3.078  0.00  0.00    +0.014 A 
ATOM     26  N   UNL     1       1.507  12.016  -2.237  0.00  0.00    -0.354 N 
ATOM     27  H   UNL     1       2.318  11.485  -2.231  0.00  0.00    +0.166 HD
ATOM     28  C   UNL     1       2.161  13.552  -4.160  0.00  0.00    +0.063 C 
ATOM     29  C   UNL     1      -1.846  13.008  -1.063  0.00  0.00    +0.046 C 
ENDBRANCH  19  22
ENDBRANCH   6  18
TORSDOF 3
