REMARK  Name = ZINC12765246
REMARK  9 active torsions:
REMARK  status: ('A' for Active; 'I' for Inactive)
REMARK    1  A    between atoms: C_1  and  C_2
REMARK    2  A    between atoms: C_2  and  C_3
REMARK    3  A    between atoms: C_3  and  C_4
REMARK    4  A    between atoms: C_4  and  N_5
REMARK    5  A    between atoms: C_6  and  N_31
REMARK    6  A    between atoms: C_7  and  N_14
REMARK    7  A    between atoms: N_14  and  C_15
REMARK    8  A    between atoms: C_15  and  C_16
REMARK    9  A    between atoms: C_21  and  C_23
REMARK                            x       y       z     vdW  Elec       q    Type
REMARK                         _______ _______ _______ _____ _____    ______ ____
ROOT
ATOM      1  N   UNL     1      -0.580  -2.902  -2.456  0.00  0.00    -0.253 N 
ATOM      2  C   UNL     1      -0.240  -2.194  -3.550  0.00  0.00    +0.254 C 
ATOM      3  O   UNL     1       0.239  -2.758  -4.516  0.00  0.00    -0.270 OA
ENDROOT
BRANCH   1   6
ATOM      4  N   UNL     1      -0.797  -1.706   1.011  0.00  0.00    -0.280 N 
ATOM      5  C   UNL     1      -0.336  -2.363  -0.106  0.00  0.00    +0.127 A 
ATOM      6  C   UNL     1      -1.025  -2.236  -1.295  0.00  0.00    +0.140 A 
ATOM      7  C   UNL     1      -2.176  -1.427  -1.330  0.00  0.00    +0.277 A 
ATOM      8  O   UNL     1      -2.802  -1.295  -2.368  0.00  0.00    -0.266 OA
ATOM      9  N   UNL     1      -2.583  -0.801  -0.208  0.00  0.00    -0.273 N 
ATOM     10  H   UNL     1      -3.400  -0.226  -0.232  0.00  0.00    +0.173 HD
ATOM     11  C   UNL     1      -1.901  -0.940   0.943  0.00  0.00    +0.331 A 
ATOM     12  O   UNL     1      -2.290  -0.363   1.940  0.00  0.00    -0.246 OA
BRANCH   5  13
ATOM     13  N   UNL     1       0.795  -3.141  -0.037  0.00  0.00    -0.343 N 
ATOM     14  H   UNL     1       1.211  -3.318   0.822  0.00  0.00    +0.144 HD
ATOM     15  H   UNL     1       1.178  -3.514  -0.847  0.00  0.00    +0.144 HD
ENDBRANCH   5  13
BRANCH   4  16
ATOM     16  C   UNL     1      -0.079  -1.836   2.281  0.00  0.00    +0.128 C 
BRANCH  16  17
ATOM     17  C   UNL     1      -0.641  -3.022   3.067  0.00  0.00    +0.021 C 
BRANCH  17  19
ATOM     18  C   UNL     1      -0.454  -4.344   5.179  0.00  0.00    +0.004 C 
ATOM     19  C   UNL     1       0.109  -3.157   4.393  0.00  0.00    -0.002 C 
ENDBRANCH  17  19
ENDBRANCH  16  17
ENDBRANCH   4  16
ENDBRANCH   1   6
BRANCH   2  20
ATOM     20  C   UNL     1      -0.448  -0.732  -3.578  0.00  0.00    +0.074 A 
ATOM     21  C   UNL     1      -0.375   0.010  -2.397  0.00  0.00    +0.036 A 
ATOM     22  C   UNL     1      -0.570   1.375  -2.429  0.00  0.00    +0.042 A 
ATOM     23  C   UNL     1      -0.837   2.012  -3.630  0.00  0.00    +0.023 A 
ATOM     24  C   UNL     1      -0.911   1.286  -4.804  0.00  0.00    +0.040 A 
ATOM     25  C   UNL     1      -0.713  -0.083  -4.787  0.00  0.00    +0.136 A 
ATOM     26  F   UNL     1      -0.780  -0.791  -5.936  0.00  0.00    -0.205 F 
ATOM     27 CL   UNL     1      -0.478   2.298  -0.962  0.00  0.00    -0.084 Cl
ENDBRANCH   2  20
BRANCH   1  28
ATOM     28  C   UNL     1      -0.489  -4.364  -2.472  0.00  0.00    +0.188 C 
BRANCH  28  29
ATOM     29  C   UNL     1      -1.750  -4.940  -3.061  0.00  0.00    +0.122 A 
ATOM     30  C   UNL     1      -1.928  -5.296  -4.346  0.00  0.00    +0.046 A 
ATOM     31  C   UNL     1      -3.250  -5.784  -4.457  0.00  0.00    +0.041 A 
ATOM     32  C   UNL     1      -3.802  -5.697  -3.234  0.00  0.00    +0.195 A 
ATOM     33  O   UNL     1      -2.887  -5.191  -2.391  0.00  0.00    -0.466 OA
ENDBRANCH  28  29
ENDBRANCH   1  28
TORSDOF 8
