REMARK  Name = ZINC21236391
REMARK  12 active torsions:
REMARK  status: ('A' for Active; 'I' for Inactive)
REMARK    1  A    between atoms: C_1  and  C_2
REMARK    2  A    between atoms: C_2  and  C_3
REMARK    3  A    between atoms: C_2  and  C_4
REMARK    4  A    between atoms: C_2  and  C_5
REMARK    5  A    between atoms: C_8  and  C_11
REMARK    6  A    between atoms: C_16  and  C_26
REMARK    7  A    between atoms: C_29  and  O_36
REMARK    8  A    between atoms: C_30  and  O_34
REMARK    9  A    between atoms: C_31  and  O_32
REMARK   10  A    between atoms: O_32  and  C_33
REMARK   11  A    between atoms: O_34  and  C_35
REMARK   12  A    between atoms: O_36  and  C_37
REMARK                            x       y       z     vdW  Elec       q    Type
REMARK                         _______ _______ _______ _____ _____    ______ ____
ROOT
ATOM      1  C   UNL     1       2.340   4.101   0.447  0.00  0.00    +0.032 C 
ATOM      2  C   UNL     1       2.357   4.879  -0.867  0.00  0.00    +0.059 C 
ATOM      3  C   UNL     1       3.684   5.604  -1.023  0.00  0.00    +0.017 C 
ATOM      4  C   UNL     1       4.341   6.061   0.057  0.00  0.00    +0.037 C 
ATOM      5  C   UNL     1       5.659   6.798   0.046  0.00  0.00    +0.140 C 
ATOM      6  N   UNL     1       6.090   7.237  -1.264  0.00  0.00    -0.331 N 
ATOM      7  C   UNL     1       6.409   6.317  -2.262  0.00  0.00    +0.049 A 
ATOM      8  C   UNL     1       7.708   6.165  -2.717  0.00  0.00    +0.025 A 
ATOM      9  C   UNL     1       7.997   5.162  -3.626  0.00  0.00    +0.002 A 
ATOM     10  C   UNL     1       6.998   4.319  -4.079  0.00  0.00    +0.002 A 
ATOM     11  C   UNL     1       5.695   4.482  -3.642  0.00  0.00    +0.025 A 
ATOM     12  C   UNL     1       5.401   5.496  -2.747  0.00  0.00    +0.052 A 
ATOM     13  N   UNL     1       4.108   5.747  -2.304  0.00  0.00    -0.316 N 
ATOM     14  C   UNL     1       3.812   5.855   1.353  0.00  0.00    +0.163 C 
ATOM     15  O   UNL     1       4.415   6.301   2.309  0.00  0.00    -0.292 OA
ATOM     16  C   UNL     1       2.534   5.107   1.588  0.00  0.00    +0.088 C 
ATOM     17  H   UNL     1       6.171   8.312  -1.485  0.00  0.00    +0.147 HD
ATOM     18  H   UNL     1       3.406   6.085  -3.081  0.00  0.00    +0.152 HD
ENDROOT
BRANCH   1  22
ATOM     19  C   UNL     1      -1.410   2.104   0.894  0.00  0.00    -0.042 A 
ATOM     20  C   UNL     1      -0.237   1.373   0.864  0.00  0.00    +0.004 A 
ATOM     21  C   UNL     1       0.977   2.019   0.718  0.00  0.00    +0.004 A 
ATOM     22  C   UNL     1       1.018   3.397   0.607  0.00  0.00    -0.043 A 
ATOM     23  C   UNL     1      -0.155   4.128   0.642  0.00  0.00    +0.004 A 
ATOM     24  C   UNL     1      -1.368   3.482   0.788  0.00  0.00    +0.004 A 
BRANCH  19  26
ATOM     25  C   UNL     1      -2.747   0.624   2.367  0.00  0.00    +0.015 C 
ATOM     26  C   UNL     1      -2.733   1.400   1.048  0.00  0.00    -0.013 C 
ATOM     27  C   UNL     1      -3.863   2.432   1.052  0.00  0.00    +0.015 C 
ATOM     28  C   UNL     1      -2.932   0.429  -0.117  0.00  0.00    +0.015 C 
ENDBRANCH  19  26
ENDBRANCH   1  22
BRANCH   5  29
ATOM     29  C   UNL     1       6.716   5.889   0.617  0.00  0.00    +0.023 A 
ATOM     30  C   UNL     1       6.521   4.520   0.620  0.00  0.00    +0.013 A 
ATOM     31  C   UNL     1       7.488   3.682   1.143  0.00  0.00    +0.050 A 
ATOM     32  C   UNL     1       8.658   4.212   1.666  0.00  0.00    +0.165 A 
ATOM     33  C   UNL     1       8.858   5.587   1.664  0.00  0.00    +0.204 A 
ATOM     34  C   UNL     1       7.885   6.426   1.133  0.00  0.00    +0.170 A 
BRANCH  34  35
ATOM     35  O   UNL     1       8.078   7.772   1.125  0.00  0.00    -0.491 OA
ATOM     36  C   UNL     1       7.731   8.485   2.314  0.00  0.00    +0.277 C 
ENDBRANCH  34  35
BRANCH  33  37
ATOM     37  O   UNL     1      10.005   6.111   2.177  0.00  0.00    -0.488 OA
ATOM     38  C   UNL     1      11.101   6.279   1.275  0.00  0.00    +0.277 C 
ENDBRANCH  33  37
BRANCH  32  39
ATOM     39  O   UNL     1       9.609   3.386   2.180  0.00  0.00    -0.491 OA
ATOM     40  C   UNL     1       9.336   1.984   2.149  0.00  0.00    +0.277 C 
ENDBRANCH  32  39
ENDBRANCH   5  29
TORSDOF 6
