REMARK  Name = ZINC67301297
REMARK  2 active torsions:
REMARK  status: ('A' for Active; 'I' for Inactive)
REMARK    1  A    between atoms: C_1  and  C_2
REMARK    2  A    between atoms: C_9  and  C_11
REMARK                            x       y       z     vdW  Elec       q    Type
REMARK                         _______ _______ _______ _____ _____    ______ ____
ROOT
ATOM      1  C   UNL     1      -1.753  -4.224  -0.938  0.00  0.00    +0.075 C 
ATOM      2  C   UNL     1      -0.289  -4.614  -0.723  0.00  0.00    +0.015 C 
ATOM      3  C   UNL     1      -0.167  -6.140  -0.700  0.00  0.00    +0.036 C 
ATOM      4  C   UNL     1      -0.675  -6.714  -2.018  0.00  0.00    +0.112 C 
ATOM      5  C   UNL     1      -2.127  -6.312  -2.258  0.00  0.00    +0.036 C 
ATOM      6  C   UNL     1      -2.241  -4.786  -2.275  0.00  0.00    +0.015 C 
ATOM      7  C   UNL     1       0.196  -6.256  -3.164  0.00  0.00    +0.244 C 
ATOM      8  O   UNL     1       0.387  -5.116  -3.530  0.00  0.00    -0.273 OA
ATOM      9  N   UNL     1       0.717  -7.382  -3.694  0.00  0.00    -0.238 N 
ATOM     10  C   UNL     1       0.295  -8.473  -3.043  0.00  0.00    +0.307 C 
ATOM     11  O   UNL     1       0.627  -9.605  -3.336  0.00  0.00    -0.252 OA
ATOM     12  N   UNL     1      -0.538  -8.176  -2.028  0.00  0.00    -0.285 N 
ATOM     13  H   UNL     1       1.321  -7.399  -4.452  0.00  0.00    +0.159 HD
ATOM     14  H   UNL     1      -0.964  -8.804  -1.423  0.00  0.00    +0.151 HD
ENDROOT
BRANCH   1  22
ATOM     15  C   UNL     1      -0.703   1.480   0.889  0.00  0.00    +0.020 C 
ATOM     16  C   UNL     1      -0.658  -0.048   0.836  0.00  0.00    +0.061 C 
ATOM     17  C   UNL     1      -1.945  -0.578   0.194  0.00  0.00    +0.121 C 
ATOM     18  N   UNL     1      -1.933  -2.042   0.213  0.00  0.00    -0.299 N 
ATOM     19  C   UNL     1      -1.982  -2.776   1.478  0.00  0.00    +0.118 C 
ATOM     20  C   UNL     1      -0.699  -2.507   2.274  0.00  0.00    +0.088 C 
ATOM     21  S   UNL     1      -0.529  -0.714   2.523  0.00  0.00    -0.155 S 
ATOM     22  C   UNL     1      -1.876  -2.722  -0.949  0.00  0.00    +0.219 C 
ATOM     23  O   UNL     1      -1.925  -2.126  -2.004  0.00  0.00    -0.275 OA
ENDBRANCH   1  22
TORSDOF 1
