REMARK  Name = ZINC10644830
REMARK  9 active torsions:
REMARK  status: ('A' for Active; 'I' for Inactive)
REMARK    1  A    between atoms: C_1  and  C_2
REMARK    2  A    between atoms: C_4  and  C_26
REMARK    3  A    between atoms: C_8  and  N_25
REMARK    4  A    between atoms: C_9  and  C_11
REMARK    5  A    between atoms: C_11  and  O_13
REMARK    6  A    between atoms: O_13  and  C_14
REMARK    7  A    between atoms: C_14  and  C_15
REMARK    8  A    between atoms: N_17  and  C_18
REMARK    9  A    between atoms: N_17  and  C_19
REMARK                            x       y       z     vdW  Elec       q    Type
REMARK                         _______ _______ _______ _____ _____    ______ ____
ROOT
ATOM      1  C   UNL     1      -4.061   1.579   5.444  0.00  0.00    +0.044 C 
ATOM      2  C   UNL     1      -4.129   0.230   6.112  0.00  0.00    -0.037 A 
ATOM      3  C   UNL     1      -5.338  -0.400   6.292  0.00  0.00    +0.025 A 
ATOM      4  C   UNL     1      -5.398  -1.641   6.907  0.00  0.00    +0.014 A 
ATOM      5  N   UNL     1      -4.296  -2.233   7.326  0.00  0.00    -0.353 N 
ATOM      6  C   UNL     1      -3.116  -1.672   7.176  0.00  0.00    +0.088 A 
ATOM      7  C   UNL     1      -2.947  -0.412   6.558  0.00  0.00    +0.030 A 
ATOM      8  C   UNL     1      -1.572   0.055   6.471  0.00  0.00    +0.055 A 
ATOM      9  C   UNL     1      -0.575  -0.751   6.979  0.00  0.00    +0.119 A 
ATOM     10  S   UNL     1      -1.464  -2.162   7.606  0.00  0.00    -0.062 S 
ATOM     11  C   UNL     1      -6.731  -2.318   7.098  0.00  0.00    +0.063 C 
ATOM     12  H   UNL     1      -4.358  -3.101   7.754  0.00  0.00    +0.166 HD
ENDROOT
BRANCH   8  13
ATOM     13  N   UNL     1      -1.271   1.278   5.891  0.00  0.00    -0.356 N 
ATOM     14  H   UNL     1      -1.882   1.673   5.249  0.00  0.00    +0.142 HD
ATOM     15  H   UNL     1      -0.450   1.738   6.127  0.00  0.00    +0.142 HD
ENDBRANCH   8  13
BRANCH   9  16
ATOM     16  C   UNL     1       0.819  -0.509   7.007  0.00  0.00    +0.348 C 
ATOM     17  O   UNL     1       1.267   0.521   6.539  0.00  0.00    -0.244 OA
BRANCH  16  18
ATOM     18  O   UNL     1       1.651  -1.422   7.552  0.00  0.00    -0.451 OA
BRANCH  18  19
ATOM     19  C   UNL     1       3.046  -1.113   7.545  0.00  0.00    +0.328 C 
BRANCH  19  20
ATOM     20  C   UNL     1       3.813  -2.239   8.190  0.00  0.00    +0.257 C 
ATOM     21  O   UNL     1       3.223  -3.210   8.613  0.00  0.00    -0.272 OA
ATOM     22  N   UNL     1       5.154  -2.166   8.296  0.00  0.00    -0.272 N 
ATOM     23  C   UNL     1       5.860  -0.962   7.852  0.00  0.00    +0.138 C 
BRANCH  22  24
ATOM     24  C   UNL     1       5.873  -3.241   8.831  0.00  0.00    +0.036 A 
ATOM     25  C   UNL     1       6.782  -3.932   8.040  0.00  0.00    +0.023 A 
ATOM     26  C   UNL     1       7.490  -4.993   8.571  0.00  0.00    +0.002 A 
ATOM     27  C   UNL     1       7.294  -5.367   9.888  0.00  0.00    +0.000 A 
ATOM     28  C   UNL     1       6.389  -4.682  10.677  0.00  0.00    +0.002 A 
ATOM     29  C   UNL     1       5.683  -3.616  10.154  0.00  0.00    +0.023 A 
ENDBRANCH  22  24
ENDBRANCH  19  20
ENDBRANCH  18  19
ENDBRANCH  16  18
ENDBRANCH   9  16
TORSDOF 6
