REMARK  Name = ZINC39674473
REMARK  11 active torsions:
REMARK  status: ('A' for Active; 'I' for Inactive)
REMARK    1  A    between atoms: C_1  and  C_2
REMARK    2  A    between atoms: C_4  and  C_9
REMARK    3  A    between atoms: C_5  and  C_8
REMARK    4  A    between atoms: C_9  and  C_11
REMARK    5  A    between atoms: C_9  and  N_12
REMARK    6  A    between atoms: C_13  and  C_15
REMARK    7  A    between atoms: C_26  and  C_28
REMARK    8  A    between atoms: C_30  and  O_36
REMARK    9  A    between atoms: C_33  and  O_34
REMARK   10  A    between atoms: O_34  and  C_35
REMARK   11  A    between atoms: O_36  and  C_37
REMARK                            x       y       z     vdW  Elec       q    Type
REMARK                         _______ _______ _______ _____ _____    ______ ____
ROOT
ATOM      1  C   UNL     1       0.318   3.085  -4.240  0.00  0.00    +0.100 C 
ATOM      2  C   UNL     1      -1.089   3.597  -3.858  0.00  0.00    +0.121 C 
ATOM      3  N   UNL     1      -1.466   4.514  -4.960  0.00  0.00    -0.296 N 
ATOM      4  C   UNL     1      -0.963   3.845  -6.184  0.00  0.00    +0.115 C 
ATOM      5  C   UNL     1       0.397   3.249  -5.767  0.00  0.00    -0.004 C 
ATOM      6  C   UNL     1       0.603   1.893  -6.434  0.00  0.00    -0.010 C 
ATOM      7  C   UNL     1       0.737   2.088  -7.947  0.00  0.00    -0.082 C 
ATOM      8  N   UNL     1       1.873   2.973  -8.230  0.00  0.00    +0.379 N 
ATOM      9  C   UNL     1       1.624   4.304  -7.664  0.00  0.00    -0.082 C 
ATOM     10  C   UNL     1       1.528   4.203  -6.139  0.00  0.00    -0.010 C 
ATOM     11  C   UNL     1      -2.118   5.690  -4.869  0.00  0.00    +0.250 C 
ATOM     12  O   UNL     1      -2.395   6.149  -3.778  0.00  0.00    -0.270 OA
ATOM     13  H   UNL     1       2.710   2.586  -7.820  0.00  0.00    -0.086 HD
ATOM     14  H   UNL     1       1.997   3.052  -9.228  0.00  0.00    -0.086 HD
ENDROOT
BRANCH  11  15
ATOM     15  C   UNL     1      -2.497   6.419  -6.095  0.00  0.00    +0.082 A 
ATOM     16  C   UNL     1      -2.881   5.717  -7.240  0.00  0.00    +0.062 A 
ATOM     17  C   UNL     1      -3.235   6.407  -8.384  0.00  0.00    +0.121 A 
ATOM     18  C   UNL     1      -3.209   7.797  -8.398  0.00  0.00    +0.049 A 
ATOM     19  C   UNL     1      -2.830   8.498  -7.271  0.00  0.00    +0.050 A 
ATOM     20  C   UNL     1      -2.478   7.820  -6.114  0.00  0.00    +0.132 A 
BRANCH  20  21
ATOM     21  O   UNL     1      -2.111   8.511  -5.005  0.00  0.00    -0.494 OA
ATOM     22  C   UNL     1      -2.116   9.937  -5.098  0.00  0.00    +0.277 C 
ENDBRANCH  20  21
BRANCH  17  23
ATOM     23  O   UNL     1      -3.609   5.725  -9.499  0.00  0.00    -0.495 OA
ATOM     24  C   UNL     1      -3.962   6.500 -10.646  0.00  0.00    +0.277 C 
ENDBRANCH  17  23
ENDBRANCH  11  15
BRANCH   1  26
ATOM     25  N   UNL     1       1.684   1.147  -3.535  0.00  0.00    -0.309 N 
ATOM     26  C   UNL     1       0.470   1.635  -3.860  0.00  0.00    +0.219 C 
ATOM     27  O   UNL     1      -0.500   0.907  -3.845  0.00  0.00    -0.275 OA
ATOM     28  H   UNL     1       2.459   1.730  -3.546  0.00  0.00    +0.149 HD
BRANCH  25  29
ATOM     29  C   UNL     1       1.831  -0.263  -3.165  0.00  0.00    +0.100 C 
ATOM     30  C   UNL     1       1.559  -0.428  -1.669  0.00  0.00    +0.033 C 
BRANCH  29  33
ATOM     31  C   UNL     1       4.696   1.319  -3.423  0.00  0.00    +0.039 C 
ATOM     32  C   UNL     1       4.541  -0.134  -2.968  0.00  0.00    +0.154 C 
ATOM     33  C   UNL     1       3.234  -0.719  -3.474  0.00  0.00    -0.001 C 
ATOM     34  C   UNL     1       3.617  -1.731  -4.255  0.00  0.00    +0.063 C 
ATOM     35  N   UNL     1       4.964  -1.831  -4.286  0.00  0.00    -0.159 NA
ATOM     36  N   UNL     1       5.559  -0.989  -3.601  0.00  0.00    -0.180 NA
ATOM     37  C   UNL     1       2.674  -2.639  -5.002  0.00  0.00    +0.067 C 
ENDBRANCH  29  33
ENDBRANCH  25  29
ENDBRANCH   1  26
TORSDOF 6
