REMARK  Name = ZINC20555823
REMARK  5 active torsions:
REMARK  status: ('A' for Active; 'I' for Inactive)
REMARK    1  A    between atoms: C_1  and  C_2
REMARK    2  A    between atoms: C_12  and  C_14
REMARK    3  A    between atoms: C_17  and  O_20
REMARK    4  A    between atoms: O_20  and  C_21
REMARK    5  A    between atoms: N_22  and  C_23
REMARK                            x       y       z     vdW  Elec       q    Type
REMARK                         _______ _______ _______ _____ _____    ______ ____
ROOT
ATOM      1  C   UNL     1       0.678   1.470   0.404  0.00  0.00    +0.066 C 
ATOM      2  C   UNL     1       0.514  -0.024   0.293  0.00  0.00    +0.047 C 
ATOM      3  C   UNL     1      -0.739  -0.568   0.315  0.00  0.00    +0.091 C 
ATOM      4  C   UNL     1      -0.872  -1.965   0.210  0.00  0.00    +0.249 C 
ATOM      5  O   UNL     1      -1.972  -2.492   0.225  0.00  0.00    -0.270 OA
ATOM      6  N   UNL     1       0.265  -2.717   0.090  0.00  0.00    -0.211 N 
ATOM      7  C   UNL     1       1.495  -2.115   0.074  0.00  0.00    +0.229 C 
ATOM      8  N   UNL     1       1.588  -0.793   0.171  0.00  0.00    -0.219 NA
ATOM      9  N   UNL     1       2.609  -2.849  -0.042  0.00  0.00    -0.183 NA
ATOM     10  C   UNL     1       2.621  -4.157  -0.146  0.00  0.00    +0.194 C 
ATOM     11  N   UNL     1       1.473  -4.897  -0.146  0.00  0.00    -0.335 N 
ATOM     12  C   UNL     1       0.191  -4.180  -0.022  0.00  0.00    +0.211 C 
ATOM     13  N   UNL     1       3.821  -4.799  -0.260  0.00  0.00    -0.312 N 
ATOM     14  H   UNL     1       3.848  -5.765  -0.339  0.00  0.00    +0.149 HD
ATOM     15  H   UNL     1       1.501  -5.864  -0.225  0.00  0.00    +0.164 HD
ENDROOT
BRANCH  12  16
ATOM     16  C   UNL     1      -0.523  -4.707   1.196  0.00  0.00    -0.006 A 
ATOM     17  C   UNL     1      -0.046  -4.406   2.459  0.00  0.00    +0.011 A 
ATOM     18  C   UNL     1      -0.698  -4.888   3.577  0.00  0.00    +0.046 A 
ATOM     19  C   UNL     1      -1.832  -5.673   3.433  0.00  0.00    +0.120 A 
ATOM     20  C   UNL     1      -2.309  -5.973   2.165  0.00  0.00    +0.046 A 
ATOM     21  C   UNL     1      -1.656  -5.485   1.050  0.00  0.00    +0.011 A 
BRANCH  19  22
ATOM     22  O   UNL     1      -2.475  -6.149   4.532  0.00  0.00    -0.495 OA
ATOM     23  C   UNL     1      -3.636  -6.951   4.308  0.00  0.00    +0.277 C 
ENDBRANCH  19  22
ENDBRANCH  12  16
BRANCH  13  24
ATOM     24  C   UNL     1       5.067  -4.028  -0.263  0.00  0.00    +0.073 C 
ATOM     25  C   UNL     1       5.360  -3.539  -1.683  0.00  0.00    +0.022 C 
ATOM     26  C   UNL     1       6.661  -2.734  -1.687  0.00  0.00    +0.002 C 
ATOM     27  C   UNL     1       7.811  -3.621  -1.205  0.00  0.00    +0.000 C 
ATOM     28  C   UNL     1       7.518  -4.110   0.215  0.00  0.00    +0.002 C 
ATOM     29  C   UNL     1       6.216  -4.915   0.218  0.00  0.00    +0.022 C 
ENDBRANCH  13  24
TORSDOF 3
