REMARK  Name = ZINC16525729
REMARK  6 active torsions:
REMARK  status: ('A' for Active; 'I' for Inactive)
REMARK    1  A    between atoms: C_1  and  C_2
REMARK    2  A    between atoms: C_2  and  C_4
REMARK    3  A    between atoms: C_2  and  N_49
REMARK    4  A    between atoms: N_6  and  C_7
REMARK    5  A    between atoms: N_18  and  S_21
REMARK    6  A    between atoms: S_21  and  C_24
REMARK                            x       y       z     vdW  Elec       q    Type
REMARK                         _______ _______ _______ _____ _____    ______ ____
ROOT
ATOM      1  C   UNL     1      -3.331   3.080   1.251  0.00  0.00    -0.060 C 
ATOM      2  C   UNL     1      -4.307   4.251   1.099  0.00  0.00    +0.091 C 
ATOM      3  N   UNL     1      -5.666   3.711   0.948  0.00  0.00    -0.180 NA
ATOM      4  C   UNL     1      -5.893   2.671  -0.068  0.00  0.00    +0.091 C 
ATOM      5  C   UNL     1      -4.854   1.562   0.131  0.00  0.00    -0.060 C 
ATOM      6  N   UNL     1      -3.504   2.165   0.102  0.00  0.00    +0.389 N 
ATOM      7  H   UNL     1      -3.397   2.699  -0.768  0.00  0.00    -0.081 HD
ENDROOT
BRANCH   3   8
ATOM      8  S   UNL     1      -6.908   4.258   1.897  0.00  0.00    +0.063 S 
ATOM      9  O   UNL     1      -6.544   5.560   2.332  0.00  0.00    -0.153 OA
ATOM     10  O   UNL     1      -8.109   4.002   1.181  0.00  0.00    -0.153 OA
BRANCH   8  11
ATOM     11  C   UNL     1      -6.953   3.240   3.334  0.00  0.00    +0.140 A 
ATOM     12  C   UNL     1      -6.677   3.784   4.575  0.00  0.00    +0.031 A 
ATOM     13  C   UNL     1      -6.717   2.988   5.704  0.00  0.00    +0.002 A 
ATOM     14  C   UNL     1      -7.023   1.644   5.592  0.00  0.00    +0.003 A 
ATOM     15  C   UNL     1      -7.294   1.097   4.353  0.00  0.00    +0.040 A 
ATOM     16  C   UNL     1      -7.259   1.895   3.222  0.00  0.00    +0.150 A 
ATOM     17  F   UNL     1      -7.524   1.361   2.009  0.00  0.00    -0.203 F 
ENDBRANCH   8  11
ENDBRANCH   3   8
BRANCH   6  19
ATOM     18  C   UNL     1      -2.557   0.327   1.459  0.00  0.00    -0.004 C 
ATOM     19  C   UNL     1      -2.477   1.103   0.143  0.00  0.00    +0.017 C 
BRANCH  19  20
ATOM     20  C   UNL     1      -1.116   1.738   0.017  0.00  0.00    +0.203 C 
ATOM     21  O   UNL     1      -1.015   2.943  -0.077  0.00  0.00    -0.277 OA
ATOM     22  N   UNL     1      -0.011   0.966   0.007  0.00  0.00    -0.286 N 
ATOM     23  H   UNL     1      -0.094  -0.001   0.017  0.00  0.00    +0.155 HD
BRANCH  22  24
ATOM     24  C   UNL     1       1.257   1.559  -0.022  0.00  0.00    +0.053 A 
ATOM     25  C   UNL     1       1.456   2.740  -0.724  0.00  0.00    +0.046 A 
ATOM     26  C   UNL     1       2.708   3.326  -0.747  0.00  0.00    +0.061 A 
ATOM     27  C   UNL     1       3.765   2.730  -0.079  0.00  0.00    +0.061 A 
ATOM     28  C   UNL     1       3.570   1.550   0.616  0.00  0.00    +0.043 A 
ATOM     29  C   UNL     1       2.319   0.963   0.647  0.00  0.00    +0.064 A 
ATOM     30 CL   UNL     1       2.076  -0.517   1.520  0.00  0.00    -0.082 Cl
ATOM     31 CL   UNL     1       5.338   3.465  -0.116  0.00  0.00    -0.082 Cl
ATOM     32 CL   UNL     1       2.956   4.806  -1.619  0.00  0.00    -0.082 Cl
ENDBRANCH  22  24
ENDBRANCH  19  20
ENDBRANCH   6  19
TORSDOF 5
