REMARK  Name = ZINC21158107
REMARK  9 active torsions:
REMARK  status: ('A' for Active; 'I' for Inactive)
REMARK    1  A    between atoms: C_1  and  C_2
REMARK    2  A    between atoms: C_2  and  O_3
REMARK    3  A    between atoms: O_3  and  C_4
REMARK    4  A    between atoms: C_9  and  N_12
REMARK    5  A    between atoms: C_15  and  O_16
REMARK    6  A    between atoms: C_17  and  O_18
REMARK    7  A    between atoms: N_19  and  C_20
REMARK    8  A    between atoms: C_20  and  C_21
REMARK    9  A    between atoms: C_21  and  C_22
REMARK                            x       y       z     vdW  Elec       q    Type
REMARK                         _______ _______ _______ _____ _____    ______ ____
ROOT
ATOM      1  N   UNL     1       1.277  -3.730   6.321  0.00  0.00    -0.275 NA
ATOM      2  C   UNL     1       2.108  -4.211   7.202  0.00  0.00    +0.132 C 
ATOM      3  C   UNL     1       1.990  -4.706   8.603  0.00  0.00    +0.132 C 
ATOM      4  C   UNL     1       3.443  -4.950   8.524  0.00  0.00    +0.188 C 
ATOM      5  C   UNL     1       3.555  -4.498   7.225  0.00  0.00    +0.188 C 
ATOM      6  N   UNL     1       1.044  -4.853   9.486  0.00  0.00    -0.278 NA
ENDROOT
BRANCH   1  12
ATOM      7  C   UNL     1       0.801  -1.812   1.304  0.00  0.00    +0.403 C 
ATOM      8  O   UNL     1       0.321  -2.554   0.470  0.00  0.00    -0.226 OA
ATOM      9  N   UNL     1       1.441  -2.324   2.374  0.00  0.00    -0.267 N 
ATOM     10  C   UNL     1       2.021  -1.440   3.394  0.00  0.00    +0.113 C 
ATOM     11  C   UNL     1       1.483  -1.852   4.768  0.00  0.00    +0.046 C 
ATOM     12  C   UNL     1       1.761  -3.340   4.995  0.00  0.00    +0.109 C 
ATOM     13  C   UNL     1       1.039  -4.164   3.926  0.00  0.00    +0.046 C 
ATOM     14  C   UNL     1       1.567  -3.778   2.546  0.00  0.00    +0.113 C 
BRANCH   7  15
ATOM     15  O   UNL     1       0.693  -0.477   1.160  0.00  0.00    -0.451 OA
BRANCH  15  17
ATOM     16  C   UNL     1      -0.019   1.526   0.010  0.00  0.00    +0.048 C 
ATOM     17  C   UNL     1       0.002  -0.004   0.002  0.00  0.00    +0.230 C 
ENDBRANCH  15  17
ENDBRANCH   7  15
ENDBRANCH   1  12
BRANCH   4  18
ATOM     18  O   UNL     1       4.343  -5.446   9.407  0.00  0.00    -0.502 OA
ATOM     19  H   UNL     1       5.246  -5.490   9.066  0.00  0.00    +0.292 HD
ENDBRANCH   4  18
BRANCH   5  20
ATOM     20  O   UNL     1       4.572  -4.370   6.339  0.00  0.00    -0.502 OA
ATOM     21  H   UNL     1       5.429  -4.660   6.679  0.00  0.00    +0.292 HD
ENDBRANCH   5  20
BRANCH   6  22
ATOM     22  C   UNL     1       1.355  -5.401  10.809  0.00  0.00    +0.146 C 
BRANCH  22  23
ATOM     23  C   UNL     1       1.105  -4.332  11.875  0.00  0.00    +0.053 C 
BRANCH  23  24
ATOM     24  C   UNL     1       1.426  -4.894  13.235  0.00  0.00    -0.072 C 
ATOM     25  C   UNL     1       2.605  -4.673  13.722  0.00  0.00    -0.028 C 
ATOM     26  C   UNL     1       3.073  -5.176  15.056  0.00  0.00    +0.027 C 
ATOM     27  C   UNL     1       1.875  -5.594  15.911  0.00  0.00    +0.004 C 
ATOM     28  C   UNL     1       0.974  -6.508  15.070  0.00  0.00    +0.005 C 
ATOM     29  C   UNL     1       0.357  -5.672  13.945  0.00  0.00    +0.030 C 
ENDBRANCH  23  24
ENDBRANCH  22  23
ENDBRANCH   6  22
TORSDOF 8
