REMARK  Name = ZINC00922687
REMARK  9 active torsions:
REMARK  status: ('A' for Active; 'I' for Inactive)
REMARK    1  A    between atoms: N_9  and  C_10
REMARK    2  A    between atoms: C_10  and  C_11
REMARK    3  A    between atoms: N_13  and  C_14
REMARK    4  A    between atoms: N_13  and  C_21
REMARK    5  A    between atoms: C_21  and  C_23
REMARK    6  A    between atoms: C_21  and  C_35
REMARK    7  A    between atoms: C_26  and  N_29
REMARK    8  A    between atoms: N_37  and  C_38
REMARK    9  A    between atoms: C_38  and  C_39
REMARK                            x       y       z     vdW  Elec       q    Type
REMARK                         _______ _______ _______ _____ _____    ______ ____
ROOT
ATOM      1  C   UNL     1       7.214  -0.269   3.112  0.00  0.00    +0.197 C 
ENDROOT
BRANCH   1   2
ATOM      2  C   UNL     1       8.185  -1.395   3.360  0.00  0.00    -0.018 A 
ATOM      3  C   UNL     1       9.150  -1.693   2.415  0.00  0.00    +0.008 A 
ATOM      4  C   UNL     1      10.042  -2.724   2.638  0.00  0.00    +0.023 A 
ATOM      5  C   UNL     1       9.968  -3.462   3.813  0.00  0.00    +0.030 A 
ATOM      6  C   UNL     1       8.997  -3.160   4.759  0.00  0.00    +0.023 A 
ATOM      7  C   UNL     1       8.112  -2.124   4.532  0.00  0.00    +0.008 A 
BRANCH   5   8
ATOM      8  N   UNL     1      10.867  -4.506   4.042  0.00  0.00    -0.326 N 
ATOM      9  C   UNL     1      10.728  -5.383   5.215  0.00  0.00    +0.133 C 
ATOM     10  C   UNL     1      10.776  -6.839   4.739  0.00  0.00    +0.178 C 
ATOM     11  O   UNL     1      11.943  -7.033   3.936  0.00  0.00    -0.377 OA
ATOM     12  C   UNL     1      11.969  -6.248   2.742  0.00  0.00    +0.178 C 
ATOM     13  C   UNL     1      11.979  -4.765   3.113  0.00  0.00    +0.133 C 
ENDBRANCH   5   8
ENDBRANCH   1   2
BRANCH   1  14
ATOM     14  C   UNL     1       7.970   1.029   2.992  0.00  0.00    +0.239 C 
ATOM     15  O   UNL     1       7.901   1.678   1.970  0.00  0.00    -0.273 OA
ATOM     16  N   UNL     1       8.723   1.468   4.020  0.00  0.00    -0.311 N 
ATOM     17  H   UNL     1       8.778   0.949   4.837  0.00  0.00    +0.149 HD
BRANCH  16  18
ATOM     18  C   UNL     1       9.458   2.730   3.903  0.00  0.00    +0.135 C 
BRANCH  18  19
ATOM     19  C   UNL     1      10.227   2.995   5.199  0.00  0.00    +0.135 C 
ATOM     20  C   UNL     1      10.907   4.379   5.131  0.00  0.00    +0.035 C 
ATOM     21  C   UNL     1      12.275   4.108   5.814  0.00  0.00    +0.031 C 
ATOM     22  C   UNL     1      12.545   2.650   5.363  0.00  0.00    +0.160 C 
ATOM     23  O   UNL     1      11.256   2.012   5.362  0.00  0.00    -0.375 OA
ENDBRANCH  18  19
ENDBRANCH  16  18
ENDBRANCH   1  14
BRANCH   1  26
ATOM     24  C   UNL     1       5.467   0.292   1.509  0.00  0.00    +0.242 C 
ATOM     25  O   UNL     1       5.225   1.285   2.162  0.00  0.00    -0.273 OA
ATOM     26  N   UNL     1       6.478  -0.523   1.871  0.00  0.00    -0.254 N 
BRANCH  26  27
ATOM     27  C   UNL     1       6.824  -1.611   1.062  0.00  0.00    +0.038 A 
ATOM     28  C   UNL     1       6.570  -2.907   1.492  0.00  0.00    +0.026 A 
ATOM     29  C   UNL     1       6.912  -3.979   0.692  0.00  0.00    +0.040 A 
ATOM     30  C   UNL     1       7.509  -3.763  -0.538  0.00  0.00    +0.124 A 
ATOM     31  C   UNL     1       7.764  -2.472  -0.969  0.00  0.00    +0.040 A 
ATOM     32  C   UNL     1       7.418  -1.397  -0.175  0.00  0.00    +0.026 A 
ATOM     33  F   UNL     1       7.845  -4.814  -1.319  0.00  0.00    -0.205 F 
ENDBRANCH  26  27
BRANCH  24  34
ATOM     34  C   UNL     1       4.638  -0.031   0.293  0.00  0.00    +0.242 C 
BRANCH  34  43
ATOM     35  C   UNL     1       2.952   4.580  -1.613  0.00  0.00    +0.002 A 
ATOM     36  C   UNL     1       4.211   4.019  -1.783  0.00  0.00    +0.002 A 
ATOM     37  C   UNL     1       4.513   2.807  -1.228  0.00  0.00    +0.029 A 
ATOM     38  C   UNL     1       3.553   2.128  -0.486  0.00  0.00    +0.090 A 
ATOM     39  C   UNL     1       2.277   2.691  -0.309  0.00  0.00    +0.113 A 
ATOM     40  C   UNL     1       1.993   3.934  -0.889  0.00  0.00    +0.032 A 
ATOM     41  N   UNL     1       1.553   1.836   0.440  0.00  0.00    -0.129 NA
ATOM     42  N   UNL     1       2.255   0.802   0.744  0.00  0.00    -0.064 NA
ATOM     43  N   UNL     1       3.536   0.928   0.185  0.00  0.00    -0.235 N 
ENDBRANCH  34  43
ENDBRANCH  24  34
ENDBRANCH   1  26
TORSDOF 9
