REMARK  Name = ZINC66980875
REMARK  4 active torsions:
REMARK  status: ('A' for Active; 'I' for Inactive)
REMARK    1  A    between atoms: C_1  and  C_2
REMARK    2  A    between atoms: N_15  and  C_16
REMARK    3  A    between atoms: C_18  and  N_24
REMARK    4  A    between atoms: C_25  and  C_27
REMARK                            x       y       z     vdW  Elec       q    Type
REMARK                         _______ _______ _______ _____ _____    ______ ____
ROOT
ATOM      1  C   UNL     1       0.399   1.345  -0.121  0.00  0.00    +0.066 C 
ATOM      2  C   UNL     1       0.196  -0.148  -0.130  0.00  0.00    +0.047 A 
ATOM      3  C   UNL     1      -0.067  -0.819  -1.277  0.00  0.00    +0.071 A 
ATOM      4  S   UNL     1      -0.200  -2.490  -0.662  0.00  0.00    -0.060 S 
ATOM      5  C   UNL     1       0.089  -2.164   0.964  0.00  0.00    +0.161 A 
ATOM      6  N   UNL     1       0.273  -0.861   0.980  0.00  0.00    -0.230 NA
ATOM      7  N   UNL     1       0.130  -3.053   2.026  0.00  0.00    -0.307 N 
ATOM      8  C   UNL     1       0.393  -2.576   3.391  0.00  0.00    +0.126 C 
ATOM      9  C   UNL     1      -0.750  -3.040   4.302  0.00  0.00    +0.128 C 
ATOM     10  N   UNL     1      -0.971  -4.477   4.084  0.00  0.00    -0.282 N 
ATOM     11  C   UNL     1      -1.234  -4.954   2.719  0.00  0.00    +0.128 C 
ATOM     12  C   UNL     1      -0.096  -4.489   1.809  0.00  0.00    +0.126 C 
ATOM     13  C   UNL     1      -0.931  -5.341   5.117  0.00  0.00    +0.307 C 
ATOM     14  O   UNL     1      -0.623  -4.949   6.226  0.00  0.00    -0.252 OA
ATOM     15  N   UNL     1      -1.234  -6.640   4.921  0.00  0.00    -0.267 N 
ATOM     16  H   UNL     1      -1.415  -6.966   4.026  0.00  0.00    +0.156 HD
ENDROOT
BRANCH  15  17
ATOM     17  C   UNL     1      -1.288  -7.519   6.012  0.00  0.00    +0.072 A 
ATOM     18  C   UNL     1      -1.409  -7.020   7.301  0.00  0.00    +0.052 A 
ATOM     19  C   UNL     1      -1.463  -7.892   8.378  0.00  0.00    +0.071 A 
ATOM     20  C   UNL     1      -1.396  -9.264   8.164  0.00  0.00    +0.147 A 
ATOM     21  C   UNL     1      -1.276  -9.760   6.878  0.00  0.00    +0.080 A 
ATOM     22  C   UNL     1      -1.228  -8.892   5.802  0.00  0.00    +0.147 A 
ATOM     23  F   UNL     1      -1.116  -9.379   4.547  0.00  0.00    -0.203 F 
ATOM     24  F   UNL     1      -1.449 -10.114   9.213  0.00  0.00    -0.203 F 
BRANCH  19  25
ATOM     25  N   UNL     1      -1.584  -7.390   9.681  0.00  0.00    -0.283 N 
ATOM     26  C   UNL     1      -2.106  -6.165   9.885  0.00  0.00    +0.214 C 
ATOM     27  O   UNL     1      -2.557  -5.534   8.952  0.00  0.00    -0.276 OA
ATOM     28  C   UNL     1      -2.129  -5.577  11.273  0.00  0.00    +0.109 C 
ATOM     29  H   UNL     1      -1.292  -7.925  10.435  0.00  0.00    +0.155 HD
ENDBRANCH  19  25
ENDBRANCH  15  17
TORSDOF 2
