REMARK  Name = ZINC50631029
REMARK  5 active torsions:
REMARK  status: ('A' for Active; 'I' for Inactive)
REMARK    1  A    between atoms: C_1  and  C_2
REMARK    2  A    between atoms: N_7  and  S_8
REMARK    3  A    between atoms: S_8  and  C_11
REMARK    4  A    between atoms: C_12  and  N_19
REMARK    5  A    between atoms: N_19  and  C_20
REMARK                            x       y       z     vdW  Elec       q    Type
REMARK                         _______ _______ _______ _____ _____    ______ ____
ROOT
ATOM      1  C   UNL     1      -0.795  -1.484   3.264  0.00  0.00    +0.221 A 
ATOM      2  C   UNL     1      -2.139  -1.472   3.150  0.00  0.00    +0.166 A 
ATOM      3  N   UNL     1      -2.614  -2.628   3.644  0.00  0.00    -0.204 NA
ATOM      4  C   UNL     1      -1.615  -3.354   4.060  0.00  0.00    +0.181 A 
ATOM      5  N   UNL     1      -0.432  -2.700   3.848  0.00  0.00    -0.276 N 
ATOM      6  C   UNL     1       0.720  -3.351   4.234  0.00  0.00    +0.102 A 
ATOM      7  C   UNL     1       0.666  -4.564   4.784  0.00  0.00    +0.067 A 
ATOM      8  S   UNL     1      -1.092  -4.880   4.807  0.00  0.00    -0.058 S 
ENDROOT
BRANCH   1   9
ATOM      9  S   UNL     1       0.303  -0.201   2.761  0.00  0.00    +0.080 S 
ATOM     10  O   UNL     1       1.488  -0.356   3.530  0.00  0.00    -0.151 OA
ATOM     11  O   UNL     1      -0.451   1.003   2.760  0.00  0.00    -0.151 OA
BRANCH   9  17
ATOM     12  C   UNL     1      -0.019   1.526   0.010  0.00  0.00    +0.026 C 
ATOM     13  C   UNL     1       0.002  -0.004   0.002  0.00  0.00    +0.077 C 
ATOM     14  C   UNL     1       0.760  -0.512  -1.242  0.00  0.00    +0.021 C 
ATOM     15  C   UNL     1       2.183  -0.793  -0.692  0.00  0.00    +0.019 C 
ATOM     16  C   UNL     1       1.869  -1.310   0.734  0.00  0.00    +0.110 C 
ATOM     17  N   UNL     1       0.718  -0.501   1.186  0.00  0.00    -0.172 NA
ENDBRANCH   9  17
ENDBRANCH   1   9
BRANCH   2  18
ATOM     18  N   UNL     1      -2.909  -0.431   2.608  0.00  0.00    -0.329 N 
ATOM     19  C   UNL     1      -4.368  -0.555   2.546  0.00  0.00    +0.127 C 
ATOM     20  H   UNL     1      -2.476   0.369   2.273  0.00  0.00    +0.147 HD
ENDBRANCH   2  18
TORSDOF 3
