REMARK  Name = ZINC39635305
REMARK  4 active torsions:
REMARK  status: ('A' for Active; 'I' for Inactive)
REMARK    1  A    between atoms: C_1  and  C_2
REMARK    2  A    between atoms: C_5  and  C_10
REMARK    3  A    between atoms: C_14  and  C_23
REMARK    4  A    between atoms: N_25  and  C_26
REMARK                            x       y       z     vdW  Elec       q    Type
REMARK                         _______ _______ _______ _____ _____    ______ ____
ROOT
ATOM      1  C   UNL     1       0.132  -4.054  -0.085  0.00  0.00    +0.250 C 
ATOM      2  O   UNL     1       0.169  -4.633   0.983  0.00  0.00    -0.270 OA
ATOM      3  N   UNL     1      -0.018  -4.754  -1.227  0.00  0.00    -0.296 N 
ATOM      4  C   UNL     1       0.021  -4.244  -2.618  0.00  0.00    +0.121 C 
ATOM      5  C   UNL     1       0.779  -5.332  -3.412  0.00  0.00    +0.100 C 
ATOM      6  C   UNL     1       0.589  -6.619  -2.592  0.00  0.00    -0.004 C 
ATOM      7  C   UNL     1      -0.254  -6.210  -1.375  0.00  0.00    +0.115 C 
ATOM      8  C   UNL     1       1.940  -7.158  -2.133  0.00  0.00    -0.010 C 
ATOM      9  C   UNL     1       1.730  -8.468  -1.369  0.00  0.00    -0.082 C 
ATOM     10  N   UNL     1       1.062  -9.443  -2.241  0.00  0.00    +0.379 N 
ATOM     11  C   UNL     1      -0.275  -8.958  -2.603  0.00  0.00    -0.082 C 
ATOM     12  C   UNL     1      -0.149  -7.668  -3.418  0.00  0.00    -0.010 C 
ATOM     13  H   UNL     1       1.609  -9.573  -3.079  0.00  0.00    -0.086 HD
ATOM     14  H   UNL     1       0.979 -10.324  -1.757  0.00  0.00    -0.086 HD
ENDROOT
BRANCH   1  19
ATOM     15  C   UNL     1       0.593   1.681  -0.272  0.00  0.00    +0.047 C 
ATOM     16  C   UNL     1       0.474   0.180  -0.222  0.00  0.00    -0.012 A 
ATOM     17  C   UNL     1      -0.328  -0.479  -1.138  0.00  0.00    +0.007 A 
ATOM     18  C   UNL     1      -0.443  -1.852  -1.099  0.00  0.00    +0.016 A 
ATOM     19  C   UNL     1       0.252  -2.582  -0.132  0.00  0.00    +0.075 A 
ATOM     20  C   UNL     1       1.062  -1.914   0.791  0.00  0.00    +0.171 A 
ATOM     21  C   UNL     1       1.172  -0.534   0.736  0.00  0.00    +0.162 A 
ATOM     22  F   UNL     1       1.958   0.115   1.623  0.00  0.00    -0.202 F 
ATOM     23  F   UNL     1       1.738  -2.612   1.729  0.00  0.00    -0.202 F 
ENDBRANCH   1  19
BRANCH   5  24
ATOM     24  C   UNL     1       0.182  -5.489  -4.786  0.00  0.00    +0.218 C 
ATOM     25  O   UNL     1      -1.000  -5.284  -4.961  0.00  0.00    -0.275 OA
ATOM     26  N   UNL     1       0.962  -5.858  -5.822  0.00  0.00    -0.312 N 
ATOM     27  H   UNL     1       1.908  -6.022  -5.681  0.00  0.00    +0.149 HD
BRANCH  26  28
ATOM     28  C   UNL     1       0.382  -6.011  -7.158  0.00  0.00    +0.073 C 
ATOM     29  C   UNL     1       0.256  -7.476  -7.611  0.00  0.00    +0.022 C 
ATOM     30  C   UNL     1       0.699  -7.001  -9.004  0.00  0.00    +0.004 C 
ATOM     31  C   UNL     1       1.401  -5.830  -8.296  0.00  0.00    +0.022 C 
ENDBRANCH  26  28
ENDBRANCH   5  24
TORSDOF 3
