REMARK  Name = ZINC03335281
REMARK  4 active torsions:
REMARK  status: ('A' for Active; 'I' for Inactive)
REMARK    1  A    between atoms: C_4  and  O_22
REMARK    2  A    between atoms: C_5  and  N_7
REMARK    3  A    between atoms: C_13  and  C_15
REMARK    4  A    between atoms: C_16  and  C_17
REMARK                            x       y       z     vdW  Elec       q    Type
REMARK                         _______ _______ _______ _____ _____    ______ ____
ROOT
ATOM      1  N   UNL     1       3.371   3.256   0.987  0.00  0.00    -0.324 N 
ATOM      2  C   UNL     1       3.245   1.812   1.229  0.00  0.00    +0.124 C 
ATOM      3  C   UNL     1       2.419   1.179   0.105  0.00  0.00    +0.127 C 
ATOM      4  N   UNL     1       1.144   1.904  -0.004  0.00  0.00    -0.295 N 
ATOM      5  C   UNL     1       1.185   3.370  -0.117  0.00  0.00    +0.127 C 
ATOM      6  C   UNL     1       2.060   3.917   1.022  0.00  0.00    +0.124 C 
ATOM      7  C   UNL     1      -0.030   1.243  -0.004  0.00  0.00    +0.240 C 
ATOM      8  O   UNL     1      -1.078   1.863   0.007  0.00  0.00    -0.271 OA
ENDROOT
BRANCH   1  13
ATOM      9  C   UNL     1       4.657   5.331   3.737  0.00  0.00    +0.002 A 
ATOM     10  C   UNL     1       6.000   5.005   3.709  0.00  0.00    +0.004 A 
ATOM     11  C   UNL     1       6.476   4.099   2.780  0.00  0.00    +0.047 A 
ATOM     12  C   UNL     1       5.607   3.515   1.873  0.00  0.00    +0.138 A 
ATOM     13  C   UNL     1       4.253   3.843   1.901  0.00  0.00    +0.072 A 
ATOM     14  C   UNL     1       3.784   4.756   2.833  0.00  0.00    +0.027 A 
BRANCH  12  15
ATOM     15  O   UNL     1       6.075   2.624   0.958  0.00  0.00    -0.505 OA
ATOM     16  H   UNL     1       6.358   3.027   0.126  0.00  0.00    +0.292 HD
ENDBRANCH  12  15
ENDBRANCH   1  13
BRANCH   7  17
ATOM     17  C   UNL     1      -0.045  -0.173  -0.012  0.00  0.00    +0.071 C 
ATOM     18  C   UNL     1      -1.223  -0.838  -0.108  0.00  0.00    +0.051 C 
BRANCH  18  19
ATOM     19  C   UNL     1      -1.239  -2.254  -0.116  0.00  0.00    +0.128 A 
ATOM     20  C   UNL     1      -2.359  -3.054  -0.202  0.00  0.00    +0.049 A 
ATOM     21  C   UNL     1      -1.904  -4.381  -0.178  0.00  0.00    +0.042 A 
ATOM     22  C   UNL     1      -0.557  -4.340  -0.071  0.00  0.00    +0.195 A 
ATOM     23  O   UNL     1      -0.160  -3.061  -0.034  0.00  0.00    -0.464 OA
ENDBRANCH  18  19
ENDBRANCH   7  17
TORSDOF 4
