REMARK  Name = ZINC00072507
REMARK  4 active torsions:
REMARK  status: ('A' for Active; 'I' for Inactive)
REMARK    1  A    between atoms: C_4  and  C_7
REMARK    2  A    between atoms: C_7  and  O_9
REMARK    3  A    between atoms: O_9  and  C_10
REMARK    4  A    between atoms: C_13  and  C_16
REMARK                            x       y       z     vdW  Elec       q    Type
REMARK                         _______ _______ _______ _____ _____    ______ ____
ROOT
ATOM      1  C   UNL     1       4.878  -2.735  -0.095  0.00  0.00    +0.132 A 
ATOM      2  C   UNL     1       6.095  -2.068  -0.061  0.00  0.00    +0.047 A 
ATOM      3  C   UNL     1       7.275  -2.780  -0.111  0.00  0.00    +0.013 A 
ATOM      4  C   UNL     1       7.245  -4.171  -0.196  0.00  0.00    +0.002 A 
ATOM      5  C   UNL     1       6.021  -4.838  -0.230  0.00  0.00    +0.013 A 
ATOM      6  C   UNL     1       4.844  -4.121  -0.174  0.00  0.00    +0.047 A 
ENDROOT
BRANCH   4   7
ATOM      7  C   UNL     1       8.512  -4.940  -0.250  0.00  0.00    +0.090 A 
ATOM      8  C   UNL     1       8.623  -6.285  -0.338  0.00  0.00    +0.116 A 
ATOM      9  N   UNL     1       9.980  -6.592  -0.377  0.00  0.00    -0.324 N 
ATOM     10  C   UNL     1      10.627  -5.395  -0.279  0.00  0.00    +0.170 A 
ATOM     11  N   UNL     1       9.763  -4.419  -0.227  0.00  0.00    -0.222 NA
ATOM     12  S   UNL     1      12.368  -5.769  -0.262  0.00  0.00    -0.086 S 
ATOM     13  C   UNL     1      12.240  -7.587   0.008  0.00  0.00    +0.099 C 
ATOM     14  C   UNL     1      10.796  -7.805  -0.501  0.00  0.00    +0.135 C 
ENDBRANCH   4   7
BRANCH   1  15
ATOM     15  O   UNL     1       3.716  -2.031  -0.046  0.00  0.00    -0.422 OA
BRANCH  15  16
ATOM     16  C   UNL     1       3.307  -1.407  -1.167  0.00  0.00    +0.344 C 
ATOM     17  O   UNL     1       4.013  -1.409  -2.156  0.00  0.00    -0.245 OA
BRANCH  16  21
ATOM     18  C   UNL     1      -0.453   0.566  -1.248  0.00  0.00    +0.000 A 
ATOM     19  C   UNL     1       0.349   0.566  -2.375  0.00  0.00    +0.001 A 
ATOM     20  C   UNL     1       1.571  -0.073  -2.356  0.00  0.00    +0.015 A 
ATOM     21  C   UNL     1       1.999  -0.720  -1.195  0.00  0.00    +0.059 A 
ATOM     22  C   UNL     1       1.185  -0.716  -0.061  0.00  0.00    +0.015 A 
ATOM     23  C   UNL     1      -0.035  -0.073  -0.094  0.00  0.00    +0.001 A 
ENDBRANCH  16  21
ENDBRANCH  15  16
ENDBRANCH   1  15
TORSDOF 4
