REMARK  Name = ZINC40513668
REMARK  4 active torsions:
REMARK  status: ('A' for Active; 'I' for Inactive)
REMARK    1  A    between atoms: C_1  and  O_2
REMARK    2  A    between atoms: O_2  and  C_3
REMARK    3  A    between atoms: C_8  and  N_9
REMARK    4  A    between atoms: C_15  and  C_17
REMARK                            x       y       z     vdW  Elec       q    Type
REMARK                         _______ _______ _______ _____ _____    ______ ____
ROOT
ATOM      1  N   UNL     1      -0.338  -2.376   0.347  0.00  0.00    -0.324 N 
ATOM      2  C   UNL     1      -1.622  -3.039   0.080  0.00  0.00    +0.124 C 
ATOM      3  C   UNL     1      -1.392  -4.555   0.045  0.00  0.00    +0.127 C 
ATOM      4  N   UNL     1      -0.630  -4.942   1.241  0.00  0.00    -0.293 N 
ATOM      5  C   UNL     1       0.654  -4.278   1.508  0.00  0.00    +0.127 C 
ATOM      6  C   UNL     1       0.426  -2.766   1.540  0.00  0.00    +0.124 C 
ATOM      7  C   UNL     1      -1.101  -5.888   2.078  0.00  0.00    +0.267 C 
ATOM      8  O   UNL     1      -2.218  -6.340   1.918  0.00  0.00    -0.268 OA
ENDROOT
BRANCH   1  14
ATOM      9  C   UNL     1      -0.172  -0.054  -0.315  0.00  0.00    +0.141 A 
ATOM     10  C   UNL     1       0.319   0.914  -1.174  0.00  0.00    +0.047 A 
ATOM     11  C   UNL     1       1.123   0.551  -2.239  0.00  0.00    +0.004 A 
ATOM     12  C   UNL     1       1.439  -0.778  -2.449  0.00  0.00    +0.002 A 
ATOM     13  C   UNL     1       0.953  -1.751  -1.595  0.00  0.00    +0.027 A 
ATOM     14  C   UNL     1       0.151  -1.393  -0.522  0.00  0.00    +0.072 A 
BRANCH   9  16
ATOM     15  C   UNL     1      -1.252   1.694   0.884  0.00  0.00    +0.277 C 
ATOM     16  O   UNL     1      -0.963   0.302   0.733  0.00  0.00    -0.493 OA
ENDBRANCH   9  16
ENDBRANCH   1  14
BRANCH   7  17
ATOM     17  C   UNL     1      -0.259  -6.375   3.190  0.00  0.00    +0.147 A 
ATOM     18  C   UNL     1      -0.658  -7.252   4.226  0.00  0.00    +0.054 A 
ATOM     19  C   UNL     1       0.437  -7.413   5.005  0.00  0.00    +0.105 A 
ATOM     20  N   UNL     1       1.427  -6.674   4.461  0.00  0.00    -0.284 N 
ATOM     21  H   UNL     1       2.328  -6.605   4.816  0.00  0.00    +0.188 HD
ATOM     22  N   UNL     1       1.008  -6.081   3.402  0.00  0.00    -0.169 NA
ENDBRANCH   7  17
TORSDOF 3
