REMARK  Name = ZINC13565767
REMARK  10 active torsions:
REMARK  status: ('A' for Active; 'I' for Inactive)
REMARK    1  A    between atoms: C_1  and  C_2
REMARK    2  A    between atoms: C_3  and  C_21
REMARK    3  A    between atoms: N_7  and  C_8
REMARK    4  A    between atoms: C_8  and  C_10
REMARK    5  A    between atoms: C_10  and  N_11
REMARK    6  A    between atoms: C_30  and  C_32
REMARK    7  A    between atoms: C_32  and  C_33
REMARK    8  A    between atoms: C_33  and  C_34
REMARK    9  A    between atoms: C_33  and  C_35
REMARK   10  A    between atoms: C_33  and  C_36
REMARK                            x       y       z     vdW  Elec       q    Type
REMARK                         _______ _______ _______ _____ _____    ______ ____
ROOT
ATOM      1  C   UNL     1      -0.009   1.500   0.116  0.00  0.00    +0.054 C 
ATOM      2  C   UNL     1       0.006  -0.005   0.050  0.00  0.00    +0.014 A 
ATOM      3  C   UNL     1      -1.032  -0.870   0.093  0.00  0.00    +0.058 A 
ATOM      4  N   UNL     1      -0.731  -2.200   0.011  0.00  0.00    -0.335 N 
ATOM      5  C   UNL     1       0.572  -2.571  -0.108  0.00  0.00    +0.164 A 
ATOM      6  S   UNL     1       1.398  -1.107  -0.116  0.00  0.00    -0.057 S 
ATOM      7  N   UNL     1       1.074  -3.803  -0.202  0.00  0.00    -0.155 NA
ATOM      8  H   UNL     1      -1.434  -2.868   0.037  0.00  0.00    +0.168 HD
ENDROOT
BRANCH   3   9
ATOM      9  C   UNL     1      -2.428  -0.398   0.225  0.00  0.00    -0.001 A 
ATOM     10  C   UNL     1      -2.901   0.634  -0.587  0.00  0.00    +0.012 A 
ATOM     11  C   UNL     1      -4.199   1.070  -0.462  0.00  0.00    +0.024 A 
ATOM     12  C   UNL     1      -5.056   0.486   0.475  0.00  0.00    +0.040 A 
ATOM     13  C   UNL     1      -4.583  -0.540   1.280  0.00  0.00    -0.024 A 
ATOM     14  C   UNL     1      -3.284  -0.987   1.157  0.00  0.00    +0.015 A 
ATOM     15  C   UNL     1      -5.700  -0.989   2.195  0.00  0.00    +0.056 C 
ATOM     16  C   UNL     1      -6.891  -0.091   1.821  0.00  0.00    +0.118 C 
ATOM     17  N   UNL     1      -6.394   0.782   0.754  0.00  0.00    -0.271 N 
ATOM     18  C   UNL     1      -7.121   1.732   0.132  0.00  0.00    +0.220 C 
ATOM     19  O   UNL     1      -8.278   1.913   0.447  0.00  0.00    -0.275 OA
BRANCH  18  20
ATOM     20  C   UNL     1      -6.496   2.568  -0.955  0.00  0.00    +0.102 C 
BRANCH  20  21
ATOM     21  C   UNL     1      -7.528   3.562  -1.491  0.00  0.00    -0.029 C 
ATOM     22  C   UNL     1      -7.997   4.472  -0.354  0.00  0.00    +0.011 C 
ATOM     23  C   UNL     1      -6.893   4.411  -2.594  0.00  0.00    +0.011 C 
ATOM     24  C   UNL     1      -8.724   2.798  -2.060  0.00  0.00    +0.011 C 
ENDBRANCH  20  21
ENDBRANCH  18  20
ENDBRANCH   3   9
BRANCH   7  25
ATOM     25  C   UNL     1       2.385  -3.979  -0.313  0.00  0.00    +0.252 C 
ATOM     26  O   UNL     1       3.128  -3.016  -0.330  0.00  0.00    -0.272 OA
BRANCH  25  27
ATOM     27  C   UNL     1       2.953  -5.371  -0.419  0.00  0.00    +0.183 C 
BRANCH  27  28
ATOM     28  N   UNL     1       4.415  -5.296  -0.531  0.00  0.00    -0.289 NA
ATOM     29  C   UNL     1       4.988  -6.613  -0.851  0.00  0.00    +0.090 C 
ATOM     30  C   UNL     1       6.432  -6.416  -1.313  0.00  0.00    +0.051 C 
ATOM     31  C   UNL     1       7.177  -5.559  -0.321  0.00  0.00    -0.042 A 
ATOM     32  C   UNL     1       8.563  -5.556  -0.359  0.00  0.00    +0.004 A 
ATOM     33  C   UNL     1       9.283  -4.783   0.529  0.00  0.00    +0.000 A 
ATOM     34  C   UNL     1       8.619  -4.007   1.461  0.00  0.00    +0.000 A 
ATOM     35  C   UNL     1       7.240  -4.011   1.501  0.00  0.00    +0.005 A 
ATOM     36  C   UNL     1       6.514  -4.790   0.611  0.00  0.00    -0.030 A 
ATOM     37  C   UNL     1       5.011  -4.769   0.701  0.00  0.00    +0.120 C 
ENDBRANCH  27  28
ENDBRANCH  25  27
ENDBRANCH   7  25
TORSDOF 6
