REMARK  Name = ZINC23375370
REMARK  14 active torsions:
REMARK  status: ('A' for Active; 'I' for Inactive)
REMARK    1  A    between atoms: C_1  and  N_2
REMARK    2  A    between atoms: N_5  and  C_8
REMARK    3  A    between atoms: C_8  and  C_9
REMARK    4  A    between atoms: C_9  and  C_11
REMARK    5  A    between atoms: C_9  and  O_31
REMARK    6  A    between atoms: C_11  and  O_12
REMARK    7  A    between atoms: O_12  and  C_13
REMARK    8  A    between atoms: C_15  and  C_21
REMARK    9  A    between atoms: C_18  and  O_19
REMARK   10  A    between atoms: O_19  and  C_20
REMARK   11  A    between atoms: C_21  and  N_22
REMARK   12  A    between atoms: C_25  and  C_28
REMARK   13  A    between atoms: C_28  and  C_29
REMARK   14  A    between atoms: C_29  and  O_30
REMARK                            x       y       z     vdW  Elec       q    Type
REMARK                         _______ _______ _______ _____ _____    ______ ____
ROOT
ATOM      1  C   UNL     1       3.398  -7.758   2.337  0.00  0.00    +0.162 A 
ATOM      2  C   UNL     1       2.837  -8.628   1.416  0.00  0.00    +0.051 A 
ATOM      3  C   UNL     1       3.009  -9.992   1.560  0.00  0.00    -0.060 A 
ATOM      4  C   UNL     1       3.740 -10.492   2.622  0.00  0.00    +0.005 A 
ATOM      5  C   UNL     1       4.302  -9.630   3.545  0.00  0.00    +0.049 A 
ATOM      6  C   UNL     1       4.138  -8.261   3.403  0.00  0.00    +0.162 A 
ENDROOT
BRANCH   6   7
ATOM      7  O   UNL     1       4.696  -7.411   4.307  0.00  0.00    -0.491 OA
ATOM      8  C   UNL     1       5.442  -7.998   5.375  0.00  0.00    +0.277 C 
ENDBRANCH   6   7
BRANCH   1   9
ATOM      9  O   UNL     1       3.231  -6.416   2.197  0.00  0.00    -0.486 OA
BRANCH   9  10
ATOM     10  C   UNL     1       2.459  -5.972   1.079  0.00  0.00    +0.261 C 
BRANCH  10  11
ATOM     11  C   UNL     1       2.381  -4.444   1.088  0.00  0.00    +0.166 C 
BRANCH  11  12
ATOM     12  O   UNL     1       3.686  -3.899   0.887  0.00  0.00    -0.387 OA
ATOM     13  H   UNL     1       4.096  -4.159   0.051  0.00  0.00    +0.210 HD
ENDBRANCH  11  12
BRANCH  11  14
ATOM     14  C   UNL     1       1.453  -3.974  -0.034  0.00  0.00    +0.119 C 
BRANCH  14  19
ATOM     15  C   UNL     1      -0.018   1.465   0.010  0.00  0.00    -0.096 C 
ATOM     16  N   UNL     1       0.002  -0.004   0.002  0.00  0.00    +0.379 N 
ATOM     17  C   UNL     1       0.688  -0.477  -1.207  0.00  0.00    -0.064 C 
ATOM     18  C   UNL     1       0.693  -2.008  -1.226  0.00  0.00    +0.066 C 
ATOM     19  N   UNL     1       1.378  -2.507  -0.025  0.00  0.00    -0.303 NA
ATOM     20  C   UNL     1       0.717  -2.021   1.194  0.00  0.00    +0.066 C 
ATOM     21  C   UNL     1       0.713  -0.490   1.192  0.00  0.00    -0.064 C 
ATOM     22  H   UNL     1      -0.945  -0.353   0.010  0.00  0.00    -0.082 HD
ENDBRANCH  14  19
ENDBRANCH  11  14
ENDBRANCH  10  11
ENDBRANCH   9  10
ENDBRANCH   1   9
BRANCH   3  23
ATOM     23  C   UNL     1       2.399 -10.937   0.557  0.00  0.00    -0.043 C 
BRANCH  23  24
ATOM     24  N   UNL     1       3.354 -11.179  -0.532  0.00  0.00    +0.382 N 
ATOM     25  C   UNL     1       4.534 -11.872  -0.002  0.00  0.00    -0.078 C 
ATOM     26  C   UNL     1       5.567 -12.055  -1.115  0.00  0.00    -0.015 C 
ATOM     27  C   UNL     1       4.950 -12.885  -2.245  0.00  0.00    -0.012 C 
ATOM     28  C   UNL     1       3.679 -12.189  -2.741  0.00  0.00    -0.015 C 
ATOM     29  C   UNL     1       2.716 -12.002  -1.567  0.00  0.00    -0.078 C 
ATOM     30  H   UNL     1       3.636 -10.297  -0.933  0.00  0.00    -0.081 HD
BRANCH  27  31
ATOM     31  C   UNL     1       5.950 -13.004  -3.397  0.00  0.00    +0.031 C 
BRANCH  31  32
ATOM     32  C   UNL     1       5.383 -13.935  -4.470  0.00  0.00    +0.156 C 
BRANCH  32  33
ATOM     33  O   UNL     1       6.317 -14.047  -5.546  0.00  0.00    -0.395 OA
ATOM     34  H   UNL     1       6.023 -14.623  -6.264  0.00  0.00    +0.209 HD
ENDBRANCH  32  33
ENDBRANCH  31  32
ENDBRANCH  27  31
ENDBRANCH  23  24
ENDBRANCH   3  23
TORSDOF 12
