REMARK  Name = ZINC14254156
REMARK  6 active torsions:
REMARK  status: ('A' for Active; 'I' for Inactive)
REMARK    1  A    between atoms: C_10  and  O_12
REMARK    2  A    between atoms: O_12  and  C_13
REMARK    3  A    between atoms: C_13  and  C_14
REMARK    4  A    between atoms: C_14  and  C_16
REMARK    5  A    between atoms: C_14  and  O_28
REMARK    6  A    between atoms: C_16  and  N_17
REMARK                            x       y       z     vdW  Elec       q    Type
REMARK                         _______ _______ _______ _____ _____    ______ ____
ROOT
ATOM      1  C   UNL     1      -0.594   1.793   1.293  0.00  0.00    +0.158 C 
ENDROOT
BRANCH   1   2
ATOM      2  O   UNL     1      -0.679   3.214   1.423  0.00  0.00    -0.388 OA
ATOM      3  H   UNL     1       0.178   3.653   1.507  0.00  0.00    +0.210 HD
ENDBRANCH   1   2
BRANCH   1   4
ATOM      4  C   UNL     1       0.094   1.208   2.527  0.00  0.00    +0.193 C 
BRANCH   4   5
ATOM      5  O   UNL     1      -0.721   1.434   3.679  0.00  0.00    -0.369 OA
BRANCH   5  15
ATOM      6  C   UNL     1      -3.423  -0.180   7.449  0.00  0.00    +0.000 A 
ATOM      7  C   UNL     1      -3.466  -0.454   6.095  0.00  0.00    +0.000 A 
ATOM      8  C   UNL     1      -2.406  -0.091   5.289  0.00  0.00    +0.006 A 
ATOM      9  C   UNL     1      -1.296   0.547   5.827  0.00  0.00    -0.016 A 
ATOM     10  C   UNL     1      -1.256   0.824   7.175  0.00  0.00    -0.042 A 
ATOM     11  C   UNL     1      -2.323   0.456   7.985  0.00  0.00    +0.004 A 
ATOM     12  C   UNL     1      -0.089   1.520   7.825  0.00  0.00    +0.035 C 
ATOM     13  C   UNL     1       1.141   1.465   6.921  0.00  0.00    +0.007 C 
ATOM     14  C   UNL     1       0.738   1.958   5.526  0.00  0.00    +0.037 C 
ATOM     15  C   UNL     1      -0.173   0.910   4.891  0.00  0.00    +0.149 C 
ENDBRANCH   5  15
ENDBRANCH   4   5
ENDBRANCH   1   4
BRANCH   1  16
ATOM     16  C   UNL     1       0.217   1.443   0.043  0.00  0.00    +0.151 C 
BRANCH  16  17
ATOM     17  N   UNL     1      -0.443   2.003  -1.139  0.00  0.00    -0.222 N 
ATOM     18  C   UNL     1      -1.369   1.350  -1.873  0.00  0.00    +0.247 C 
ATOM     19  O   UNL     1      -1.799   0.232  -1.688  0.00  0.00    -0.273 OA
ATOM     20  C   UNL     1      -1.756   2.309  -2.970  0.00  0.00    +0.113 C 
ATOM     21  C   UNL     1      -1.462   1.708  -4.351  0.00  0.00    +0.035 C 
ATOM     22  C   UNL     1      -2.836   1.165  -4.824  0.00  0.00    +0.003 C 
ATOM     23  C   UNL     1      -3.828   2.232  -4.295  0.00  0.00    +0.003 C 
ATOM     24  C   UNL     1      -3.249   2.641  -2.922  0.00  0.00    +0.035 C 
ATOM     25  N   UNL     1      -0.936   3.497  -2.725  0.00  0.00    -0.285 N 
ATOM     26  C   UNL     1      -0.197   3.225  -1.630  0.00  0.00    +0.309 C 
ATOM     27  O   UNL     1       0.602   4.002  -1.144  0.00  0.00    -0.252 OA
ATOM     28  H   UNL     1      -0.926   4.315  -3.245  0.00  0.00    +0.151 HD
ENDBRANCH  16  17
ENDBRANCH   1  16
TORSDOF 6
