REMARK  Name = ZINC60156185
REMARK  13 active torsions:
REMARK  status: ('A' for Active; 'I' for Inactive)
REMARK    1  A    between atoms: C_1  and  C_2
REMARK    2  A    between atoms: N_5  and  C_8
REMARK    3  A    between atoms: C_8  and  C_10
REMARK    4  A    between atoms: C_8  and  C_11
REMARK    5  A    between atoms: C_11  and  N_12
REMARK    6  A    between atoms: C_13  and  C_15
REMARK    7  A    between atoms: C_15  and  C_17
REMARK    8  A    between atoms: C_15  and  N_18
REMARK    9  A    between atoms: C_19  and  O_21
REMARK   10  A    between atoms: O_21  and  C_22
REMARK   11  A    between atoms: C_22  and  C_23
REMARK   12  A    between atoms: C_22  and  C_24
REMARK   13  A    between atoms: C_22  and  C_25
REMARK                            x       y       z     vdW  Elec       q    Type
REMARK                         _______ _______ _______ _____ _____    ______ ____
ROOT
ATOM      1  N   UNL     1       1.651  -3.736  -2.468  0.00  0.00    -0.315 N 
ATOM      2  C   UNL     1       1.989  -4.060  -3.732  0.00  0.00    +0.233 C 
ATOM      3  O   UNL     1       2.878  -4.858  -3.937  0.00  0.00    -0.274 OA
ATOM      4  H   UNL     1       0.939  -3.098  -2.305  0.00  0.00    +0.149 HD
ENDROOT
BRANCH   2   5
ATOM      5  C   UNL     1       1.261  -3.429  -4.892  0.00  0.00    +0.159 C 
ATOM      6  C   UNL     1       1.437  -1.910  -4.839  0.00  0.00    +0.038 C 
BRANCH   5   7
ATOM      7  N   UNL     1       1.810  -3.942  -6.150  0.00  0.00    -0.270 N 
ATOM      8  C   UNL     1       1.052  -3.945  -7.264  0.00  0.00    +0.401 C 
ATOM      9  O   UNL     1      -0.086  -3.523  -7.226  0.00  0.00    -0.226 OA
ATOM     10  H   UNL     1       2.720  -4.278  -6.180  0.00  0.00    +0.153 HD
BRANCH   8  11
ATOM     11  O   UNL     1       1.557  -4.416  -8.420  0.00  0.00    -0.445 OA
BRANCH  11  12
ATOM     12  C   UNL     1       0.698  -4.389  -9.562  0.00  0.00    +0.107 C 
ATOM     13  C   UNL     1       0.281  -2.946  -9.852  0.00  0.00    +0.055 C 
ATOM     14  C   UNL     1       1.440  -4.959 -10.772  0.00  0.00    +0.055 C 
ATOM     15  C   UNL     1      -0.547  -5.233  -9.283  0.00  0.00    +0.055 C 
ENDBRANCH  11  12
ENDBRANCH   8  11
ENDBRANCH   5   7
ENDBRANCH   2   5
BRANCH   1  16
ATOM     16  C   UNL     1       2.358  -4.349  -1.341  0.00  0.00    +0.089 C 
BRANCH  16  17
ATOM     17  C   UNL     1       1.709  -3.904  -0.029  0.00  0.00    -0.054 C 
ATOM     18  C   UNL     1       2.499  -4.475   1.150  0.00  0.00    -0.012 C 
BRANCH  17  23
ATOM     19  C   UNL     1       2.260   1.619   1.282  0.00  0.00    +0.007 C 
ATOM     20  C   UNL     1       2.320   0.091   1.323  0.00  0.00    -0.018 C 
ATOM     21  C   UNL     1       0.899  -0.479   1.276  0.00  0.00    -0.016 C 
ATOM     22  C   UNL     1       0.970  -2.007   1.237  0.00  0.00    -0.078 C 
ATOM     23  N   UNL     1       1.711  -2.437   0.045  0.00  0.00    +0.382 N 
ATOM     24  C   UNL     1       3.095  -1.954   0.119  0.00  0.00    -0.078 C 
ATOM     25  C   UNL     1       3.107  -0.424   0.115  0.00  0.00    -0.016 C 
ATOM     26  H   UNL     1       1.268  -2.060  -0.779  0.00  0.00    -0.081 HD
ENDBRANCH  17  23
ENDBRANCH  16  17
ENDBRANCH   1  16
TORSDOF 7
