REMARK  Name = ZINC22299816
REMARK  7 active torsions:
REMARK  status: ('A' for Active; 'I' for Inactive)
REMARK    1  A    between atoms: C_1  and  C_2
REMARK    2  A    between atoms: N_13  and  C_26
REMARK    3  A    between atoms: C_14  and  S_16
REMARK    4  A    between atoms: S_16  and  C_17
REMARK    5  A    between atoms: C_17  and  C_19
REMARK    6  A    between atoms: C_17  and  C_20
REMARK    7  A    between atoms: C_26  and  C_27
REMARK                            x       y       z     vdW  Elec       q    Type
REMARK                         _______ _______ _______ _____ _____    ______ ____
ROOT
ATOM      1  C   UNL     1       7.822   3.331   0.021  0.00  0.00    +0.008 C 
ATOM      2  C   UNL     1       6.391   2.885   0.327  0.00  0.00    -0.009 C 
ATOM      3  C   UNL     1       5.406   3.721  -0.496  0.00  0.00    +0.008 C 
ATOM      4  C   UNL     1       3.977   3.457  -0.020  0.00  0.00    +0.037 C 
ATOM      5  C   UNL     1       3.727   1.951  -0.025  0.00  0.00    -0.023 A 
ATOM      6  C   UNL     1       4.757   1.082  -0.040  0.00  0.00    -0.004 A 
ATOM      7  S   UNL     1       4.004  -0.523  -0.040  0.00  0.00    -0.073 S 
ATOM      8  C   UNL     1       2.302  -0.020  -0.020  0.00  0.00    +0.117 A 
ATOM      9  C   UNL     1       2.377   1.383  -0.014  0.00  0.00    +0.076 A 
ATOM     10  C   UNL     1       1.124   2.074   0.003  0.00  0.00    +0.263 A 
ATOM     11  O   UNL     1       1.091   3.293   0.010  0.00  0.00    -0.267 OA
ATOM     12  N   UNL     1      -0.016   1.361   0.009  0.00  0.00    -0.285 N 
ATOM     13  C   UNL     1       0.002  -0.004   0.002  0.00  0.00    +0.173 A 
ATOM     14  N   UNL     1       1.142  -0.665  -0.013  0.00  0.00    -0.216 NA
ATOM     15  C   UNL     1       6.219   1.407  -0.053  0.00  0.00    +0.046 C 
ENDROOT
BRANCH  13  16
ATOM     16  S   UNL     1      -1.519  -0.894   0.012  0.00  0.00    -0.075 S 
BRANCH  16  17
ATOM     17  C   UNL     1      -0.890  -2.591  -0.003  0.00  0.00    +0.137 C 
ATOM     18  C   UNL     1      -0.154  -2.850  -1.319  0.00  0.00    +0.029 C 
BRANCH  17  19
ATOM     19  C   UNL     1      -2.041  -3.555   0.127  0.00  0.00    +0.233 C 
ATOM     20  O   UNL     1      -3.153  -3.222  -0.225  0.00  0.00    -0.274 OA
ATOM     21  N   UNL     1      -1.835  -4.786   0.635  0.00  0.00    -0.239 N 
ATOM     22  C   UNL     1      -2.865  -5.648   0.751  0.00  0.00    +0.303 C 
ATOM     23  O   UNL     1      -3.979  -5.314   0.399  0.00  0.00    -0.253 OA
ATOM     24  N   UNL     1      -2.659  -6.879   1.258  0.00  0.00    -0.313 N 
ATOM     25  H   UNL     1      -0.827  -5.088   0.954  0.00  0.00    +0.159 HD
ATOM     26  H   UNL     1      -3.500  -7.583   1.354  0.00  0.00    +0.146 HD
ATOM     27  H   UNL     1      -1.651  -7.181   1.578  0.00  0.00    +0.146 HD
ENDBRANCH  17  19
ENDBRANCH  16  17
ENDBRANCH  13  16
BRANCH  12  28
ATOM     28  C   UNL     1      -1.303   2.062   0.019  0.00  0.00    +0.159 C 
BRANCH  28  29
ATOM     29  C   UNL     1      -1.744   2.298   1.465  0.00  0.00    +0.138 C 
ATOM     30  C   UNL     1      -3.151   2.933   1.487  0.00  0.00    +0.035 C 
ATOM     31  C   UNL     1      -3.032   3.960   2.645  0.00  0.00    +0.031 C 
ATOM     32  C   UNL     1      -1.554   4.401   2.497  0.00  0.00    +0.160 C 
ATOM     33  O   UNL     1      -0.846   3.214   2.104  0.00  0.00    -0.375 OA
ENDBRANCH  28  29
ENDBRANCH  12  28
TORSDOF 5
