REMARK  Name = ZINC40368038
REMARK  6 active torsions:
REMARK  status: ('A' for Active; 'I' for Inactive)
REMARK    1  A    between atoms: C_6  and  S_11
REMARK    2  A    between atoms: S_11  and  N_14
REMARK    3  A    between atoms: N_14  and  C_15
REMARK    4  A    between atoms: C_18  and  N_21
REMARK    5  A    between atoms: C_27  and  C_29
REMARK    6  A    between atoms: C_29  and  C_30
REMARK                            x       y       z     vdW  Elec       q    Type
REMARK                         _______ _______ _______ _____ _____    ______ ____
ROOT
ATOM      1  C   UNL     1       4.743  -3.980   2.270  0.00  0.00    +0.048 A 
ATOM      2  C   UNL     1       3.373  -4.019   2.050  0.00  0.00    +0.026 A 
ATOM      3  C   UNL     1       2.582  -4.893   2.770  0.00  0.00    +0.025 A 
ATOM      4  C   UNL     1       3.159  -5.733   3.714  0.00  0.00    +0.030 A 
ATOM      5  C   UNL     1       4.529  -5.695   3.933  0.00  0.00    +0.025 A 
ATOM      6  C   UNL     1       5.320  -4.824   3.210  0.00  0.00    +0.026 A 
ENDROOT
BRANCH   4   7
ATOM      7  N   UNL     1       2.357  -6.619   4.444  0.00  0.00    -0.327 N 
ATOM      8  C   UNL     1       2.965  -7.600   5.354  0.00  0.00    +0.124 C 
ATOM      9  C   UNL     1       2.354  -7.419   6.749  0.00  0.00    +0.126 C 
ATOM     10  N   UNL     1       0.890  -7.384   6.620  0.00  0.00    -0.298 N 
ATOM     11  C   UNL     1       0.283  -6.403   5.709  0.00  0.00    +0.126 C 
ATOM     12  C   UNL     1       0.894  -6.581   4.319  0.00  0.00    +0.124 C 
ATOM     13  C   UNL     1       0.119  -8.237   7.323  0.00  0.00    +0.220 C 
ATOM     14  O   UNL     1       0.632  -9.043   8.071  0.00  0.00    -0.275 OA
BRANCH  13  15
ATOM     15  C   UNL     1      -1.381  -8.190   7.180  0.00  0.00    +0.131 C 
BRANCH  15  16
ATOM     16  C   UNL     1      -2.003  -9.238   8.066  0.00  0.00    -0.038 A 
ATOM     17  C   UNL     1      -2.222 -10.513   7.578  0.00  0.00    +0.007 A 
ATOM     18  C   UNL     1      -2.792 -11.475   8.390  0.00  0.00    +0.038 A 
ATOM     19  C   UNL     1      -3.144 -11.162   9.692  0.00  0.00    +0.123 A 
ATOM     20  C   UNL     1      -2.924  -9.885  10.179  0.00  0.00    +0.038 A 
ATOM     21  C   UNL     1      -2.349  -8.926   9.367  0.00  0.00    +0.007 A 
ATOM     22  F   UNL     1      -3.702 -12.102  10.486  0.00  0.00    -0.205 F 
ENDBRANCH  15  16
ENDBRANCH  13  15
ENDBRANCH   4   7
BRANCH   1  23
ATOM     23  N   UNL     1       5.544  -3.093   1.541  0.00  0.00    -0.216 N 
ATOM     24  H   UNL     1       6.214  -2.559   1.995  0.00  0.00    +0.174 HD
BRANCH  23  25
ATOM     25  S   UNL     1       5.347  -2.956  -0.098  0.00  0.00    +0.072 S 
ATOM     26  O   UNL     1       6.363  -2.075  -0.557  0.00  0.00    -0.150 OA
ATOM     27  O   UNL     1       3.966  -2.708  -0.321  0.00  0.00    -0.150 OA
BRANCH  25  33
ATOM     28  C   UNL     1       5.574  -9.203  -2.534  0.00  0.00    +0.001 A 
ATOM     29  C   UNL     1       4.293  -8.932  -2.054  0.00  0.00    +0.001 A 
ATOM     30  C   UNL     1       3.991  -7.723  -1.508  0.00  0.00    +0.008 A 
ATOM     31  C   UNL     1       4.983  -6.731  -1.423  0.00  0.00    -0.016 A 
ATOM     32  C   UNL     1       4.709  -5.471  -0.864  0.00  0.00    +0.037 A 
ATOM     33  C   UNL     1       5.695  -4.535  -0.798  0.00  0.00    +0.109 A 
ATOM     34  C   UNL     1       6.975  -4.806  -1.278  0.00  0.00    +0.029 A 
ATOM     35  C   UNL     1       7.277  -6.015  -1.825  0.00  0.00    +0.010 A 
ATOM     36  C   UNL     1       6.285  -7.007  -1.910  0.00  0.00    -0.018 A 
ATOM     37  C   UNL     1       6.559  -8.267  -2.469  0.00  0.00    +0.008 A 
ENDBRANCH  25  33
ENDBRANCH  23  25
ENDBRANCH   1  23
TORSDOF 6
