REMARK  Name = ZINC03003389
REMARK  6 active torsions:
REMARK  status: ('A' for Active; 'I' for Inactive)
REMARK    1  A    between atoms: C_10  and  N_14
REMARK    2  A    between atoms: C_15  and  C_17
REMARK    3  A    between atoms: C_17  and  S_18
REMARK    4  A    between atoms: S_18  and  C_19
REMARK    5  A    between atoms: C_22  and  C_25
REMARK    6  A    between atoms: N_23  and  N_24
REMARK                            x       y       z     vdW  Elec       q    Type
REMARK                         _______ _______ _______ _____ _____    ______ ____
ROOT
ATOM      1  C   UNL     1       5.389   6.362   0.245  0.00  0.00    +0.173 C 
ENDROOT
BRANCH   1   3
ATOM      2  N   UNL     1       3.584   4.685   0.024  0.00  0.00    -0.285 N 
ATOM      3  C   UNL     1       4.896   4.938   0.204  0.00  0.00    +0.227 C 
ATOM      4  O   UNL     1       5.679   4.021   0.332  0.00  0.00    -0.275 OA
ATOM      5  H   UNL     1       2.968   5.414  -0.149  0.00  0.00    +0.155 HD
BRANCH   2  15
ATOM      6  C   UNL     1       1.089  -2.908   0.276  0.00  0.00    +0.001 A 
ATOM      7  C   UNL     1       2.240  -3.404  -0.317  0.00  0.00    +0.004 A 
ATOM      8  C   UNL     1       3.261  -2.554  -0.688  0.00  0.00    +0.047 A 
ATOM      9  C   UNL     1       3.143  -1.186  -0.470  0.00  0.00    +0.136 A 
ATOM     10  C   UNL     1       1.978  -0.688   0.129  0.00  0.00    +0.028 A 
ATOM     11  C   UNL     1       0.955  -1.554   0.500  0.00  0.00    +0.012 A 
ATOM     12  C   UNL     1       2.166   0.772   0.216  0.00  0.00    +0.028 A 
ATOM     13  C   UNL     1       1.387   1.818   0.702  0.00  0.00    +0.014 A 
ATOM     14  C   UNL     1       1.859   3.111   0.637  0.00  0.00    +0.024 A 
ATOM     15  C   UNL     1       3.111   3.370   0.087  0.00  0.00    +0.037 A 
ATOM     16  C   UNL     1       3.893   2.334  -0.398  0.00  0.00    +0.070 A 
ATOM     17  C   UNL     1       3.429   1.026  -0.339  0.00  0.00    +0.138 A 
ATOM     18  O   UNL     1       3.970  -0.149  -0.729  0.00  0.00    -0.455 OA
ENDBRANCH   2  15
ENDBRANCH   1   3
BRANCH   1  19
ATOM     19  S   UNL     1       7.181   6.372   0.498  0.00  0.00    -0.075 S 
BRANCH  19  20
ATOM     20  C   UNL     1       7.479   8.109   0.506  0.00  0.00    +0.209 A 
ATOM     21  N   UNL     1       6.579   9.055   0.355  0.00  0.00    -0.121 NA
ATOM     22  N   UNL     1       7.139  10.210   0.416  0.00  0.00    -0.127 NA
ATOM     23  C   UNL     1       8.431  10.073   0.601  0.00  0.00    +0.183 A 
ATOM     24  N   UNL     1       8.689   8.723   0.664  0.00  0.00    -0.224 N 
BRANCH  23  25
ATOM     25  C   UNL     1       9.422  11.163   0.719  0.00  0.00    +0.039 A 
ATOM     26  C   UNL     1      10.622  11.100   0.009  0.00  0.00    +0.014 A 
ATOM     27  C   UNL     1      11.541  12.122   0.119  0.00  0.00    +0.021 A 
ATOM     28  C   UNL     1      11.280  13.206   0.942  0.00  0.00    +0.042 A 
ATOM     29  C   UNL     1      10.095  13.273   1.654  0.00  0.00    +0.040 A 
ATOM     30  C   UNL     1       9.165  12.258   1.548  0.00  0.00    +0.053 A 
ATOM     31 CL   UNL     1       7.679  12.342   2.442  0.00  0.00    -0.083 Cl
ATOM     32 CL   UNL     1      12.445  14.486   1.080  0.00  0.00    -0.083 Cl
ENDBRANCH  23  25
BRANCH  24  33
ATOM     33  N   UNL     1       9.902   8.122   0.847  0.00  0.00    -0.295 N 
ATOM     34  H   UNL     1      10.391   8.021  -0.030  0.00  0.00    +0.163 HD
ATOM     35  H   UNL     1      10.460   8.630   1.517  0.00  0.00    +0.163 HD
ENDBRANCH  24  33
ENDBRANCH  19  20
ENDBRANCH   1  19
TORSDOF 6
