REMARK  Name = ZINC63739423
REMARK  7 active torsions:
REMARK  status: ('A' for Active; 'I' for Inactive)
REMARK    1  A    between atoms: C_1  and  N_2
REMARK    2  A    between atoms: N_5  and  C_8
REMARK    3  A    between atoms: C_8  and  C_9
REMARK    4  A    between atoms: C_9  and  N_10
REMARK    5  A    between atoms: C_11  and  C_13
REMARK    6  A    between atoms: C_13  and  C_14
REMARK    7  A    between atoms: C_20  and  C_22
REMARK                            x       y       z     vdW  Elec       q    Type
REMARK                         _______ _______ _______ _____ _____    ______ ____
ROOT
ATOM      1  C   UNL     1       4.224  -8.523   3.100  0.00  0.00    +0.001 C 
ATOM      2  C   UNL     1       5.649  -8.041   2.819  0.00  0.00    +0.023 C 
ATOM      3  C   UNL     1       6.568  -8.484   3.962  0.00  0.00    +0.108 C 
ATOM      4  N   UNL     1       6.445  -9.938   4.132  0.00  0.00    -0.300 N 
ATOM      5  C   UNL     1       5.108 -10.517   4.318  0.00  0.00    +0.108 C 
ATOM      6  C   UNL     1       4.205 -10.051   3.171  0.00  0.00    +0.023 C 
ATOM      7  C   UNL     1       7.538 -10.726   4.117  0.00  0.00    +0.242 C 
ATOM      8  O   UNL     1       8.637 -10.236   3.962  0.00  0.00    -0.273 OA
ENDROOT
BRANCH   7   9
ATOM      9  C   UNL     1       7.396 -12.216   4.292  0.00  0.00    +0.190 C 
ATOM     10  C   UNL     1       6.580 -12.798   3.160  0.00  0.00    +0.016 C 
ATOM     11  C   UNL     1       7.388 -13.681   2.530  0.00  0.00    -0.002 A 
ATOM     12  C   UNL     1       7.190 -14.559   1.371  0.00  0.00    +0.029 A 
ATOM     13  C   UNL     1       8.210 -15.350   0.965  0.00  0.00    +0.042 A 
ATOM     14  C   UNL     1       9.450 -15.350   1.622  0.00  0.00    +0.022 A 
ATOM     15  C   UNL     1       9.707 -14.571   2.694  0.00  0.00    +0.027 A 
ATOM     16  C   UNL     1       8.705 -13.700   3.206  0.00  0.00    +0.043 A 
ATOM     17  N   UNL     1       8.710 -12.862   4.216  0.00  0.00    -0.370 N 
ATOM     18 CL   UNL     1       7.980 -16.390  -0.406  0.00  0.00    -0.084 Cl
ATOM     19  H   UNL     1       9.458 -12.697   4.812  0.00  0.00    +0.161 HD
ENDBRANCH   7   9
BRANCH   1  20
ATOM     20  C   UNL     1       3.296  -8.053   1.978  0.00  0.00    +0.099 C 
BRANCH  20  22
ATOM     21  N   UNL     1       2.456  -5.907   1.080  0.00  0.00    -0.314 N 
ATOM     22  C   UNL     1       3.220  -6.548   1.986  0.00  0.00    +0.213 C 
ATOM     23  O   UNL     1       3.845  -5.914   2.810  0.00  0.00    -0.276 OA
ATOM     24  H   UNL     1       1.956  -6.414   0.421  0.00  0.00    +0.149 HD
BRANCH  21  25
ATOM     25  C   UNL     1       2.381  -4.444   1.088  0.00  0.00    +0.119 C 
BRANCH  25  26
ATOM     26  C   UNL     1       1.453  -3.974  -0.034  0.00  0.00    +0.103 C 
BRANCH  26  31
ATOM     27  C   UNL     1      -0.018   1.465   0.010  0.00  0.00    -0.096 C 
ATOM     28  N   UNL     1       0.002  -0.004   0.002  0.00  0.00    +0.379 N 
ATOM     29  C   UNL     1       0.688  -0.477  -1.207  0.00  0.00    -0.064 C 
ATOM     30  C   UNL     1       0.693  -2.008  -1.226  0.00  0.00    +0.066 C 
ATOM     31  N   UNL     1       1.378  -2.507  -0.025  0.00  0.00    -0.304 NA
ATOM     32  C   UNL     1       0.717  -2.021   1.194  0.00  0.00    +0.066 C 
ATOM     33  C   UNL     1       0.713  -0.490   1.192  0.00  0.00    -0.064 C 
ATOM     34  H   UNL     1      -0.945  -0.353   0.010  0.00  0.00    -0.082 HD
ENDBRANCH  26  31
ENDBRANCH  25  26
ENDBRANCH  21  25
ENDBRANCH  20  22
ENDBRANCH   1  20
TORSDOF 6
