REMARK  Name = ZINC61818970
REMARK  5 active torsions:
REMARK  status: ('A' for Active; 'I' for Inactive)
REMARK    1  A    between atoms: C_1  and  C_2
REMARK    2  A    between atoms: C_2  and  C_19
REMARK    3  A    between atoms: N_5  and  S_8
REMARK    4  A    between atoms: S_8  and  C_11
REMARK    5  A    between atoms: C_15  and  N_17
REMARK                            x       y       z     vdW  Elec       q    Type
REMARK                         _______ _______ _______ _____ _____    ______ ____
ROOT
ATOM      1  S   UNL     1      -1.173  -3.668   2.148  0.00  0.00    +0.061 S 
ATOM      2  O   UNL     1      -0.421  -3.521   3.344  0.00  0.00    -0.153 OA
ATOM      3  O   UNL     1      -2.589  -3.544   2.119  0.00  0.00    -0.153 OA
ENDROOT
BRANCH   1   8
ATOM      4  C   UNL     1      -0.019   1.526   0.010  0.00  0.00    +0.011 C 
ATOM      5  C   UNL     1       0.002  -0.004   0.002  0.00  0.00    -0.032 C 
ATOM      6  C   UNL     1      -1.434  -0.533   0.011  0.00  0.00    +0.023 C 
ATOM      7  C   UNL     1      -1.409  -2.065  -0.032  0.00  0.00    +0.110 C 
ATOM      8  N   UNL     1      -0.578  -2.556   1.075  0.00  0.00    -0.177 NA
ATOM      9  C   UNL     1       0.791  -2.042   1.212  0.00  0.00    +0.110 C 
ATOM     10  C   UNL     1       0.742  -0.511   1.242  0.00  0.00    +0.023 C 
ATOM     11  C   UNL     1       0.719  -0.497  -1.256  0.00  0.00    +0.011 C 
ENDBRANCH   1   8
BRANCH   1  12
ATOM     12  C   UNL     1      -0.795  -5.265   1.507  0.00  0.00    +0.107 A 
ATOM     13  C   UNL     1      -1.687  -5.899   0.662  0.00  0.00    +0.031 A 
ATOM     14  C   UNL     1      -1.394  -7.152   0.156  0.00  0.00    +0.042 A 
ATOM     15  C   UNL     1      -0.207  -7.776   0.495  0.00  0.00    +0.144 A 
ATOM     16  C   UNL     1       0.692  -7.140   1.345  0.00  0.00    +0.062 A 
ATOM     17  C   UNL     1       0.396  -5.879   1.846  0.00  0.00    +0.054 A 
ATOM     18  F   UNL     1       0.079  -9.000   0.002  0.00  0.00    -0.204 F 
BRANCH  16  19
ATOM     19  N   UNL     1       1.893  -7.767   1.690  0.00  0.00    -0.356 N 
ATOM     20  H   UNL     1       2.101  -8.646   1.337  0.00  0.00    +0.142 HD
ATOM     21  H   UNL     1       2.519  -7.322   2.283  0.00  0.00    +0.142 HD
ENDBRANCH  16  19
ENDBRANCH   1  12
TORSDOF 3
