REMARK  Name = ZINC43261483
REMARK  8 active torsions:
REMARK  status: ('A' for Active; 'I' for Inactive)
REMARK    1  A    between atoms: C_4  and  C_7
REMARK    2  A    between atoms: C_10  and  C_13
REMARK    3  A    between atoms: C_18  and  C_21
REMARK    4  A    between atoms: N_23  and  C_24
REMARK    5  A    between atoms: C_24  and  C_25
REMARK    6  A    between atoms: C_25  and  C_26
REMARK    7  A    between atoms: C_29  and  S_32
REMARK    8  A    between atoms: S_32  and  N_35
REMARK                            x       y       z     vdW  Elec       q    Type
REMARK                         _______ _______ _______ _____ _____    ______ ____
ROOT
ATOM      1  C   UNL     1       7.413  -2.761  -0.051  0.00  0.00    -0.030 C 
ATOM      2  C   UNL     1       7.710  -3.195  -1.491  0.00  0.00    +0.058 C 
ATOM      3  S   UNL     1       9.338  -4.008  -1.517  0.00  0.00    -0.163 S 
ATOM      4  C   UNL     1       9.204  -5.210  -0.156  0.00  0.00    +0.062 C 
ATOM      5  C   UNL     1       8.684  -4.474   1.085  0.00  0.00    +0.027 C 
ATOM      6  N   UNL     1       7.347  -3.938   0.818  0.00  0.00    +0.392 N 
ATOM      7  H   UNL     1       6.915  -3.679   1.693  0.00  0.00    -0.084 HD
ATOM      8  H   UNL     1       6.787  -4.648   0.371  0.00  0.00    -0.084 HD
ENDROOT
BRANCH   1  12
ATOM      9  C   UNL     1       3.670  -0.697   0.067  0.00  0.00    -0.018 A 
ATOM     10  C   UNL     1       4.865   0.021   0.057  0.00  0.00    +0.009 A 
ATOM     11  C   UNL     1       6.070  -0.650   0.019  0.00  0.00    +0.002 A 
ATOM     12  C   UNL     1       6.094  -2.033  -0.009  0.00  0.00    -0.061 A 
ATOM     13  C   UNL     1       4.911  -2.751   0.000  0.00  0.00    +0.002 A 
ATOM     14  C   UNL     1       3.700  -2.090   0.044  0.00  0.00    +0.009 A 
BRANCH   9  18
ATOM     15  C   UNL     1      -0.052   1.356   0.183  0.00  0.00    +0.000 A 
ATOM     16  C   UNL     1       1.131   2.073   0.168  0.00  0.00    +0.001 A 
ATOM     17  C   UNL     1       2.341   1.412   0.131  0.00  0.00    +0.008 A 
ATOM     18  C   UNL     1       2.371   0.019   0.108  0.00  0.00    -0.018 A 
ATOM     19  C   UNL     1       1.177  -0.698   0.123  0.00  0.00    +0.008 A 
ATOM     20  C   UNL     1      -0.028  -0.027   0.161  0.00  0.00    +0.001 A 
ENDBRANCH   9  18
ENDBRANCH   1  12
BRANCH   5  21
ATOM     21  C   UNL     1       9.619  -3.343   1.426  0.00  0.00    +0.200 C 
ATOM     22  O   UNL     1       9.177  -2.302   1.863  0.00  0.00    -0.278 OA
ATOM     23  N   UNL     1      10.946  -3.488   1.245  0.00  0.00    -0.316 N 
ATOM     24  H   UNL     1      11.300  -4.321   0.895  0.00  0.00    +0.149 HD
BRANCH  23  25
ATOM     25  C   UNL     1      11.855  -2.388   1.576  0.00  0.00    +0.109 C 
BRANCH  25  26
ATOM     26  C   UNL     1      13.296  -2.810   1.280  0.00  0.00    +0.054 C 
BRANCH  26  27
ATOM     27  C   UNL     1      14.231  -1.679   1.621  0.00  0.00    -0.046 A 
ATOM     28  C   UNL     1      14.550  -0.734   0.664  0.00  0.00    +0.005 A 
ATOM     29  C   UNL     1      15.408   0.304   0.977  0.00  0.00    +0.029 A 
ATOM     30  C   UNL     1      15.946   0.397   2.247  0.00  0.00    +0.105 A 
ATOM     31  C   UNL     1      15.627  -0.547   3.204  0.00  0.00    +0.029 A 
ATOM     32  C   UNL     1      14.765  -1.583   2.892  0.00  0.00    +0.005 A 
BRANCH  30  33
ATOM     33  S   UNL     1      17.041   1.720   2.645  0.00  0.00    +0.056 S 
ATOM     34  O   UNL     1      17.835   1.275   3.736  0.00  0.00    -0.153 OA
ATOM     35  O   UNL     1      17.608   2.160   1.419  0.00  0.00    -0.153 OA
BRANCH  33  36
ATOM     36  N   UNL     1      16.113   2.968   3.213  0.00  0.00    -0.204 NA
ATOM     37  H   UNL     1      15.150   2.870   3.270  0.00  0.00    +0.144 HD
ATOM     38  H   UNL     1      16.533   3.798   3.490  0.00  0.00    +0.144 HD
ENDBRANCH  33  36
ENDBRANCH  30  33
ENDBRANCH  26  27
ENDBRANCH  25  26
ENDBRANCH  23  25
ENDBRANCH   5  21
TORSDOF 8
