REMARK  Name = ZINC40627186
REMARK  5 active torsions:
REMARK  status: ('A' for Active; 'I' for Inactive)
REMARK    1  A    between atoms: C_10  and  N_11
REMARK    2  A    between atoms: C_13  and  N_29
REMARK    3  A    between atoms: C_14  and  N_18
REMARK    4  A    between atoms: N_18  and  N_19
REMARK    5  A    between atoms: C_20  and  C_22
REMARK                            x       y       z     vdW  Elec       q    Type
REMARK                         _______ _______ _______ _____ _____    ______ ____
ROOT
ATOM      1  N   UNL     1       4.870   0.097  -0.043  0.00  0.00    -0.297 N 
ATOM      2  C   UNL     1       6.080  -0.576   0.047  0.00  0.00    +0.159 A 
ATOM      3  C   UNL     1       7.275   0.130   0.150  0.00  0.00    +0.207 A 
ATOM      4  C   UNL     1       8.461  -0.591   0.238  0.00  0.00    +0.171 A 
ATOM      5  N   UNL     1       8.411  -1.922   0.221  0.00  0.00    -0.217 NA
ATOM      6  C   UNL     1       7.260  -2.554   0.121  0.00  0.00    +0.225 A 
ATOM      7  N   UNL     1       6.115  -1.907   0.041  0.00  0.00    -0.218 NA
ATOM      8  H   UNL     1       4.857   1.063  -0.121  0.00  0.00    +0.154 HD
ENDROOT
BRANCH   1  18
ATOM      9  C   UNL     1       0.200   0.946  -1.756  0.00  0.00    +0.001 A 
ATOM     10  C   UNL     1       1.386   1.676  -1.789  0.00  0.00    +0.001 A 
ATOM     11  C   UNL     1       2.527   1.184  -1.231  0.00  0.00    +0.010 A 
ATOM     12  C   UNL     1       2.510  -0.075  -0.612  0.00  0.00    +0.003 A 
ATOM     13  C   UNL     1       1.304  -0.818  -0.577  0.00  0.00    -0.016 A 
ATOM     14  C   UNL     1       0.147  -0.278  -1.165  0.00  0.00    +0.008 A 
ATOM     15  C   UNL     1       1.286  -2.079   0.043  0.00  0.00    +0.008 A 
ATOM     16  C   UNL     1       2.422  -2.577   0.605  0.00  0.00    +0.002 A 
ATOM     17  C   UNL     1       3.612  -1.857   0.578  0.00  0.00    +0.024 A 
ATOM     18  C   UNL     1       3.672  -0.617  -0.021  0.00  0.00    +0.040 A 
ENDBRANCH   1  18
BRANCH   3  19
ATOM     19  N   UNL     1       7.283   1.610   0.166  0.00  0.00    +0.063 N 
ATOM     20  O   UNL     1       7.202   2.204   1.216  0.00  0.00    -0.126 OA
ATOM     21  O   UNL     1       7.370   2.225  -0.871  0.00  0.00    -0.126 OA
ENDBRANCH   3  19
BRANCH   4  22
ATOM     22  N   UNL     1       9.678   0.066   0.343  0.00  0.00    -0.246 N 
ATOM     23  H   UNL     1       9.706   1.035   0.355  0.00  0.00    +0.172 HD
BRANCH  22  24
ATOM     24  N   UNL     1      10.866  -0.671   0.431  0.00  0.00    -0.231 N 
ATOM     25  C   UNL     1      12.049  -0.033   0.533  0.00  0.00    +0.260 C 
ATOM     26  O   UNL     1      12.084   1.183   0.548  0.00  0.00    -0.269 OA
ATOM     27  H   UNL     1      10.838  -1.641   0.419  0.00  0.00    +0.173 HD
BRANCH  25  28
ATOM     28  C   UNL     1      13.302  -0.810   0.625  0.00  0.00    +0.038 A 
ATOM     29  C   UNL     1      13.265  -2.205   0.603  0.00  0.00    +0.014 A 
ATOM     30  C   UNL     1      14.439  -2.924   0.690  0.00  0.00    +0.016 A 
ATOM     31  C   UNL     1      15.652  -2.265   0.800  0.00  0.00    +0.018 A 
ATOM     32  C   UNL     1      15.695  -0.882   0.824  0.00  0.00    +0.016 A 
ATOM     33  C   UNL     1      14.529  -0.151   0.731  0.00  0.00    +0.014 A 
ATOM     34 BR   UNL     1      17.256  -3.260   0.919  0.00  0.00    -0.050 Br
ENDBRANCH  25  28
ENDBRANCH  22  24
ENDBRANCH   4  22
TORSDOF 5
