REMARK  Name = ZINC58514464
REMARK  5 active torsions:
REMARK  status: ('A' for Active; 'I' for Inactive)
REMARK    1  A    between atoms: C_1  and  C_2
REMARK    2  A    between atoms: C_5  and  S_7
REMARK    3  A    between atoms: S_7  and  C_8
REMARK    4  A    between atoms: C_11  and  N_14
REMARK    5  A    between atoms: C_15  and  C_17
REMARK                            x       y       z     vdW  Elec       q    Type
REMARK                         _______ _______ _______ _____ _____    ______ ____
ROOT
ATOM      1  N   UNL     1      -0.138  -8.298  -0.427  0.00  0.00    -0.280 N 
ATOM      2  C   UNL     1      -0.333  -9.445   0.253  0.00  0.00    +0.265 C 
ATOM      3  O   UNL     1      -0.377  -9.432   1.469  0.00  0.00    -0.268 OA
ATOM      4  H   UNL     1      -0.035  -8.317  -1.391  0.00  0.00    +0.155 HD
ENDROOT
BRANCH   2   5
ATOM      5  C   UNL     1      -0.492 -10.716  -0.476  0.00  0.00    +0.105 A 
ATOM      6  C   UNL     1      -0.693 -11.858   0.229  0.00  0.00    +0.039 A 
ATOM      7  C   UNL     1      -0.852 -13.124  -0.485  0.00  0.00    -0.011 A 
ATOM      8  C   UNL     1      -1.062 -14.328   0.190  0.00  0.00    +0.009 A 
ATOM      9  C   UNL     1      -1.206 -15.494  -0.529  0.00  0.00    +0.001 A 
ATOM     10  C   UNL     1      -1.145 -15.484  -1.917  0.00  0.00    +0.001 A 
ATOM     11  C   UNL     1      -0.939 -14.306  -2.604  0.00  0.00    +0.014 A 
ATOM     12  C   UNL     1      -0.791 -13.115  -1.898  0.00  0.00    +0.046 A 
ATOM     13  C   UNL     1      -0.570 -11.832  -2.582  0.00  0.00    +0.257 A 
ATOM     14  O   UNL     1      -0.512 -11.787  -3.797  0.00  0.00    -0.267 OA
ATOM     15  N   UNL     1      -0.438 -10.707  -1.853  0.00  0.00    -0.318 N 
ATOM     16  H   UNL     1      -0.297  -9.864  -2.312  0.00  0.00    +0.169 HD
ENDBRANCH   2   5
BRANCH   1  20
ATOM     17  C   UNL     1       0.025  -4.666   1.615  0.00  0.00    +0.015 A 
ATOM     18  C   UNL     1       0.540  -5.816   2.201  0.00  0.00    +0.017 A 
ATOM     19  C   UNL     1       0.485  -7.019   1.525  0.00  0.00    +0.024 A 
ATOM     20  C   UNL     1      -0.084  -7.079   0.259  0.00  0.00    +0.034 A 
ATOM     21  C   UNL     1      -0.598  -5.929  -0.327  0.00  0.00    +0.024 A 
ATOM     22  C   UNL     1      -0.549  -4.728   0.351  0.00  0.00    +0.017 A 
BRANCH  17  23
ATOM     23  S   UNL     1       0.094  -3.131   2.477  0.00  0.00    -0.063 S 
BRANCH  23  28
ATOM     24  C   UNL     1       3.682   0.648   1.874  0.00  0.00    +0.066 C 
ATOM     25  C   UNL     1       3.145  -0.730   1.584  0.00  0.00    +0.047 A 
ATOM     26  C   UNL     1       3.796  -1.582   0.756  0.00  0.00    +0.070 A 
ATOM     27  S   UNL     1       2.709  -2.997   0.813  0.00  0.00    -0.069 S 
ATOM     28  C   UNL     1       1.559  -2.365   1.867  0.00  0.00    +0.139 A 
ATOM     29  N   UNL     1       2.023  -1.161   2.130  0.00  0.00    -0.238 NA
ENDBRANCH  23  28
ENDBRANCH  17  23
ENDBRANCH   1  20
TORSDOF 4
