REMARK  Name = ZINC31787613
REMARK  5 active torsions:
REMARK  status: ('A' for Active; 'I' for Inactive)
REMARK    1  A    between atoms: C_1  and  C_2
REMARK    2  A    between atoms: C_2  and  C_4
REMARK    3  A    between atoms: C_2  and  S_14
REMARK    4  A    between atoms: C_4  and  C_6
REMARK    5  A    between atoms: S_14  and  C_15
REMARK                            x       y       z     vdW  Elec       q    Type
REMARK                         _______ _______ _______ _____ _____    ______ ____
ROOT
ATOM      1  S   UNL     1      -5.126   4.126  -0.651  0.00  0.00    -0.075 S 
ENDROOT
BRANCH   1   2
ATOM      2  C   UNL     1      -6.451   2.964  -0.660  0.00  0.00    +0.192 A 
ATOM      3  N   UNL     1      -7.640   3.336  -1.120  0.00  0.00    -0.207 NA
ATOM      4  C   UNL     1      -8.671   2.509  -1.151  0.00  0.00    +0.129 A 
ATOM      5  C   UNL     1      -8.509   1.176  -0.680  0.00  0.00    +0.047 A 
ATOM      6  C   UNL     1      -9.475   0.092  -0.612  0.00  0.00    +0.021 A 
ATOM      7  C   UNL     1      -9.093  -1.096  -0.124  0.00  0.00    +0.048 A 
ATOM      8  S   UNL     1      -7.377  -0.845   0.288  0.00  0.00    -0.077 S 
ATOM      9  C   UNL     1      -7.220   0.851  -0.207  0.00  0.00    +0.114 A 
ATOM     10  N   UNL     1      -6.240   1.734  -0.213  0.00  0.00    -0.215 NA
ATOM     11  N   UNL     1      -9.893   2.934  -1.638  0.00  0.00    -0.343 N 
ATOM     12  H   UNL     1     -10.747   2.241  -1.662  0.00  0.00    +0.144 HD
ATOM     13  H   UNL     1     -10.012   3.965  -2.001  0.00  0.00    +0.144 HD
ENDBRANCH   1   2
BRANCH   1  15
ATOM     14  C   UNL     1      -4.174   2.724   1.492  0.00  0.00    +0.028 C 
ATOM     15  C   UNL     1      -3.812   3.099   0.053  0.00  0.00    +0.122 C 
BRANCH  15  16
ATOM     16  C   UNL     1      -2.515   3.867   0.045  0.00  0.00    +0.176 C 
ATOM     17  O   UNL     1      -2.529   5.079   0.051  0.00  0.00    -0.291 OA
BRANCH  16  18
ATOM     18  C   UNL     1      -1.234   3.146   0.029  0.00  0.00    +0.021 A 
ATOM     19  C   UNL     1      -1.216   1.746   0.017  0.00  0.00    +0.014 A 
ATOM     20  C   UNL     1      -0.013   1.076   0.008  0.00  0.00    +0.042 A 
ATOM     21  C   UNL     1       1.180   1.784   0.000  0.00  0.00    +0.158 A 
ATOM     22  C   UNL     1       1.170   3.173   0.007  0.00  0.00    +0.159 A 
ATOM     23  C   UNL     1      -0.029   3.856   0.022  0.00  0.00    +0.052 A 
ATOM     24  F   UNL     1       2.335   3.856   0.000  0.00  0.00    -0.202 F 
ATOM     25  F   UNL     1       2.356   1.119  -0.014  0.00  0.00    -0.202 F 
ENDBRANCH  16  18
ENDBRANCH  15  16
ENDBRANCH   1  15
TORSDOF 4
