REMARK  Name = ZINC43548234
REMARK  12 active torsions:
REMARK  status: ('A' for Active; 'I' for Inactive)
REMARK    1  A    between atoms: C_1  and  C_2
REMARK    2  A    between atoms: N_9  and  C_10
REMARK    3  A    between atoms: C_10  and  C_11
REMARK    4  A    between atoms: C_14  and  C_34
REMARK    5  A    between atoms: C_17  and  O_33
REMARK    6  A    between atoms: C_19  and  C_23
REMARK    7  A    between atoms: C_23  and  C_25
REMARK    8  A    between atoms: C_23  and  C_26
REMARK    9  A    between atoms: N_28  and  C_29
REMARK   10  A    between atoms: C_29  and  C_30
REMARK   11  A    between atoms: C_30  and  O_31
REMARK   12  A    between atoms: O_31  and  C_32
REMARK                            x       y       z     vdW  Elec       q    Type
REMARK                         _______ _______ _______ _____ _____    ______ ____
ROOT
ATOM      1  C   UNL     1      -0.596   1.385   0.022  0.00  0.00    +0.014 C 
ATOM      2  C   UNL     1      -0.542  -0.143   0.087  0.00  0.00    +0.039 C 
ATOM      3  C   UNL     1      -1.886  -0.679   0.558  0.00  0.00    +0.031 A 
ATOM      4  C   UNL     1      -2.050  -1.089   1.841  0.00  0.00    +0.013 A 
ATOM      5  S   UNL     1      -3.744  -1.605   1.867  0.00  0.00    -0.059 S 
ATOM      6  C   UNL     1      -4.104  -1.262   0.256  0.00  0.00    +0.137 A 
ATOM      7  N   UNL     1      -2.968  -0.789  -0.209  0.00  0.00    -0.340 N 
ATOM      8  N   UNL     1      -5.304  -1.435  -0.415  0.00  0.00    -0.321 N 
ATOM      9  C   UNL     1      -1.038  -1.093   2.934  0.00  0.00    +0.051 C 
ATOM     10  C   UNL     1       0.152  -0.213   2.509  0.00  0.00    -0.022 C 
ATOM     11  C   UNL     1       0.542  -0.574   1.070  0.00  0.00    +0.033 C 
ATOM     12  C   UNL     1       0.786  -2.079   0.977  0.00  0.00    +0.123 C 
ATOM     13  C   UNL     1       1.946  -2.456   1.903  0.00  0.00    +0.029 C 
ATOM     14  C   UNL     1       1.609  -2.061   3.341  0.00  0.00    +0.007 C 
ATOM     15  C   UNL     1       1.339  -0.555   3.423  0.00  0.00    +0.008 C 
ATOM     16  C   UNL     1      -0.207   1.270   2.627  0.00  0.00    +0.012 C 
ATOM     17  H   UNL     1      -5.375  -1.194  -1.352  0.00  0.00    +0.148 HD
ATOM     18  H   UNL     1      -2.917  -0.513  -1.138  0.00  0.00    +0.167 HD
ENDROOT
BRANCH  13  19
ATOM     19  C   UNL     1       2.183  -3.966   1.833  0.00  0.00    +0.077 C 
ATOM     20  C   UNL     1       3.342  -4.343   2.759  0.00  0.00    +0.017 C 
BRANCH  19  21
ATOM     21  C   UNL     1       2.523  -4.356   0.418  0.00  0.00    +0.216 C 
ATOM     22  O   UNL     1       2.571  -3.510  -0.450  0.00  0.00    -0.276 OA
ATOM     23  N   UNL     1       2.774  -5.645   0.116  0.00  0.00    -0.313 N 
ATOM     24  H   UNL     1       2.736  -6.322   0.810  0.00  0.00    +0.149 HD
BRANCH  23  25
ATOM     25  C   UNL     1       3.105  -6.024  -1.260  0.00  0.00    +0.132 C 
BRANCH  25  26
ATOM     26  C   UNL     1       3.342  -7.534  -1.330  0.00  0.00    +0.178 C 
BRANCH  26  27
ATOM     27  O   UNL     1       2.126  -8.222  -1.030  0.00  0.00    -0.381 OA
ATOM     28  C   UNL     1       2.238  -9.646  -1.068  0.00  0.00    +0.194 C 
ENDBRANCH  26  27
ENDBRANCH  25  26
ENDBRANCH  23  25
ENDBRANCH  19  21
ENDBRANCH  13  19
BRANCH  12  29
ATOM     29  O   UNL     1      -0.393  -2.780   1.376  0.00  0.00    -0.391 OA
ATOM     30  H   UNL     1      -0.309  -3.743   1.341  0.00  0.00    +0.210 HD
ENDBRANCH  12  29
BRANCH   8  31
ATOM     31  C   UNL     1      -6.465  -1.983   0.291  0.00  0.00    +0.130 C 
BRANCH  31  32
ATOM     32  C   UNL     1      -7.634  -2.069  -0.657  0.00  0.00    -0.016 C 
ATOM     33  C   UNL     1      -8.251  -3.211  -0.832  0.00  0.00    +0.005 C 
ENDBRANCH  31  32
ENDBRANCH   8  31
TORSDOF 8
