REMARK  Name = ZINC48879637
REMARK  8 active torsions:
REMARK  status: ('A' for Active; 'I' for Inactive)
REMARK    1  A    between atoms: C_1  and  C_2
REMARK    2  A    between atoms: C_2  and  N_3
REMARK    3  A    between atoms: C_11  and  C_12
REMARK    4  A    between atoms: C_14  and  O_21
REMARK    5  A    between atoms: C_15  and  O_20
REMARK    6  A    between atoms: C_16  and  O_18
REMARK    7  A    between atoms: O_18  and  C_19
REMARK    8  A    between atoms: O_21  and  C_22
REMARK                            x       y       z     vdW  Elec       q    Type
REMARK                         _______ _______ _______ _____ _____    ______ ____
ROOT
ATOM      1  C   UNL     1       3.054  -0.357  -0.322  0.00  0.00    +0.025 A 
ATOM      2  C   UNL     1       2.688   0.297   0.855  0.00  0.00    +0.061 A 
ATOM      3  C   UNL     1       3.639   0.558   1.825  0.00  0.00    +0.166 A 
ATOM      4  C   UNL     1       4.961   0.169   1.626  0.00  0.00    +0.201 A 
ATOM      5  C   UNL     1       5.328  -0.483   0.453  0.00  0.00    +0.166 A 
ATOM      6  C   UNL     1       4.378  -0.752  -0.516  0.00  0.00    +0.061 A 
ENDROOT
BRANCH   1  15
ATOM      7  N   UNL     1       0.689  -0.715  -1.140  0.00  0.00    -0.324 N 
ATOM      8  C   UNL     1       0.093  -0.985  -2.357  0.00  0.00    +0.069 A 
ATOM      9  C   UNL     1      -1.221  -1.169  -2.766  0.00  0.00    +0.028 A 
ATOM     10  C   UNL     1      -1.493  -1.433  -4.092  0.00  0.00    +0.002 A 
ATOM     11  C   UNL     1      -0.463  -1.516  -5.019  0.00  0.00    +0.002 A 
ATOM     12  C   UNL     1       0.836  -1.338  -4.635  0.00  0.00    +0.030 A 
ATOM     13  C   UNL     1       1.136  -1.069  -3.296  0.00  0.00    +0.090 A 
ATOM     14  N   UNL     1       2.295  -0.851  -2.627  0.00  0.00    -0.228 NA
ATOM     15  C   UNL     1       2.038  -0.637  -1.359  0.00  0.00    +0.142 A 
BRANCH   7  17
ATOM     16  C   UNL     1      -0.476   0.908   0.270  0.00  0.00    +0.027 C 
ATOM     17  C   UNL     1       0.005  -0.539   0.143  0.00  0.00    +0.120 C 
ENDBRANCH   7  17
ENDBRANCH   1  15
BRANCH   5  18
ATOM     18  O   UNL     1       6.620  -0.861   0.262  0.00  0.00    -0.491 OA
ATOM     19  C   UNL     1       6.927  -1.525  -0.966  0.00  0.00    +0.277 C 
ENDBRANCH   5  18
BRANCH   4  20
ATOM     20  O   UNL     1       5.895   0.427   2.581  0.00  0.00    -0.501 OA
ATOM     21  H   UNL     1       5.993  -0.277   3.236  0.00  0.00    +0.292 HD
ENDBRANCH   4  20
BRANCH   3  22
ATOM     22  O   UNL     1       3.283   1.195   2.972  0.00  0.00    -0.491 OA
ATOM     23  C   UNL     1       1.910   1.566   3.109  0.00  0.00    +0.277 C 
ENDBRANCH   3  22
TORSDOF 5
