REMARK  Name = ZINC19224625
REMARK  7 active torsions:
REMARK  status: ('A' for Active; 'I' for Inactive)
REMARK    1  A    between atoms: C_6  and  C_7
REMARK    2  A    between atoms: C_7  and  N_8
REMARK    3  A    between atoms: N_11  and  C_14
REMARK    4  A    between atoms: C_14  and  C_15
REMARK    5  A    between atoms: C_15  and  O_16
REMARK    6  A    between atoms: N_18  and  C_22
REMARK    7  A    between atoms: C_22  and  C_23
REMARK                            x       y       z     vdW  Elec       q    Type
REMARK                         _______ _______ _______ _____ _____    ______ ____
ROOT
ATOM      1  C   UNL     1       4.429   5.510   7.035  0.00  0.00    +0.005 A 
ATOM      2  C   UNL     1       5.450   4.822   6.406  0.00  0.00    +0.046 A 
ATOM      3  C   UNL     1       5.604   4.926   5.031  0.00  0.00    +0.122 A 
ATOM      4  C   UNL     1       4.748   5.732   4.304  0.00  0.00    -0.022 A 
ATOM      5  C   UNL     1       3.723   6.410   4.929  0.00  0.00    +0.007 A 
ATOM      6  C   UNL     1       3.565   6.299   6.300  0.00  0.00    -0.064 A 
ATOM      7  C   UNL     1       4.957   5.873   2.808  0.00  0.00    -0.039 C 
ATOM      8  N   UNL     1       4.658   4.589   2.165  0.00  0.00    +0.387 N 
ATOM      9  C   UNL     1       5.798   3.676   2.179  0.00  0.00    -0.036 C 
ATOM     10  C   UNL     1       6.148   3.163   3.559  0.00  0.00    +0.210 C 
ATOM     11  O   UNL     1       6.592   4.235   4.400  0.00  0.00    -0.494 OA
ATOM     12  H   UNL     1       3.869   4.109   2.764  0.00  0.00    -0.081 HD
ENDROOT
BRANCH   6  13
ATOM     13  C   UNL     1       2.448   7.038   6.991  0.00  0.00    -0.043 C 
BRANCH  13  14
ATOM     14  N   UNL     1       1.250   6.189   7.030  0.00  0.00    +0.384 N 
ATOM     15  C   UNL     1       0.725   5.955   5.677  0.00  0.00    -0.063 C 
ATOM     16  C   UNL     1      -0.472   5.004   5.754  0.00  0.00    +0.066 C 
ATOM     17  N   UNL     1      -1.504   5.589   6.622  0.00  0.00    -0.304 NA
ATOM     18  C   UNL     1      -0.979   5.823   7.974  0.00  0.00    +0.066 C 
ATOM     19  C   UNL     1       0.218   6.773   7.898  0.00  0.00    -0.063 C 
ATOM     20  H   UNL     1       1.540   5.216   7.455  0.00  0.00    -0.081 HD
BRANCH  17  21
ATOM     21  C   UNL     1      -2.702   4.740   6.661  0.00  0.00    +0.112 C 
BRANCH  21  22
ATOM     22  C   UNL     1      -3.898   5.568   7.135  0.00  0.00    +0.171 C 
BRANCH  22  23
ATOM     23  O   UNL     1      -4.189   6.580   6.169  0.00  0.00    -0.394 OA
ATOM     24  H   UNL     1      -5.023   7.277   6.337  0.00  0.00    +0.209 HD
ENDBRANCH  22  23
ENDBRANCH  21  22
ENDBRANCH  17  21
ENDBRANCH  13  14
ENDBRANCH   6  13
BRANCH   8  25
ATOM     25  C   UNL     1       4.159   4.787   0.798  0.00  0.00    -0.041 C 
BRANCH  25  26
ATOM     26  C   UNL     1       3.376   3.573   0.368  0.00  0.00    -0.042 A 
ATOM     27  C   UNL     1       3.925   2.685  -0.539  0.00  0.00    +0.052 A 
ATOM     28  C   UNL     1       3.208   1.568  -0.935  0.00  0.00    +0.167 A 
ATOM     29  C   UNL     1       1.934   1.342  -0.419  0.00  0.00    +0.168 A 
ATOM     30  C   UNL     1       1.391   2.235   0.490  0.00  0.00    +0.069 A 
ATOM     31  C   UNL     1       2.112   3.349   0.882  0.00  0.00    +0.046 A 
ATOM     32 CL   UNL     1       1.429   4.467   2.021  0.00  0.00    -0.083 Cl
ATOM     33  O   UNL     1       1.443   0.189  -0.959  0.00  0.00    -0.453 OA
ATOM     34  C   UNL     1       2.257  -0.071  -2.117  0.00  0.00    +0.466 C 
ATOM     35  O   UNL     1       3.514   0.556  -1.799  0.00  0.00    -0.453 OA
ENDBRANCH  25  26
ENDBRANCH   8  25
TORSDOF 7
