REMARK  Name = ZINC60539562
REMARK  8 active torsions:
REMARK  status: ('A' for Active; 'I' for Inactive)
REMARK    1  A    between atoms: C_1  and  C_2
REMARK    2  A    between atoms: C_3  and  C_21
REMARK    3  A    between atoms: C_7  and  N_20
REMARK    4  A    between atoms: C_9  and  S_11
REMARK    5  A    between atoms: S_11  and  C_12
REMARK    6  A    between atoms: C_12  and  C_13
REMARK    7  A    between atoms: C_15  and  C_19
REMARK    8  A    between atoms: C_16  and  C_18
REMARK                            x       y       z     vdW  Elec       q    Type
REMARK                         _______ _______ _______ _____ _____    ______ ____
ROOT
ATOM      1  C   UNL     1      -1.287   1.427   0.444  0.00  0.00    +0.045 C 
ATOM      2  C   UNL     1      -1.146  -0.073   0.394  0.00  0.00    -0.028 A 
ATOM      3  C   UNL     1      -1.693  -0.773  -0.610  0.00  0.00    -0.008 A 
ATOM      4  S   UNL     1      -1.260  -2.459  -0.227  0.00  0.00    -0.073 S 
ATOM      5  C   UNL     1      -0.356  -2.179   1.272  0.00  0.00    +0.115 A 
ATOM      6  C   UNL     1      -0.410  -0.777   1.431  0.00  0.00    +0.050 A 
ATOM      7  C   UNL     1       0.255  -0.264   2.579  0.00  0.00    +0.129 A 
ATOM      8  N   UNL     1       0.869  -1.101   3.400  0.00  0.00    -0.207 NA
ATOM      9  C   UNL     1       0.886  -2.411   3.188  0.00  0.00    +0.191 A 
ATOM     10  N   UNL     1       0.274  -2.947   2.139  0.00  0.00    -0.214 NA
ATOM     11  C   UNL     1      -2.486  -0.257  -1.783  0.00  0.00    +0.052 C 
ENDROOT
BRANCH   7  12
ATOM     12  N   UNL     1       0.261   1.095   2.835  0.00  0.00    -0.343 N 
ATOM     13  H   UNL     1       0.109   1.725   2.113  0.00  0.00    +0.144 HD
ATOM     14  H   UNL     1       0.416   1.418   3.736  0.00  0.00    +0.144 HD
ENDBRANCH   7  12
BRANCH   9  15
ATOM     15  S   UNL     1       1.725  -3.460   4.328  0.00  0.00    -0.076 S 
BRANCH  15  16
ATOM     16  C   UNL     1       2.381  -2.318   5.575  0.00  0.00    +0.173 C 
BRANCH  16  17
ATOM     17  C   UNL     1       3.132  -3.096   6.624  0.00  0.00    +0.206 A 
ATOM     18  N   UNL     1       4.403  -3.381   6.592  0.00  0.00    -0.218 NA
ATOM     19  C   UNL     1       4.715  -4.085   7.695  0.00  0.00    +0.079 A 
ATOM     20  C   UNL     1       3.591  -4.229   8.417  0.00  0.00    +0.125 A 
ATOM     21  O   UNL     1       2.604  -3.605   7.745  0.00  0.00    -0.444 OA
ATOM     22  C   UNL     1       3.461  -4.950   9.734  0.00  0.00    +0.088 C 
ATOM     23  C   UNL     1       6.078  -4.615   8.055  0.00  0.00    +0.069 C 
ENDBRANCH  16  17
ENDBRANCH  15  16
ENDBRANCH   9  15
TORSDOF 4
