REMARK  Name = ZINC63557203
REMARK  9 active torsions:
REMARK  status: ('A' for Active; 'I' for Inactive)
REMARK    1  A    between atoms: C_1  and  C_2
REMARK    2  A    between atoms: C_2  and  C_3
REMARK    3  A    between atoms: C_3  and  C_4
REMARK    4  A    between atoms: C_4  and  C_5
REMARK    5  A    between atoms: C_9  and  N_12
REMARK    6  A    between atoms: C_13  and  C_15
REMARK    7  A    between atoms: N_20  and  C_22
REMARK    8  A    between atoms: C_22  and  C_23
REMARK    9  A    between atoms: C_23  and  C_24
REMARK                            x       y       z     vdW  Elec       q    Type
REMARK                         _______ _______ _______ _____ _____    ______ ____
ROOT
ATOM      1  C   UNL     1      -8.293  -4.464   2.361  0.00  0.00    +0.101 C 
ATOM      2  C   UNL     1      -8.674  -3.451   3.466  0.00  0.00    +0.110 C 
ATOM      3  C   UNL     1      -9.947  -4.011   4.060  0.00  0.00    +0.216 C 
ATOM      4  O   UNL     1     -10.721  -3.389   4.756  0.00  0.00    -0.276 OA
ATOM      5  N   UNL     1     -10.097  -5.298   3.703  0.00  0.00    -0.300 N 
ATOM      6  C   UNL     1      -8.981  -5.753   2.864  0.00  0.00    +0.121 C 
ENDROOT
BRANCH   1   8
ATOM      7  N   UNL     1      -6.012  -3.610   1.928  0.00  0.00    -0.290 N 
ATOM      8  C   UNL     1      -6.799  -4.644   2.287  0.00  0.00    +0.220 C 
ATOM      9  O   UNL     1      -6.304  -5.720   2.549  0.00  0.00    -0.275 OA
ATOM     10  H   UNL     1      -6.408  -2.750   1.719  0.00  0.00    +0.151 HD
BRANCH   7  14
ATOM     11  C   UNL     1      -2.848  -2.593   0.015  0.00  0.00    +0.130 C 
ATOM     12  N   UNL     1      -2.879  -4.087   0.111  0.00  0.00    -0.241 NA
ATOM     13  N   UNL     1      -4.171  -4.527   0.623  0.00  0.00    -0.227 NA
ATOM     14  C   UNL     1      -4.559  -3.785   1.856  0.00  0.00    +0.216 C 
ATOM     15  S   UNL     1      -3.710  -2.171   1.591  0.00  0.00    -0.102 S 
ATOM     16  H   UNL     1      -2.126  -4.427   0.690  0.00  0.00    +0.142 HD
ATOM     17  H   UNL     1      -4.886  -4.450  -0.085  0.00  0.00    +0.143 HD
BRANCH  11  18
ATOM     18  C   UNL     1      -1.413  -2.063   0.004  0.00  0.00    +0.031 C 
BRANCH  18  19
ATOM     19  C   UNL     1      -1.433  -0.534   0.013  0.00  0.00    +0.002 C 
BRANCH  19  21
ATOM     20  C   UNL     1      -0.019   1.526   0.010  0.00  0.00    +0.004 C 
ATOM     21  C   UNL     1       0.002  -0.004   0.002  0.00  0.00    -0.003 C 
ENDBRANCH  19  21
ENDBRANCH  18  19
ENDBRANCH  11  18
ENDBRANCH   7  14
ENDBRANCH   1   8
BRANCH   5  22
ATOM     22  C   UNL     1     -11.228  -6.140   4.100  0.00  0.00    +0.112 C 
BRANCH  22  23
ATOM     23  C   UNL     1     -12.341  -6.023   3.058  0.00  0.00    +0.052 C 
BRANCH  23  24
ATOM     24  C   UNL     1     -13.505  -6.889   3.466  0.00  0.00    -0.040 C 
ATOM     25  C   UNL     1     -14.606  -6.502   4.150  0.00  0.00    +0.002 A 
ATOM     26  C   UNL     1     -15.033  -5.208   4.697  0.00  0.00    +0.048 A 
ATOM     27  C   UNL     1     -16.216  -5.130   5.349  0.00  0.00    +0.124 A 
ATOM     28  C   UNL     1     -17.043  -6.252   5.514  0.00  0.00    +0.040 A 
ATOM     29  C   UNL     1     -16.718  -7.473   5.040  0.00  0.00    +0.029 A 
ATOM     30  C   UNL     1     -15.497  -7.670   4.338  0.00  0.00    +0.043 A 
ATOM     31  N   UNL     1     -14.967  -8.737   3.791  0.00  0.00    -0.380 N 
ATOM     32  C   UNL     1     -13.682  -8.365   3.189  0.00  0.00    +0.144 C 
ATOM     33  F   UNL     1     -16.612  -3.941   5.855  0.00  0.00    -0.205 F 
ATOM     34  H   UNL     1     -15.360  -9.623   3.784  0.00  0.00    +0.160 HD
ENDBRANCH  23  24
ENDBRANCH  22  23
ENDBRANCH   5  22
TORSDOF 8
