REMARK  Name = ZINC56725660
REMARK  4 active torsions:
REMARK  status: ('A' for Active; 'I' for Inactive)
REMARK    1  A    between atoms: C_1  and  C_2
REMARK    2  A    between atoms: N_16  and  C_17
REMARK    3  A    between atoms: C_20  and  O_24
REMARK    4  A    between atoms: O_24  and  C_25
REMARK                            x       y       z     vdW  Elec       q    Type
REMARK                         _______ _______ _______ _____ _____    ______ ____
ROOT
ATOM      1  C   UNL     1       2.070   1.657  -0.589  0.00  0.00    +0.066 C 
ATOM      2  C   UNL     1       1.462   0.299  -0.353  0.00  0.00    +0.047 A 
ATOM      3  C   UNL     1       0.977  -0.447  -1.374  0.00  0.00    +0.071 A 
ATOM      4  S   UNL     1       0.413  -1.893  -0.493  0.00  0.00    -0.060 S 
ATOM      5  C   UNL     1       0.847  -1.405   1.058  0.00  0.00    +0.161 A 
ATOM      6  N   UNL     1       1.383  -0.220   0.860  0.00  0.00    -0.230 NA
ATOM      7  N   UNL     1       0.683  -2.088   2.253  0.00  0.00    -0.308 N 
ATOM      8  C   UNL     1       0.060  -3.420   2.218  0.00  0.00    +0.108 C 
ATOM      9  C   UNL     1       0.777  -4.429   3.118  0.00  0.00    +0.038 C 
ATOM     10  C   UNL     1       2.279  -4.261   3.006  0.00  0.00    +0.111 C 
ATOM     11  N   UNL     1       2.693  -3.234   3.961  0.00  0.00    -0.284 N 
ATOM     12  C   UNL     1       2.622  -1.835   3.721  0.00  0.00    +0.128 C 
ATOM     13  C   UNL     1       1.141  -1.455   3.478  0.00  0.00    +0.126 C 
ATOM     14  C   UNL     1       3.175  -3.643   5.152  0.00  0.00    +0.306 C 
ATOM     15  O   UNL     1       3.622  -2.830   5.938  0.00  0.00    -0.252 OA
ATOM     16  N   UNL     1       3.161  -4.952   5.471  0.00  0.00    -0.269 N 
ATOM     17  H   UNL     1       2.875  -5.608   4.816  0.00  0.00    +0.156 HD
ENDROOT
BRANCH  16  18
ATOM     18  C   UNL     1       3.559  -5.366   6.749  0.00  0.00    +0.040 A 
ATOM     19  C   UNL     1       3.309  -4.558   7.850  0.00  0.00    +0.065 A 
ATOM     20  C   UNL     1       3.703  -4.966   9.111  0.00  0.00    +0.169 A 
ATOM     21  C   UNL     1       4.347  -6.185   9.277  0.00  0.00    +0.190 A 
ATOM     22  C   UNL     1       4.596  -6.994   8.177  0.00  0.00    +0.169 A 
ATOM     23  C   UNL     1       4.198  -6.588   6.916  0.00  0.00    +0.065 A 
ATOM     24  F   UNL     1       5.222  -8.180   8.338  0.00  0.00    -0.201 F 
ATOM     25  F   UNL     1       3.461  -4.179  10.182  0.00  0.00    -0.201 F 
BRANCH  21  26
ATOM     26  O   UNL     1       4.734  -6.586  10.518  0.00  0.00    -0.490 OA
ATOM     27  C   UNL     1       3.793  -7.349  11.277  0.00  0.00    +0.277 C 
ENDBRANCH  21  26
ENDBRANCH  16  18
TORSDOF 2
