REMARK  Name = ZINC12473189
REMARK  10 active torsions:
REMARK  status: ('A' for Active; 'I' for Inactive)
REMARK    1  A    between atoms: C_1  and  C_2
REMARK    2  A    between atoms: C_5  and  N_8
REMARK    3  A    between atoms: N_8  and  C_9
REMARK    4  A    between atoms: C_9  and  C_11
REMARK    5  A    between atoms: C_9  and  C_18
REMARK    6  A    between atoms: N_20  and  C_21
REMARK    7  A    between atoms: C_21  and  C_22
REMARK    8  A    between atoms: C_28  and  C_30
REMARK    9  A    between atoms: C_31  and  N_38
REMARK   10  A    between atoms: C_32  and  C_35
REMARK                            x       y       z     vdW  Elec       q    Type
REMARK                         _______ _______ _______ _____ _____    ______ ____
ROOT
ATOM      1  N   UNL     1      -1.196   1.476  -0.226  0.00  0.00    -0.251 N 
ATOM      2  C   UNL     1      -0.293   0.772   0.484  0.00  0.00    +0.262 C 
ATOM      3  O   UNL     1      -0.653   0.108   1.439  0.00  0.00    -0.269 OA
ENDROOT
BRANCH   1   8
ATOM      4  C   UNL     1       0.409   4.221  -4.924  0.00  0.00    +0.044 C 
ATOM      5  C   UNL     1      -0.017   3.492  -3.676  0.00  0.00    -0.050 A 
ATOM      6  C   UNL     1      -0.766   2.334  -3.775  0.00  0.00    +0.005 A 
ATOM      7  C   UNL     1      -1.158   1.663  -2.634  0.00  0.00    +0.024 A 
ATOM      8  C   UNL     1      -0.800   2.153  -1.384  0.00  0.00    +0.038 A 
ATOM      9  C   UNL     1      -0.052   3.319  -1.288  0.00  0.00    +0.024 A 
ATOM     10  C   UNL     1       0.342   3.982  -2.434  0.00  0.00    +0.005 A 
ENDBRANCH   1   8
BRANCH   2  11
ATOM     11  C   UNL     1       1.121   0.800   0.105  0.00  0.00    +0.116 A 
ATOM     12  C   UNL     1       2.218   0.206   0.732  0.00  0.00    +0.076 A 
ATOM     13  C   UNL     1       3.416   0.460   0.065  0.00  0.00    +0.155 A 
ATOM     14  N   UNL     1       3.402   1.192  -1.027  0.00  0.00    -0.203 NA
ATOM     15  S   UNL     1       1.901   1.595  -1.285  0.00  0.00    +0.019 S 
BRANCH  13  16
ATOM     16  C   UNL     1       4.685  -0.087   0.579  0.00  0.00    +0.262 C 
ATOM     17  O   UNL     1       4.691  -0.763   1.590  0.00  0.00    -0.269 OA
ATOM     18  N   UNL     1       5.839   0.163  -0.070  0.00  0.00    -0.324 N 
ATOM     19  H   UNL     1       5.835   0.703  -0.876  0.00  0.00    +0.145 HD
ATOM     20  H   UNL     1       6.674  -0.196   0.268  0.00  0.00    +0.145 HD
ENDBRANCH  13  16
BRANCH  12  21
ATOM     21  N   UNL     1       2.126  -0.554   1.890  0.00  0.00    -0.355 N 
ATOM     22  H   UNL     1       1.262  -0.697   2.309  0.00  0.00    +0.142 HD
ATOM     23  H   UNL     1       2.924  -0.942   2.280  0.00  0.00    +0.142 HD
ENDBRANCH  12  21
ENDBRANCH   2  11
BRANCH   1  24
ATOM     24  C   UNL     1      -2.591   1.533   0.214  0.00  0.00    +0.197 C 
BRANCH  24  25
ATOM     25  C   UNL     1      -3.420   2.234  -0.831  0.00  0.00    -0.018 A 
ATOM     26  C   UNL     1      -3.062   3.498  -1.263  0.00  0.00    +0.009 A 
ATOM     27  C   UNL     1      -3.818   4.140  -2.225  0.00  0.00    +0.038 A 
ATOM     28  C   UNL     1      -4.941   3.521  -2.749  0.00  0.00    +0.123 A 
ATOM     29  C   UNL     1      -5.302   2.258  -2.311  0.00  0.00    +0.038 A 
ATOM     30  C   UNL     1      -4.541   1.616  -1.353  0.00  0.00    +0.009 A 
ATOM     31  F   UNL     1      -5.684   4.150  -3.686  0.00  0.00    -0.205 F 
ENDBRANCH  24  25
BRANCH  24  32
ATOM     32  C   UNL     1      -2.677   2.291   1.514  0.00  0.00    +0.239 C 
ATOM     33  O   UNL     1      -1.671   2.739   2.023  0.00  0.00    -0.273 OA
ATOM     34  N   UNL     1      -3.872   2.470   2.112  0.00  0.00    -0.311 N 
ATOM     35  H   UNL     1      -4.676   2.112   1.706  0.00  0.00    +0.149 HD
BRANCH  34  36
ATOM     36  C   UNL     1      -3.955   3.206   3.376  0.00  0.00    +0.135 C 
BRANCH  36  37
ATOM     37  C   UNL     1      -5.413   3.266   3.836  0.00  0.00    +0.135 C 
ATOM     38  C   UNL     1      -5.512   4.039   5.166  0.00  0.00    +0.035 C 
ATOM     39  C   UNL     1      -6.471   5.213   4.852  0.00  0.00    +0.031 C 
ATOM     40  C   UNL     1      -7.222   4.692   3.600  0.00  0.00    +0.160 C 
ATOM     41  O   UNL     1      -6.202   3.978   2.869  0.00  0.00    -0.375 OA
ENDBRANCH  36  37
ENDBRANCH  34  36
ENDBRANCH  24  32
ENDBRANCH   1  24
TORSDOF 9
