REMARK  Name = ZINC08722339
REMARK  6 active torsions:
REMARK  status: ('A' for Active; 'I' for Inactive)
REMARK    1  A    between atoms: C_1  and  O_2
REMARK    2  A    between atoms: O_2  and  C_3
REMARK    3  A    between atoms: C_6  and  C_12
REMARK    4  A    between atoms: C_8  and  N_9
REMARK    5  A    between atoms: N_21  and  C_24
REMARK    6  A    between atoms: C_24  and  C_25
REMARK                            x       y       z     vdW  Elec       q    Type
REMARK                         _______ _______ _______ _____ _____    ______ ____
ROOT
ATOM      1  C   UNL     1       2.506  -2.503  -4.381  0.00  0.00    +0.190 C 
ATOM      2  N   UNL     1       3.571  -1.623  -4.894  0.00  0.00    -0.316 N 
ATOM      3  C   UNL     1       4.775  -1.665  -4.235  0.00  0.00    +0.080 A 
ATOM      4  C   UNL     1       5.188  -2.782  -3.493  0.00  0.00    +0.068 A 
ATOM      5  C   UNL     1       6.482  -2.659  -2.849  0.00  0.00    -0.027 A 
ATOM      6  C   UNL     1       7.110  -1.480  -3.062  0.00  0.00    -0.021 A 
ATOM      7  S   UNL     1       6.007  -0.561  -4.097  0.00  0.00    -0.080 S 
ATOM      8  C   UNL     1       8.446  -1.079  -2.522  0.00  0.00    -0.035 C 
ATOM      9  N   UNL     1       8.798  -2.000  -1.424  0.00  0.00    +0.386 N 
ATOM     10  C   UNL     1       8.631  -3.388  -1.873  0.00  0.00    -0.073 C 
ATOM     11  C   UNL     1       7.143  -3.730  -1.991  0.00  0.00    +0.018 C 
ATOM     12  C   UNL     1       4.282  -3.953  -3.451  0.00  0.00    +0.248 C 
ATOM     13  O   UNL     1       4.643  -5.017  -2.982  0.00  0.00    -0.270 OA
ATOM     14  N   UNL     1       3.042  -3.791  -3.954  0.00  0.00    -0.289 N 
ATOM     15  H   UNL     1       3.428  -1.044  -5.659  0.00  0.00    +0.149 HD
ATOM     16  H   UNL     1       2.475  -4.574  -4.035  0.00  0.00    +0.151 HD
ATOM     17  H   UNL     1       8.194  -1.827  -0.635  0.00  0.00    -0.081 HD
ENDROOT
BRANCH   1  21
ATOM     18  C   UNL     1       0.606  -0.607  -1.056  0.00  0.00    +0.150 A 
ATOM     19  C   UNL     1       1.173   0.161  -2.062  0.00  0.00    +0.048 A 
ATOM     20  C   UNL     1       1.786  -0.455  -3.136  0.00  0.00    +0.011 A 
ATOM     21  C   UNL     1       1.836  -1.835  -3.208  0.00  0.00    -0.007 A 
ATOM     22  C   UNL     1       1.271  -2.602  -2.207  0.00  0.00    +0.043 A 
ATOM     23  C   UNL     1       0.661  -1.991  -1.128  0.00  0.00    +0.168 A 
BRANCH  23  24
ATOM     24  N   UNL     1       0.062  -2.813  -0.053  0.00  0.00    +0.060 N 
ATOM     25  O   UNL     1       0.110  -4.020  -0.116  0.00  0.00    -0.126 OA
ATOM     26  O   UNL     1      -0.476  -2.278   0.889  0.00  0.00    -0.126 OA
ENDBRANCH  23  24
BRANCH  18  28
ATOM     27  C   UNL     1      -0.017   1.425   0.010  0.00  0.00    +0.277 C 
ATOM     28  O   UNL     1       0.002  -0.004   0.002  0.00  0.00    -0.493 OA
ENDBRANCH  18  28
ENDBRANCH   1  21
BRANCH   9  29
ATOM     29  C   UNL     1      10.195  -1.778  -1.029  0.00  0.00    -0.043 C 
BRANCH  29  30
ATOM     30  C   UNL     1      10.339  -0.394  -0.450  0.00  0.00    -0.064 A 
ATOM     31  C   UNL     1      10.641   0.673  -1.277  0.00  0.00    +0.002 A 
ATOM     32  C   UNL     1      10.773   1.942  -0.746  0.00  0.00    +0.000 A 
ATOM     33  C   UNL     1      10.604   2.146   0.611  0.00  0.00    +0.000 A 
ATOM     34  C   UNL     1      10.302   1.079   1.437  0.00  0.00    +0.000 A 
ATOM     35  C   UNL     1      10.165  -0.190   0.906  0.00  0.00    +0.002 A 
ENDBRANCH  29  30
ENDBRANCH   9  29
TORSDOF 5
