REMARK  Name = ZINC40020773
REMARK  7 active torsions:
REMARK  status: ('A' for Active; 'I' for Inactive)
REMARK    1  A    between atoms: C_1  and  C_2
REMARK    2  A    between atoms: C_2  and  C_3
REMARK    3  A    between atoms: C_3  and  N_4
REMARK    4  A    between atoms: C_5  and  C_21
REMARK    5  A    between atoms: C_23  and  O_29
REMARK    6  A    between atoms: C_24  and  O_28
REMARK    7  A    between atoms: O_29  and  C_30
REMARK                            x       y       z     vdW  Elec       q    Type
REMARK                         _______ _______ _______ _____ _____    ______ ____
ROOT
ATOM      1  N   UNL     1      -1.413  -1.998   0.005  0.00  0.00    -0.284 N 
ATOM      2  C   UNL     1      -1.407  -2.857  -1.191  0.00  0.00    +0.145 C 
ATOM      3  C   UNL     1      -1.388  -4.261  -0.684  0.00  0.00    +0.072 A 
ATOM      4  C   UNL     1      -1.384  -5.545  -1.394  0.00  0.00    +0.199 A 
ATOM      5  O   UNL     1      -1.220  -5.641  -2.597  0.00  0.00    -0.287 OA
ATOM      6  C   UNL     1      -1.597  -6.716  -0.506  0.00  0.00    +0.066 A 
ATOM      7  C   UNL     1      -1.818  -7.982  -1.048  0.00  0.00    +0.035 A 
ATOM      8  C   UNL     1      -2.020  -9.056  -0.209  0.00  0.00    +0.042 A 
ATOM      9  C   UNL     1      -2.004  -8.876   1.168  0.00  0.00    +0.023 A 
ATOM     10  C   UNL     1      -1.785  -7.631   1.714  0.00  0.00    +0.048 A 
ATOM     11  C   UNL     1      -1.575  -6.529   0.886  0.00  0.00    +0.140 A 
ATOM     12  O   UNL     1      -1.353  -5.319   1.449  0.00  0.00    -0.450 OA
ATOM     13  C   UNL     1      -1.378  -4.212   0.681  0.00  0.00    +0.199 A 
ATOM     14  C   UNL     1      -1.392  -2.797   1.092  0.00  0.00    +0.283 C 
ATOM     15  O   UNL     1      -1.387  -2.406   2.242  0.00  0.00    -0.267 OA
ATOM     16 CL   UNL     1      -2.295 -10.636  -0.874  0.00  0.00    -0.084 Cl
ENDROOT
BRANCH   2  17
ATOM     17  C   UNL     1      -0.178  -2.585  -2.020  0.00  0.00    -0.018 A 
ATOM     18  C   UNL     1      -0.272  -2.544  -3.399  0.00  0.00    +0.055 A 
ATOM     19  C   UNL     1       0.857  -2.294  -4.163  0.00  0.00    +0.163 A 
ATOM     20  C   UNL     1       2.083  -2.083  -3.539  0.00  0.00    +0.173 A 
ATOM     21  C   UNL     1       2.170  -2.125  -2.157  0.00  0.00    +0.063 A 
ATOM     22  C   UNL     1       1.038  -2.370  -1.400  0.00  0.00    +0.025 A 
ATOM     23 BR   UNL     1       3.834  -1.840  -1.305  0.00  0.00    -0.046 Br
BRANCH  20  24
ATOM     24  O   UNL     1       3.194  -1.838  -4.285  0.00  0.00    -0.503 OA
ATOM     25  H   UNL     1       3.348  -0.900  -4.464  0.00  0.00    +0.292 HD
ENDBRANCH  20  24
BRANCH  19  26
ATOM     26  O   UNL     1       0.766  -2.254  -5.519  0.00  0.00    -0.491 OA
ATOM     27  C   UNL     1      -0.524  -2.480  -6.090  0.00  0.00    +0.277 C 
ENDBRANCH  19  26
ENDBRANCH   2  17
BRANCH   1  28
ATOM     28  C   UNL     1      -1.433  -0.534   0.013  0.00  0.00    +0.109 C 
BRANCH  28  30
ATOM     29  C   UNL     1      -0.019   1.526   0.010  0.00  0.00    +0.005 C 
ATOM     30  C   UNL     1       0.002  -0.004   0.002  0.00  0.00    +0.016 C 
ENDBRANCH  28  30
ENDBRANCH   1  28
TORSDOF 5
