REMARK  Name = ZINC03566039
REMARK  4 active torsions:
REMARK  status: ('A' for Active; 'I' for Inactive)
REMARK    1  A    between atoms: C_1  and  C_2
REMARK    2  A    between atoms: C_3  and  S_9
REMARK    3  A    between atoms: C_4  and  C_8
REMARK    4  A    between atoms: S_9  and  N_12
REMARK                            x       y       z     vdW  Elec       q    Type
REMARK                         _______ _______ _______ _____ _____    ______ ____
ROOT
ATOM      1  S   UNL     1       3.514  -0.978   1.005  0.00  0.00    +0.078 S 
ATOM      2  O   UNL     1       3.351  -2.380   0.840  0.00  0.00    -0.150 OA
ATOM      3  O   UNL     1       4.264  -0.186   0.094  0.00  0.00    -0.150 OA
ENDROOT
BRANCH   1   4
ATOM      4  N   UNL     1       1.992  -0.327   1.057  0.00  0.00    -0.203 N 
ATOM      5  C   UNL     1       0.825  -1.178   1.328  0.00  0.00    +0.132 C 
ATOM      6  C   UNL     1      -0.277  -0.792   0.333  0.00  0.00    +0.025 C 
ATOM      7  C   UNL     1      -0.685   0.659   0.587  0.00  0.00    +0.038 C 
ATOM      8  C   UNL     1       0.528   1.551   0.613  0.00  0.00    -0.025 A 
ATOM      9  C   UNL     1       1.797   1.042   0.844  0.00  0.00    +0.054 A 
ATOM     10  C   UNL     1       2.895   1.894   0.866  0.00  0.00    +0.025 A 
ATOM     11  C   UNL     1       2.724   3.248   0.654  0.00  0.00    +0.002 A 
ATOM     12  C   UNL     1       1.459   3.754   0.422  0.00  0.00    +0.000 A 
ATOM     13  C   UNL     1       0.366   2.910   0.401  0.00  0.00    +0.005 A 
ENDBRANCH   1   4
BRANCH   1  16
ATOM     14  C   UNL     1       2.999  -2.608   3.810  0.00  0.00    +0.067 C 
ATOM     15  C   UNL     1       3.969  -1.460   3.707  0.00  0.00    +0.060 A 
ATOM     16  C   UNL     1       4.238  -0.739   2.594  0.00  0.00    +0.151 A 
ATOM     17  C   UNL     1       5.195   0.225   2.925  0.00  0.00    +0.087 A 
ATOM     18  N   UNL     1       5.484   0.095   4.194  0.00  0.00    -0.177 NA
ATOM     19  N   UNL     1       4.726  -0.965   4.709  0.00  0.00    -0.280 N 
ATOM     20  H   UNL     1       4.742  -1.296   5.652  0.00  0.00    +0.189 HD
ATOM     21  C   UNL     1       5.788   1.242   1.984  0.00  0.00    +0.069 C 
ENDBRANCH   1  16
TORSDOF 2
