REMARK  Name = ZINC20882052
REMARK  10 active torsions:
REMARK  status: ('A' for Active; 'I' for Inactive)
REMARK    1  A    between atoms: C_1  and  C_2
REMARK    2  A    between atoms: C_2  and  C_3
REMARK    3  A    between atoms: C_2  and  O_4
REMARK    4  A    between atoms: O_4  and  C_5
REMARK    5  A    between atoms: C_8  and  C_13
REMARK    6  A    between atoms: C_10  and  O_11
REMARK    7  A    between atoms: O_11  and  C_12
REMARK    8  A    between atoms: C_18  and  C_24
REMARK    9  A    between atoms: C_29  and  O_30
REMARK   10  A    between atoms: O_30  and  C_31
REMARK                            x       y       z     vdW  Elec       q    Type
REMARK                         _______ _______ _______ _____ _____    ______ ____
ROOT
ATOM      1  C   UNL     1      -0.012   1.086   0.008  0.00  0.00    +0.032 C 
ATOM      2  C   UNL     1      -0.566   1.800  -1.227  0.00  0.00    +0.059 C 
ATOM      3  C   UNL     1       0.183   1.344  -2.454  0.00  0.00    +0.018 C 
ATOM      4  C   UNL     1       1.477   0.969  -2.375  0.00  0.00    +0.020 C 
ATOM      5  C   UNL     1       2.210   0.530  -3.621  0.00  0.00    +0.066 C 
ATOM      6  C   UNL     1       1.245  -0.220  -4.540  0.00  0.00    +0.109 C 
ATOM      7  C   UNL     1      -0.023   0.581  -4.684  0.00  0.00    +0.218 C 
ATOM      8  O   UNL     1      -0.636   0.559  -5.730  0.00  0.00    -0.275 OA
ATOM      9  N   UNL     1      -0.476   1.319  -3.657  0.00  0.00    -0.289 N 
ATOM     10  C   UNL     1       2.168   0.978  -1.152  0.00  0.00    +0.162 C 
ATOM     11  O   UNL     1       3.336   0.644  -1.123  0.00  0.00    -0.292 OA
ATOM     12  C   UNL     1       1.484   1.395   0.122  0.00  0.00    +0.088 C 
ATOM     13  H   UNL     1      -1.394   1.910  -3.793  0.00  0.00    +0.155 HD
ENDROOT
BRANCH   5  14
ATOM     14  C   UNL     1       2.751   1.740  -4.338  0.00  0.00    +0.003 A 
ATOM     15  C   UNL     1       1.887   2.720  -4.788  0.00  0.00    +0.023 A 
ATOM     16  C   UNL     1       2.383   3.831  -5.447  0.00  0.00    +0.018 A 
ATOM     17  C   UNL     1       3.744   3.963  -5.657  0.00  0.00    +0.019 A 
ATOM     18  C   UNL     1       4.611   2.985  -5.209  0.00  0.00    +0.047 A 
ATOM     19  C   UNL     1       4.117   1.873  -4.543  0.00  0.00    +0.124 A 
ATOM     20 BR   UNL     1       1.199   5.171  -6.061  0.00  0.00    -0.050 Br
BRANCH  19  21
ATOM     21  O   UNL     1       4.968   0.913  -4.096  0.00  0.00    -0.495 OA
ATOM     22  C   UNL     1       6.361   1.116  -4.341  0.00  0.00    +0.277 C 
ENDBRANCH  19  21
ENDBRANCH   5  14
BRANCH   1  26
ATOM     23  C   UNL     1      -2.034   2.481   3.509  0.00  0.00    +0.162 A 
ATOM     24  C   UNL     1      -1.333   3.369   2.710  0.00  0.00    +0.050 A 
ATOM     25  C   UNL     1      -0.681   2.916   1.579  0.00  0.00    +0.008 A 
ATOM     26  C   UNL     1      -0.725   1.575   1.242  0.00  0.00    -0.040 A 
ATOM     27  C   UNL     1      -1.427   0.684   2.033  0.00  0.00    +0.053 A 
ATOM     28  C   UNL     1      -2.079   1.132   3.170  0.00  0.00    +0.162 A 
BRANCH  28  29
ATOM     29  O   UNL     1      -2.765   0.255   3.952  0.00  0.00    -0.491 OA
ATOM     30  C   UNL     1      -2.768  -1.114   3.542  0.00  0.00    +0.277 C 
ENDBRANCH  28  29
BRANCH  23  31
ATOM     31  O   UNL     1      -2.676   2.925   4.622  0.00  0.00    -0.486 OA
BRANCH  31  33
ATOM     32  C   UNL     1      -3.900   4.708   5.702  0.00  0.00    +0.051 C 
ATOM     33  C   UNL     1      -2.690   4.337   4.843  0.00  0.00    +0.167 C 
ATOM     34  C   UNL     1      -1.406   4.753   5.564  0.00  0.00    +0.051 C 
ENDBRANCH  31  33
ENDBRANCH  23  31
ENDBRANCH   1  26
TORSDOF 6
