REMARK  Name = ZINC06814001
REMARK  3 active torsions:
REMARK  status: ('A' for Active; 'I' for Inactive)
REMARK    1  A    between atoms: N_9  and  C_10
REMARK    2  A    between atoms: C_10  and  C_11
REMARK    3  A    between atoms: C_11  and  C_12
REMARK                            x       y       z     vdW  Elec       q    Type
REMARK                         _______ _______ _______ _____ _____    ______ ____
ROOT
ATOM      1  C   UNL     1       2.277  -3.804  -1.482  0.00  0.00    +0.113 A 
ATOM      2  N   UNL     1       1.517  -4.682  -2.158  0.00  0.00    -0.343 N 
ATOM      3  H   UNL     1       0.722  -4.374  -2.622  0.00  0.00    +0.167 HD
ATOM      4  C   UNL     1       1.858  -6.019  -2.199  0.00  0.00    +0.053 A 
ATOM      5  C   UNL     1       1.096  -6.952  -2.888  0.00  0.00    +0.026 A 
ATOM      6  C   UNL     1       1.481  -8.276  -2.898  0.00  0.00    +0.002 A 
ATOM      7  C   UNL     1       2.624  -8.686  -2.226  0.00  0.00    +0.001 A 
ATOM      8  C   UNL     1       3.394  -7.775  -1.536  0.00  0.00    +0.015 A 
ATOM      9  C   UNL     1       3.017  -6.434  -1.517  0.00  0.00    +0.065 A 
ATOM     10  C   UNL     1       3.797  -5.412  -0.799  0.00  0.00    +0.281 A 
ATOM     11  O   UNL     1       4.810  -5.709  -0.189  0.00  0.00    -0.265 OA
ATOM     12  N   UNL     1       3.362  -4.138  -0.839  0.00  0.00    -0.195 NA
ENDROOT
BRANCH   1  13
ATOM     13  C   UNL     1       1.858  -2.356  -1.470  0.00  0.00    +0.097 C 
BRANCH  13  14
ATOM     14  C   UNL     1       1.730  -1.874  -0.024  0.00  0.00    +0.152 C 
BRANCH  14  23
ATOM     15  C   UNL     1       3.330   3.126  -0.014  0.00  0.00    +0.001 A 
ATOM     16  C   UNL     1       4.123   1.985  -0.028  0.00  0.00    +0.002 A 
ATOM     17  C   UNL     1       3.559   0.741  -0.029  0.00  0.00    +0.028 A 
ATOM     18  C   UNL     1       2.173   0.608  -0.015  0.00  0.00    +0.069 A 
ATOM     19  C   UNL     1       1.368   1.763  -0.002  0.00  0.00    +0.020 A 
ATOM     20  C   UNL     1       1.969   3.026  -0.002  0.00  0.00    +0.011 A 
ATOM     21  C   UNL     1      -0.016   1.298   0.009  0.00  0.00    +0.143 A 
ATOM     22  N   UNL     1       0.002  -0.004   0.002  0.00  0.00    -0.178 NA
ATOM     23  N   UNL     1       1.322  -0.467  -0.013  0.00  0.00    -0.263 N 
ENDBRANCH  14  23
ENDBRANCH  13  14
ENDBRANCH   1  13
TORSDOF 3
