REMARK  Name = ZINC23281171
REMARK  9 active torsions:
REMARK  status: ('A' for Active; 'I' for Inactive)
REMARK    1  A    between atoms: C_1  and  C_2
REMARK    2  A    between atoms: C_5  and  S_8
REMARK    3  A    between atoms: N_6  and  N_7
REMARK    4  A    between atoms: S_8  and  C_9
REMARK    5  A    between atoms: C_9  and  C_11
REMARK    6  A    between atoms: C_9  and  C_12
REMARK    7  A    between atoms: N_14  and  C_15
REMARK    8  A    between atoms: N_14  and  C_16
REMARK    9  A    between atoms: C_16  and  C_17
REMARK                            x       y       z     vdW  Elec       q    Type
REMARK                         _______ _______ _______ _____ _____    ______ ____
ROOT
ATOM      1  C   UNL     1      -3.183   3.119   5.073  0.00  0.00    +0.137 C 
ATOM      2  C   UNL     1      -2.252   4.331   5.006  0.00  0.00    +0.029 C 
ENDROOT
BRANCH   1   3
ATOM      3  C   UNL     1      -4.366   3.442   5.950  0.00  0.00    +0.229 C 
ATOM      4  O   UNL     1      -5.425   3.755   5.449  0.00  0.00    -0.274 OA
ATOM      5  N   UNL     1      -4.246   3.381   7.291  0.00  0.00    -0.299 N 
ATOM      6  C   UNL     1      -2.967   3.002   7.896  0.00  0.00    +0.132 C 
BRANCH   5   7
ATOM      7  C   UNL     1      -5.396   3.695   8.143  0.00  0.00    +0.142 C 
BRANCH   7   8
ATOM      8  C   UNL     1      -6.182   2.437   8.409  0.00  0.00    -0.030 A 
ATOM      9  C   UNL     1      -7.211   2.073   7.561  0.00  0.00    +0.006 A 
ATOM     10  C   UNL     1      -7.929   0.917   7.802  0.00  0.00    +0.015 A 
ATOM     11  C   UNL     1      -7.625   0.130   8.898  0.00  0.00    +0.018 A 
ATOM     12  C   UNL     1      -6.599   0.497   9.749  0.00  0.00    +0.015 A 
ATOM     13  C   UNL     1      -5.878   1.651   9.505  0.00  0.00    +0.006 A 
ATOM     14 BR   UNL     1      -8.611  -1.449   9.232  0.00  0.00    -0.050 Br
ENDBRANCH   7   8
ENDBRANCH   5   7
ENDBRANCH   1   3
BRANCH   1  15
ATOM     15  S   UNL     1      -3.761   2.710   3.407  0.00  0.00    -0.072 S 
BRANCH  15  20
ATOM     16  C   UNL     1      -0.013   1.086   0.008  0.00  0.00    +0.090 C 
ATOM     17  C   UNL     1      -0.718   1.572   1.248  0.00  0.00    +0.148 A 
ATOM     18  N   UNL     1      -0.166   1.831   2.399  0.00  0.00    -0.132 NA
ATOM     19  N   UNL     1      -1.056   2.226   3.237  0.00  0.00    -0.121 NA
ATOM     20  C   UNL     1      -2.236   2.241   2.660  0.00  0.00    +0.209 A 
ATOM     21  N   UNL     1      -2.056   1.828   1.371  0.00  0.00    -0.228 N 
BRANCH  21  22
ATOM     22  N   UNL     1      -3.013   1.697   0.406  0.00  0.00    -0.295 N 
ATOM     23  H   UNL     1      -4.062   1.938   0.635  0.00  0.00    +0.163 HD
ATOM     24  H   UNL     1      -2.736   1.350  -0.600  0.00  0.00    +0.163 HD
ENDBRANCH  21  22
ENDBRANCH  15  20
ENDBRANCH   1  15
TORSDOF 6
