REMARK  Name = ZINC39889661
REMARK  6 active torsions:
REMARK  status: ('A' for Active; 'I' for Inactive)
REMARK    1  A    between atoms: N_14  and  C_33
REMARK    2  A    between atoms: N_22  and  C_25
REMARK    3  A    between atoms: C_25  and  C_26
REMARK    4  A    between atoms: C_33  and  C_34
REMARK    5  A    between atoms: C_34  and  C_35
REMARK    6  A    between atoms: C_35  and  O_36
REMARK                            x       y       z     vdW  Elec       q    Type
REMARK                         _______ _______ _______ _____ _____    ______ ____
ROOT
ATOM      1  C   UNL     1      -0.017   1.363   0.009  0.00  0.00    +0.001 A 
ATOM      2  C   UNL     1       1.173   2.078   0.002  0.00  0.00    +0.004 A 
ATOM      3  C   UNL     1       2.387   1.427  -0.017  0.00  0.00    +0.047 A 
ATOM      4  C   UNL     1       2.432   0.033  -0.027  0.00  0.00    +0.139 A 
ATOM      5  C   UNL     1       1.222  -0.679  -0.012  0.00  0.00    +0.064 A 
ATOM      6  C   UNL     1       0.002  -0.004   0.002  0.00  0.00    +0.015 A 
ATOM      7  C   UNL     1       1.261  -2.164  -0.006  0.00  0.00    +0.199 A 
ATOM      8  O   UNL     1       0.271  -2.857  -0.161  0.00  0.00    -0.287 OA
ATOM      9  C   UNL     1       2.603  -2.717   0.202  0.00  0.00    +0.084 A 
ATOM     10  C   UNL     1       3.708  -1.911   0.173  0.00  0.00    +0.200 A 
ATOM     11  O   UNL     1       3.635  -0.585  -0.053  0.00  0.00    -0.450 OA
ATOM     12  C   UNL     1       4.897  -2.746   0.420  0.00  0.00    +0.284 C 
ATOM     13  O   UNL     1       6.039  -2.336   0.462  0.00  0.00    -0.267 OA
ATOM     14  N   UNL     1       4.530  -4.034   0.593  0.00  0.00    -0.273 N 
ATOM     15  C   UNL     1       3.070  -4.105   0.469  0.00  0.00    +0.174 C 
ATOM     16  C   UNL     1       2.658  -5.067  -0.599  0.00  0.00    +0.011 A 
ATOM     17  C   UNL     1       2.904  -5.090  -1.955  0.00  0.00    +0.008 A 
ATOM     18  C   UNL     1       2.366  -6.150  -2.676  0.00  0.00    +0.000 A 
ATOM     19  C   UNL     1       1.619  -7.133  -2.060  0.00  0.00    +0.002 A 
ATOM     20  C   UNL     1       1.366  -7.116  -0.697  0.00  0.00    +0.024 A 
ATOM     21  C   UNL     1       1.901  -6.057   0.039  0.00  0.00    +0.043 A 
ATOM     22  N   UNL     1       1.805  -5.793   1.393  0.00  0.00    -0.264 N 
ATOM     23  C   UNL     1       2.460  -4.664   1.736  0.00  0.00    +0.253 C 
ATOM     24  O   UNL     1       2.545  -4.187   2.848  0.00  0.00    -0.272 OA
ENDROOT
BRANCH  22  25
ATOM     25  C   UNL     1       1.077  -6.638   2.344  0.00  0.00    +0.148 C 
BRANCH  25  26
ATOM     26  C   UNL     1       2.008  -7.684   2.901  0.00  0.00    -0.030 A 
ATOM     27  C   UNL     1       2.138  -8.903   2.262  0.00  0.00    +0.006 A 
ATOM     28  C   UNL     1       2.992  -9.863   2.773  0.00  0.00    +0.020 A 
ATOM     29  C   UNL     1       3.716  -9.603   3.922  0.00  0.00    +0.041 A 
ATOM     30  C   UNL     1       3.586  -8.383   4.561  0.00  0.00    +0.020 A 
ATOM     31  C   UNL     1       2.736  -7.422   4.046  0.00  0.00    +0.006 A 
ATOM     32 CL   UNL     1       4.788 -10.809   4.564  0.00  0.00    -0.084 Cl
ENDBRANCH  25  26
ENDBRANCH  22  25
BRANCH  14  33
ATOM     33  C   UNL     1       5.429  -5.160   0.857  0.00  0.00    +0.112 C 
BRANCH  33  34
ATOM     34  C   UNL     1       5.612  -5.325   2.367  0.00  0.00    +0.047 C 
BRANCH  34  35
ATOM     35  C   UNL     1       6.551  -6.501   2.642  0.00  0.00    +0.157 C 
BRANCH  35  36
ATOM     36  O   UNL     1       6.721  -6.655   4.052  0.00  0.00    -0.395 OA
ATOM     37  H   UNL     1       7.306  -7.383   4.301  0.00  0.00    +0.209 HD
ENDBRANCH  35  36
ENDBRANCH  34  35
ENDBRANCH  33  34
ENDBRANCH  14  33
TORSDOF 6
