REMARK  Name = ZINC56746111
REMARK  8 active torsions:
REMARK  status: ('A' for Active; 'I' for Inactive)
REMARK    1  A    between atoms: C_1  and  C_2
REMARK    2  A    between atoms: C_7  and  C_9
REMARK    3  A    between atoms: C_7  and  N_25
REMARK    4  A    between atoms: C_9  and  N_10
REMARK    5  A    between atoms: N_16  and  C_19
REMARK    6  A    between atoms: C_19  and  C_20
REMARK    7  A    between atoms: N_25  and  C_26
REMARK    8  A    between atoms: N_25  and  C_27
REMARK                            x       y       z     vdW  Elec       q    Type
REMARK                         _______ _______ _______ _____ _____    ______ ____
ROOT
ATOM      1  N   UNL     1       1.267  -4.225   2.287  0.00  0.00    -0.301 N 
ATOM      2  C   UNL     1       1.719  -5.078   3.228  0.00  0.00    +0.302 C 
ATOM      3  O   UNL     1       2.379  -4.661   4.160  0.00  0.00    -0.253 OA
ATOM      4  N   UNL     1       1.439  -6.393   3.135  0.00  0.00    -0.283 N 
ATOM      5  C   UNL     1       1.823  -7.324   4.207  0.00  0.00    +0.124 C 
ATOM      6  C   UNL     1       0.591  -8.147   4.601  0.00  0.00    +0.104 C 
ATOM      7  N   UNL     1       0.025  -8.780   3.403  0.00  0.00    -0.294 NA
ATOM      8  C   UNL     1      -0.447  -7.774   2.442  0.00  0.00    +0.104 C 
ATOM      9  C   UNL     1       0.737  -6.935   1.962  0.00  0.00    +0.124 C 
ATOM     10  H   UNL     1       0.811  -4.566   1.502  0.00  0.00    +0.150 HD
ENDROOT
BRANCH   1  11
ATOM     11  C   UNL     1       1.466  -2.783   2.450  0.00  0.00    +0.094 C 
BRANCH  11  17
ATOM     12  C   UNL     1       1.300  -2.061  -2.492  0.00  0.00    +0.007 C 
ATOM     13  C   UNL     1       0.670  -1.678  -1.152  0.00  0.00    -0.015 C 
ATOM     14  C   UNL     1      -0.812  -2.060  -1.158  0.00  0.00    +0.003 C 
ATOM     15  C   UNL     1      -1.443  -1.677   0.182  0.00  0.00    -0.001 C 
ATOM     16  C   UNL     1      -0.729  -2.421   1.313  0.00  0.00    -0.010 C 
ATOM     17  C   UNL     1       0.752  -2.039   1.319  0.00  0.00    -0.050 C 
ATOM     18  C   UNL     1       1.383  -2.422  -0.021  0.00  0.00    -0.007 C 
BRANCH  17  19
ATOM     19  N   UNL     1       0.884  -0.591   1.526  0.00  0.00    +0.381 N 
ATOM     20  C   UNL     1       0.342  -0.233   2.844  0.00  0.00    -0.096 C 
ATOM     21  C   UNL     1       2.303  -0.214   1.462  0.00  0.00    -0.096 C 
ATOM     22  H   UNL     1       0.373  -0.100   0.807  0.00  0.00    -0.082 HD
ENDBRANCH  17  19
ENDBRANCH  11  17
ENDBRANCH   1  11
BRANCH   7  23
ATOM     23  C   UNL     1      -1.051  -9.713   3.759  0.00  0.00    +0.140 C 
BRANCH  23  24
ATOM     24  C   UNL     1      -1.439 -10.520   2.546  0.00  0.00    +0.062 A 
ATOM     25  C   UNL     1      -0.910 -11.748   2.312  0.00  0.00    +0.071 A 
ATOM     26  S   UNL     1      -1.731 -12.174   0.784  0.00  0.00    -0.084 S 
ATOM     27  C   UNL     1      -2.641 -10.769   0.612  0.00  0.00    +0.156 A 
ATOM     28  N   UNL     1      -2.311 -10.067   1.667  0.00  0.00    -0.251 NA
ENDBRANCH  23  24
ENDBRANCH   7  23
TORSDOF 5
