REMARK  Name = ZINC17178286
REMARK  2 active torsions:
REMARK  status: ('A' for Active; 'I' for Inactive)
REMARK    1  A    between atoms: C_4  and  C_7
REMARK    2  A    between atoms: C_15  and  C_17
REMARK                            x       y       z     vdW  Elec       q    Type
REMARK                         _______ _______ _______ _____ _____    ______ ____
ROOT
ATOM      1  C   UNL     1      -1.913   3.104  -2.468  0.00  0.00    +0.247 C 
ATOM      2  O   UNL     1      -1.305   2.726  -3.450  0.00  0.00    -0.270 OA
ATOM      3  N   UNL     1      -1.779   2.447  -1.298  0.00  0.00    -0.295 N 
ATOM      4  C   UNL     1      -0.995   1.206  -1.223  0.00  0.00    +0.127 C 
ATOM      5  C   UNL     1       0.081   1.372  -0.143  0.00  0.00    +0.127 C 
ATOM      6  N   UNL     1      -0.551   1.886   1.081  0.00  0.00    -0.293 N 
ATOM      7  C   UNL     1      -1.338   3.124   1.004  0.00  0.00    +0.127 C 
ATOM      8  C   UNL     1      -2.415   2.959  -0.076  0.00  0.00    +0.127 C 
ATOM      9  C   UNL     1      -0.415   1.230   2.250  0.00  0.00    +0.263 C 
ATOM     10  O   UNL     1       0.218   0.192   2.296  0.00  0.00    -0.268 OA
ENDROOT
BRANCH   1  14
ATOM     11  C   UNL     1      -4.463   6.492  -2.721  0.00  0.00    +0.000 A 
ATOM     12  C   UNL     1      -3.297   6.450  -3.466  0.00  0.00    +0.001 A 
ATOM     13  C   UNL     1      -2.465   5.352  -3.388  0.00  0.00    +0.013 A 
ATOM     14  C   UNL     1      -2.800   4.283  -2.556  0.00  0.00    +0.037 A 
ATOM     15  C   UNL     1      -3.980   4.330  -1.811  0.00  0.00    +0.013 A 
ATOM     16  C   UNL     1      -4.801   5.436  -1.894  0.00  0.00    +0.001 A 
ENDBRANCH   1  14
BRANCH   9  17
ATOM     17  C   UNL     1      -1.029   1.768   3.468  0.00  0.00    +0.102 A 
ATOM     18  C   UNL     1      -1.422   1.042   4.572  0.00  0.00    +0.032 A 
ATOM     19  C   UNL     1      -1.951   1.950   5.495  0.00  0.00    +0.020 A 
ATOM     20  C   UNL     1      -1.882   3.187   4.947  0.00  0.00    +0.083 A 
ATOM     21  N   UNL     1      -1.323   3.090   3.716  0.00  0.00    -0.357 N 
ATOM     22  H   UNL     1      -1.159   3.829   3.109  0.00  0.00    +0.165 HD
ENDBRANCH   9  17
TORSDOF 2
