REMARK  Name = ZINC20916351
REMARK  11 active torsions:
REMARK  status: ('A' for Active; 'I' for Inactive)
REMARK    1  A    between atoms: C_2  and  C_3
REMARK    2  A    between atoms: C_3  and  S_4
REMARK    3  A    between atoms: S_4  and  C_5
REMARK    4  A    between atoms: C_10  and  N_11
REMARK    5  A    between atoms: C_12  and  C_14
REMARK    6  A    between atoms: C_14  and  S_15
REMARK    7  A    between atoms: S_15  and  C_16
REMARK    8  A    between atoms: N_20  and  N_21
REMARK    9  A    between atoms: N_22  and  N_23
REMARK   10  A    between atoms: C_24  and  C_25
REMARK   11  A    between atoms: C_34  and  O_35
REMARK                            x       y       z     vdW  Elec       q    Type
REMARK                         _______ _______ _______ _____ _____    ______ ____
ROOT
ATOM      1  C   UNL     1      -3.236  11.553   0.133  0.00  0.00    +0.210 A 
ATOM      2  N   UNL     1      -1.924  11.544   0.125  0.00  0.00    -0.119 NA
ATOM      3  N   UNL     1      -1.500  10.208   0.130  0.00  0.00    -0.109 NA
ATOM      4  C   UNL     1      -2.566   9.445   0.133  0.00  0.00    +0.254 A 
ATOM      5  N   UNL     1      -3.667  10.256   0.138  0.00  0.00    -0.211 N 
ATOM      6  N   UNL     1      -2.576   8.058   0.136  0.00  0.00    -0.204 N 
ATOM      7  H   UNL     1      -3.532   7.515   0.143  0.00  0.00    +0.177 HD
ENDROOT
BRANCH   5   8
ATOM      8  N   UNL     1      -4.969   9.843   0.146  0.00  0.00    -0.294 N 
ATOM      9  H   UNL     1      -5.205   8.769   0.150  0.00  0.00    +0.163 HD
ATOM     10  H   UNL     1      -5.781  10.585   0.149  0.00  0.00    +0.163 HD
ENDBRANCH   5   8
BRANCH   6  11
ATOM     11  N   UNL     1      -1.367   7.349   0.130  0.00  0.00    -0.187 NA
ATOM     12  C   UNL     1      -1.376   6.049   0.133  0.00  0.00    +0.142 C 
BRANCH  12  13
ATOM     13  C   UNL     1      -0.109   5.305   0.126  0.00  0.00    +0.044 A 
ATOM     14  C   UNL     1      -0.100   3.844   0.129  0.00  0.00    -0.006 A 
ATOM     15  C   UNL     1      -1.291   3.106   0.138  0.00  0.00    +0.009 A 
ATOM     16  C   UNL     1      -1.239   1.744   0.136  0.00  0.00    +0.001 A 
ATOM     17  C   UNL     1      -0.018   1.074   0.135  0.00  0.00    +0.001 A 
ATOM     18  C   UNL     1       1.158   1.760   0.126  0.00  0.00    +0.008 A 
ATOM     19  C   UNL     1       1.143   3.166   0.123  0.00  0.00    -0.017 A 
ATOM     20  C   UNL     1       2.337   3.908   0.113  0.00  0.00    +0.012 A 
ATOM     21  C   UNL     1       2.311   5.267   0.111  0.00  0.00    +0.046 A 
ATOM     22  C   UNL     1       1.113   5.979   0.117  0.00  0.00    +0.126 A 
BRANCH  22  23
ATOM     23  O   UNL     1       1.134   7.337   0.114  0.00  0.00    -0.506 OA
ATOM     24  H   UNL     1       2.095   7.872   0.106  0.00  0.00    +0.292 HD
ENDBRANCH  22  23
ENDBRANCH  12  13
ENDBRANCH   6  11
BRANCH   1  25
ATOM     25  S   UNL     1      -4.261  12.985   0.137  0.00  0.00    -0.075 S 
BRANCH  25  26
ATOM     26  C   UNL     1      -3.086  14.367   0.128  0.00  0.00    +0.173 C 
BRANCH  26  28
ATOM     27  N   UNL     1      -3.171  16.839   0.124  0.00  0.00    -0.284 N 
ATOM     28  C   UNL     1      -3.843  15.670   0.130  0.00  0.00    +0.228 C 
ATOM     29  O   UNL     1      -5.056  15.667   0.138  0.00  0.00    -0.275 OA
ATOM     30  H   UNL     1      -2.074  16.843   0.191  0.00  0.00    +0.155 HD
BRANCH  27  36
ATOM     31  C   UNL     1      -3.325  19.122  -0.672  0.00  0.00    +0.029 A 
ATOM     32  C   UNL     1      -4.025  20.318  -0.759  0.00  0.00    +0.016 A 
ATOM     33  C   UNL     1      -5.260  20.442  -0.150  0.00  0.00    +0.001 A 
ATOM     34  C   UNL     1      -5.802  19.377   0.546  0.00  0.00    +0.002 A 
ATOM     35  C   UNL     1      -5.114  18.181   0.634  0.00  0.00    +0.024 A 
ATOM     36  C   UNL     1      -3.872  18.049   0.032  0.00  0.00    +0.047 A 
BRANCH  31  37
ATOM     37  S   UNL     1      -1.751  18.961  -1.447  0.00  0.00    -0.119 S 
BRANCH  37  38
ATOM     38  C   UNL     1      -1.473  20.580  -2.216  0.00  0.00    +0.101 C 
BRANCH  38  40
ATOM     39  C   UNL     1      -0.093  20.701  -4.227  0.00  0.00    +0.005 C 
ATOM     40  C   UNL     1      -0.142  20.578  -2.924  0.00  0.00    -0.024 C 
ENDBRANCH  38  40
ENDBRANCH  37  38
ENDBRANCH  31  37
ENDBRANCH  27  36
ENDBRANCH  26  28
ENDBRANCH  25  26
ENDBRANCH   1  25
TORSDOF 11
