REMARK  Name = ZINC42134659
REMARK  4 active torsions:
REMARK  status: ('A' for Active; 'I' for Inactive)
REMARK    1  A    between atoms: C_1  and  C_2
REMARK    2  A    between atoms: C_2  and  C_3
REMARK    3  A    between atoms: C_9  and  N_11
REMARK    4  A    between atoms: N_11  and  C_12
REMARK                            x       y       z     vdW  Elec       q    Type
REMARK                         _______ _______ _______ _____ _____    ______ ____
ROOT
ATOM      1  C   UNL     1       1.082  -4.065   0.090  0.00  0.00    +0.052 C 
ATOM      2  C   UNL     1       1.773  -4.686  -1.103  0.00  0.00    +0.004 A 
ATOM      3  C   UNL     1       0.778  -5.297  -1.856  0.00  0.00    +0.041 A 
ATOM      4  C   UNL     1       1.131  -5.958  -3.030  0.00  0.00    +0.062 A 
ATOM      5  C   UNL     1       2.452  -6.001  -3.433  0.00  0.00    +0.128 A 
ATOM      6  C   UNL     1       3.435  -5.388  -2.675  0.00  0.00    +0.077 A 
ATOM      7  C   UNL     1       3.091  -4.729  -1.505  0.00  0.00    +0.130 A 
ATOM      8  F   UNL     1       4.045  -4.129  -0.760  0.00  0.00    -0.205 F 
ATOM      9  F   UNL     1       2.787  -6.645  -4.573  0.00  0.00    -0.205 F 
ATOM     10  N   UNL     1      -0.465  -5.117  -1.249  0.00  0.00    -0.286 N 
ATOM     11  C   UNL     1      -0.379  -4.410  -0.106  0.00  0.00    +0.208 C 
ATOM     12  O   UNL     1      -1.296  -4.106   0.627  0.00  0.00    -0.277 OA
ATOM     13  H   UNL     1      -1.297  -5.464  -1.608  0.00  0.00    +0.155 HD
ENDROOT
BRANCH   1  14
ATOM     14  N   UNL     1       1.271  -2.608   0.093  0.00  0.00    +0.391 N 
ATOM     15  H   UNL     1       0.837  -2.211  -0.727  0.00  0.00    -0.084 HD
ATOM     16  H   UNL     1       2.258  -2.397   0.087  0.00  0.00    -0.084 HD
BRANCH  14  22
ATOM     17  C   UNL     1       0.742  -0.511   1.242  0.00  0.00    -0.025 C 
ATOM     18  C   UNL     1       2.210  -0.086   1.169  0.00  0.00    +0.002 C 
ATOM     19  C   UNL     1       2.950  -0.593   2.408  0.00  0.00    +0.000 C 
ATOM     20  C   UNL     1       2.863  -2.119   2.465  0.00  0.00    -0.002 C 
ATOM     21  C   UNL     1       1.395  -2.544   2.538  0.00  0.00    -0.015 C 
ATOM     22  C   UNL     1       0.655  -2.037   1.299  0.00  0.00    -0.067 C 
BRANCH  17  24
ATOM     23  C   UNL     1      -0.019   1.526   0.010  0.00  0.00    +0.004 C 
ATOM     24  C   UNL     1       0.002  -0.004   0.002  0.00  0.00    -0.002 C 
ENDBRANCH  17  24
ENDBRANCH  14  22
ENDBRANCH   1  14
TORSDOF 3
