REMARK  Name = ZINC09905971
REMARK  4 active torsions:
REMARK  status: ('A' for Active; 'I' for Inactive)
REMARK    1  A    between atoms: C_7  and  C_16
REMARK    2  A    between atoms: C_8  and  C_11
REMARK    3  A    between atoms: N_26  and  C_27
REMARK    4  A    between atoms: C_27  and  C_28
REMARK                            x       y       z     vdW  Elec       q    Type
REMARK                         _______ _______ _______ _____ _____    ______ ____
ROOT
ATOM      1  C   UNL     1      -2.732  -0.141  -2.403  0.00  0.00    +0.141 C 
ATOM      2  C   UNL     1      -3.060  -0.608  -3.799  0.00  0.00    -0.010 A 
ATOM      3  C   UNL     1      -3.809  -0.072  -4.821  0.00  0.00    +0.006 A 
ATOM      4  C   UNL     1      -3.935  -0.756  -6.018  0.00  0.00    +0.000 A 
ATOM      5  C   UNL     1      -3.308  -1.978  -6.191  0.00  0.00    +0.001 A 
ATOM      6  C   UNL     1      -2.556  -2.525  -5.172  0.00  0.00    +0.013 A 
ATOM      7  C   UNL     1      -2.424  -1.841  -3.962  0.00  0.00    +0.042 A 
ATOM      8  C   UNL     1      -1.703  -2.158  -2.715  0.00  0.00    +0.248 C 
ATOM      9  O   UNL     1      -1.045  -3.163  -2.529  0.00  0.00    -0.270 OA
ATOM     10  N   UNL     1      -1.876  -1.176  -1.813  0.00  0.00    -0.282 N 
ENDROOT
BRANCH   1  17
ATOM     11  C   UNL     1      -5.696  -3.226  -0.502  0.00  0.00    +0.001 A 
ATOM     12  C   UNL     1      -6.750  -2.624   0.172  0.00  0.00    +0.002 A 
ATOM     13  C   UNL     1      -6.850  -1.251   0.235  0.00  0.00    +0.026 A 
ATOM     14  C   UNL     1      -5.889  -0.457  -0.381  0.00  0.00    +0.047 A 
ATOM     15  C   UNL     1      -4.825  -1.073  -1.069  0.00  0.00    +0.006 A 
ATOM     16  C   UNL     1      -4.740  -2.467  -1.115  0.00  0.00    +0.010 A 
ATOM     17  C   UNL     1      -3.995   0.009  -1.594  0.00  0.00    +0.011 A 
ATOM     18  C   UNL     1      -4.582   1.177  -1.219  0.00  0.00    +0.059 A 
ATOM     19  N   UNL     1      -5.719   0.906  -0.491  0.00  0.00    -0.353 N 
ATOM     20  H   UNL     1      -6.311   1.575  -0.112  0.00  0.00    +0.166 HD
BRANCH  18  21
ATOM     21  C   UNL     1      -4.080   2.522  -1.542  0.00  0.00    +0.036 A 
ATOM     22  C   UNL     1      -4.766   3.611  -2.018  0.00  0.00    +0.017 A 
ATOM     23  C   UNL     1      -4.075   4.779  -2.248  0.00  0.00    +0.008 A 
ATOM     24  C   UNL     1      -2.741   4.820  -1.998  0.00  0.00    +0.046 A 
ATOM     25  S   UNL     1      -2.420   3.166  -1.408  0.00  0.00    -0.095 S 
ENDBRANCH  18  21
ENDBRANCH   1  17
BRANCH  10  26
ATOM     26  C   UNL     1      -1.308  -1.147  -0.463  0.00  0.00    +0.144 C 
BRANCH  26  27
ATOM     27  C   UNL     1       0.040  -0.475  -0.499  0.00  0.00    -0.026 A 
ATOM     28  C   UNL     1       1.180  -1.227  -0.712  0.00  0.00    +0.009 A 
ATOM     29  C   UNL     1       2.419  -0.615  -0.746  0.00  0.00    +0.050 A 
ATOM     30  C   UNL     1       2.521   0.755  -0.566  0.00  0.00    +0.166 A 
ATOM     31  C   UNL     1       1.372   1.513  -0.351  0.00  0.00    +0.167 A 
ATOM     32  C   UNL     1       0.134   0.892  -0.319  0.00  0.00    +0.054 A 
ATOM     33  O   UNL     1       1.734   2.821  -0.205  0.00  0.00    -0.453 OA
ATOM     34  C   UNL     1       3.146   2.801   0.076  0.00  0.00    +0.466 C 
ATOM     35  O   UNL     1       3.602   1.588  -0.553  0.00  0.00    -0.453 OA
ENDBRANCH  26  27
ENDBRANCH  10  26
TORSDOF 4
