REMARK  Name = ZINC17477981
REMARK  5 active torsions:
REMARK  status: ('A' for Active; 'I' for Inactive)
REMARK    1  A    between atoms: C_1  and  C_2
REMARK    2  A    between atoms: C_9  and  N_13
REMARK    3  A    between atoms: C_10  and  C_11
REMARK    4  A    between atoms: C_14  and  C_16
REMARK    5  A    between atoms: C_16  and  N_17
REMARK                            x       y       z     vdW  Elec       q    Type
REMARK                         _______ _______ _______ _____ _____    ______ ____
ROOT
ATOM      1  N   UNL     1       0.696  -5.849   2.431  0.00  0.00    -0.277 N 
ATOM      2  C   UNL     1       1.678  -6.098   3.319  0.00  0.00    +0.238 C 
ATOM      3  O   UNL     1       2.384  -5.194   3.713  0.00  0.00    -0.273 OA
ATOM      4  H   UNL     1       0.132  -6.573   2.116  0.00  0.00    +0.155 HD
ENDROOT
BRANCH   1  12
ATOM      5  C   UNL     1      -0.019   1.526   0.010  0.00  0.00    +0.008 C 
ATOM      6  C   UNL     1       0.002  -0.004   0.002  0.00  0.00    -0.009 C 
ATOM      7  C   UNL     1      -1.434  -0.537   0.019  0.00  0.00    +0.008 C 
ATOM      8  C   UNL     1      -1.433  -2.045  -0.237  0.00  0.00    +0.037 C 
ATOM      9  C   UNL     1      -0.464  -2.704   0.734  0.00  0.00    -0.018 A 
ATOM     10  C   UNL     1       0.485  -1.986   1.374  0.00  0.00    -0.004 A 
ATOM     11  S   UNL     1       1.344  -3.168   2.371  0.00  0.00    -0.077 S 
ATOM     12  C   UNL     1       0.493  -4.558   1.966  0.00  0.00    +0.090 A 
ATOM     13  C   UNL     1      -0.459  -4.119   1.059  0.00  0.00    +0.084 A 
ATOM     14  C   UNL     1       0.739  -0.515   1.248  0.00  0.00    +0.046 C 
BRANCH  13  15
ATOM     15  C   UNL     1      -1.399  -5.024   0.469  0.00  0.00    +0.102 C 
ATOM     16  N   UNL     1      -2.144  -5.741   0.000  0.00  0.00    -0.191 NA
ENDBRANCH  13  15
ENDBRANCH   1  12
BRANCH   2  17
ATOM     17  C   UNL     1       1.900  -7.501   3.824  0.00  0.00    +0.222 C 
BRANCH  17  18
ATOM     18  N   UNL     1       3.016  -7.508   4.772  0.00  0.00    -0.290 N 
ATOM     19  C   UNL     1       4.282  -7.707   4.320  0.00  0.00    +0.203 A 
ATOM     20  N   UNL     1       5.323  -7.727   5.096  0.00  0.00    -0.237 NA
ATOM     21  C   UNL     1       5.214  -7.548   6.437  0.00  0.00    +0.078 A 
ATOM     22  C   UNL     1       6.333  -7.569   7.272  0.00  0.00    +0.028 A 
ATOM     23  C   UNL     1       6.176  -7.382   8.627  0.00  0.00    +0.002 A 
ATOM     24  C   UNL     1       4.917  -7.172   9.175  0.00  0.00    +0.001 A 
ATOM     25  C   UNL     1       3.799  -7.147   8.371  0.00  0.00    +0.015 A 
ATOM     26  C   UNL     1       3.936  -7.334   6.998  0.00  0.00    +0.065 A 
ATOM     27  C   UNL     1       2.779  -7.311   6.090  0.00  0.00    +0.262 A 
ATOM     28  O   UNL     1       1.650  -7.127   6.509  0.00  0.00    -0.267 OA
ENDBRANCH  17  18
ENDBRANCH   2  17
TORSDOF 4
