REMARK  Name = ZINC49720590
REMARK  7 active torsions:
REMARK  status: ('A' for Active; 'I' for Inactive)
REMARK    1  A    between atoms: C_5  and  S_16
REMARK    2  A    between atoms: C_6  and  N_7
REMARK    3  A    between atoms: N_7  and  C_8
REMARK    4  A    between atoms: S_16  and  N_19
REMARK    5  A    between atoms: C_20  and  C_21
REMARK    6  A    between atoms: C_21  and  N_22
REMARK    7  A    between atoms: N_25  and  C_26
REMARK                            x       y       z     vdW  Elec       q    Type
REMARK                         _______ _______ _______ _____ _____    ______ ____
ROOT
ATOM      1  S   UNL     1       1.083  -2.455  -0.153  0.00  0.00    +0.103 S 
ATOM      2  O   UNL     1       0.208  -3.066  -1.092  0.00  0.00    -0.146 OA
ATOM      3  O   UNL     1       2.492  -2.631  -0.199  0.00  0.00    -0.146 OA
ENDROOT
BRANCH   1   8
ATOM      4  C   UNL     1      -0.694   1.160  -0.277  0.00  0.00    +0.042 A 
ATOM      5  C   UNL     1       0.413   1.975  -0.394  0.00  0.00    +0.084 A 
ATOM      6  N   UNL     1       1.629   1.463  -0.434  0.00  0.00    -0.365 N 
ATOM      7  C   UNL     1       1.841   0.162  -0.364  0.00  0.00    +0.113 A 
ATOM      8  C   UNL     1       0.788  -0.720  -0.245  0.00  0.00    +0.149 A 
ATOM      9  C   UNL     1      -0.513  -0.221  -0.200  0.00  0.00    +0.057 A 
ATOM     10  H   UNL     1       2.389   2.060  -0.517  0.00  0.00    +0.165 HD
BRANCH   9  11
ATOM     11  N   UNL     1      -1.604  -1.077  -0.081  0.00  0.00    -0.339 N 
ATOM     12  H   UNL     1      -1.464  -2.036  -0.028  0.00  0.00    +0.146 HD
BRANCH  11  13
ATOM     13  C   UNL     1      -2.962  -0.532  -0.035  0.00  0.00    +0.070 C 
ATOM     14  C   UNL     1      -3.304  -0.135   1.403  0.00  0.00    +0.022 C 
ATOM     15  C   UNL     1      -4.529   0.781   1.401  0.00  0.00    +0.002 C 
ATOM     16  C   UNL     1      -4.388   1.821   0.288  0.00  0.00    +0.000 C 
ATOM     17  C   UNL     1      -5.450   1.568  -0.784  0.00  0.00    +0.000 C 
ATOM     18  C   UNL     1      -5.038   0.365  -1.635  0.00  0.00    +0.000 C 
ATOM     19  C   UNL     1      -5.291  -0.924  -0.852  0.00  0.00    +0.002 C 
ATOM     20  C   UNL     1      -3.954  -1.591  -0.520  0.00  0.00    +0.022 C 
ENDBRANCH  11  13
ENDBRANCH   9  11
ENDBRANCH   1   8
BRANCH   1  21
ATOM     21  N   UNL     1       0.591  -2.956   1.347  0.00  0.00    -0.116 NA
ATOM     22  C   UNL     1       0.636  -4.211   1.656  0.00  0.00    +0.144 C 
ATOM     23  N   UNL     1       0.304  -4.617   2.922  0.00  0.00    -0.327 N 
ATOM     24  H   UNL     1       0.417  -5.545   3.179  0.00  0.00    +0.148 HD
BRANCH  23  25
ATOM     25  C   UNL     1      -0.222  -3.648   3.887  0.00  0.00    +0.072 C 
ATOM     26  C   UNL     1       0.942  -2.935   4.579  0.00  0.00    +0.022 C 
ATOM     27  C   UNL     1       0.425  -1.675   5.276  0.00  0.00    +0.002 C 
ATOM     28  C   UNL     1      -0.537  -0.934   4.345  0.00  0.00    +0.000 C 
ATOM     29  C   UNL     1      -1.951  -0.986   4.927  0.00  0.00    +0.000 C 
ATOM     30  C   UNL     1      -2.545  -2.377   4.699  0.00  0.00    +0.000 C 
ATOM     31  C   UNL     1      -1.927  -3.365   5.691  0.00  0.00    +0.002 C 
ATOM     32  C   UNL     1      -1.067  -4.378   4.933  0.00  0.00    +0.022 C 
ENDBRANCH  23  25
BRANCH  22  33
ATOM     33  C   UNL     1       1.054  -5.227   0.625  0.00  0.00    +0.283 C 
BRANCH  33  34
ATOM     34  N   UNL     1       0.867  -6.576   1.164  0.00  0.00    +0.030 N 
ATOM     35  O   UNL     1      -0.204  -6.903   1.619  0.00  0.00    -0.131 OA
ATOM     36  O   UNL     1       1.785  -7.363   1.155  0.00  0.00    -0.131 OA
ENDBRANCH  33  34
ENDBRANCH  22  33
ENDBRANCH   1  21
TORSDOF 7
