REMARK  Name = ZINC14584283
REMARK  10 active torsions:
REMARK  status: ('A' for Active; 'I' for Inactive)
REMARK    1  A    between atoms: C_1  and  C_2
REMARK    2  A    between atoms: C_2  and  N_3
REMARK    3  A    between atoms: N_3  and  C_4
REMARK    4  A    between atoms: C_5  and  N_20
REMARK    5  A    between atoms: N_6  and  C_13
REMARK    6  A    between atoms: C_13  and  C_14
REMARK    7  A    between atoms: C_21  and  C_23
REMARK    8  A    between atoms: C_23  and  C_24
REMARK    9  A    between atoms: C_25  and  C_35
REMARK   10  A    between atoms: C_33  and  C_34
REMARK                            x       y       z     vdW  Elec       q    Type
REMARK                         _______ _______ _______ _____ _____    ______ ____
ROOT
ATOM      1  C   UNL     1       0.109  -0.659   2.445  0.00  0.00    +0.140 A 
ATOM      2  C   UNL     1      -0.883  -1.599   2.635  0.00  0.00    +0.128 A 
ATOM      3  N   UNL     1      -1.444  -1.741   3.882  0.00  0.00    -0.276 N 
ATOM      4  C   UNL     1      -1.038  -0.965   4.904  0.00  0.00    +0.331 A 
ATOM      5  O   UNL     1      -1.550  -1.103   5.998  0.00  0.00    -0.246 OA
ATOM      6  N   UNL     1      -0.077  -0.040   4.737  0.00  0.00    -0.273 N 
ATOM      7  H   UNL     1       0.206   0.524   5.512  0.00  0.00    +0.173 HD
ATOM      8  C   UNL     1       0.509   0.136   3.536  0.00  0.00    +0.277 A 
ATOM      9  O   UNL     1       1.380   0.978   3.395  0.00  0.00    -0.266 OA
ENDROOT
BRANCH   1  10
ATOM     10  N   UNL     1       0.707  -0.492   1.178  0.00  0.00    -0.264 N 
ATOM     11  C   UNL     1       2.011  -0.792   1.004  0.00  0.00    +0.224 C 
ATOM     12  O   UNL     1       2.645  -1.295   1.908  0.00  0.00    -0.275 OA
BRANCH  10  14
ATOM     13  C   UNL     1      -0.102   1.536   0.077  0.00  0.00    +0.025 C 
ATOM     14  C   UNL     1      -0.087   0.006   0.053  0.00  0.00    +0.110 C 
ENDBRANCH  10  14
BRANCH  11  15
ATOM     15  C   UNL     1       2.681  -0.502  -0.315  0.00  0.00    +0.133 C 
BRANCH  15  16
ATOM     16  C   UNL     1       4.125  -0.928  -0.249  0.00  0.00    -0.014 A 
ATOM     17  C   UNL     1       4.481  -2.197  -0.608  0.00  0.00    -0.036 A 
ATOM     18  C   UNL     1       5.840  -2.553  -0.531  0.00  0.00    +0.004 A 
ATOM     19  C   UNL     1       6.281  -3.839  -0.884  0.00  0.00    +0.010 A 
ATOM     20  C   UNL     1       7.605  -4.144  -0.795  0.00  0.00    +0.001 A 
ATOM     21  C   UNL     1       8.530  -3.196  -0.360  0.00  0.00    +0.002 A 
ATOM     22  C   UNL     1       8.138  -1.941  -0.011  0.00  0.00    +0.028 A 
ATOM     23  C   UNL     1       6.779  -1.588  -0.088  0.00  0.00    +0.072 A 
ATOM     24  N   UNL     1       6.364  -0.362   0.247  0.00  0.00    -0.252 NA
ATOM     25  C   UNL     1       5.099  -0.026   0.172  0.00  0.00    +0.043 A 
ATOM     26  C   UNL     1       4.688   1.371   0.558  0.00  0.00    +0.066 C 
ATOM     27  C   UNL     1       3.446  -3.189  -1.073  0.00  0.00    +0.045 C 
ENDBRANCH  15  16
ENDBRANCH  11  15
ENDBRANCH   1  10
BRANCH   2  28
ATOM     28  N   UNL     1      -1.301  -2.389   1.590  0.00  0.00    -0.343 N 
ATOM     29  H   UNL     1      -0.951  -2.238   0.698  0.00  0.00    +0.144 HD
ATOM     30  H   UNL     1      -1.947  -3.096   1.745  0.00  0.00    +0.144 HD
ENDBRANCH   2  28
BRANCH   3  31
ATOM     31  C   UNL     1      -2.494  -2.739   4.099  0.00  0.00    +0.163 C 
BRANCH  31  32
ATOM     32  C   UNL     1      -3.841  -2.117   3.833  0.00  0.00    -0.028 A 
ATOM     33  C   UNL     1      -4.537  -1.509   4.862  0.00  0.00    +0.005 A 
ATOM     34  C   UNL     1      -5.770  -0.934   4.617  0.00  0.00    +0.000 A 
ATOM     35  C   UNL     1      -6.312  -0.977   3.346  0.00  0.00    +0.000 A 
ATOM     36  C   UNL     1      -5.619  -1.590   2.319  0.00  0.00    +0.000 A 
ATOM     37  C   UNL     1      -4.384  -2.160   2.563  0.00  0.00    +0.005 A 
ENDBRANCH  31  32
ENDBRANCH   3  31
TORSDOF 7
