REMARK  Name = ZINC67462509
REMARK  10 active torsions:
REMARK  status: ('A' for Active; 'I' for Inactive)
REMARK    1  A    between atoms: C_1  and  C_2
REMARK    2  A    between atoms: C_3  and  C_9
REMARK    3  A    between atoms: C_4  and  C_8
REMARK    4  A    between atoms: N_5  and  C_7
REMARK    5  A    between atoms: C_9  and  C_11
REMARK    6  A    between atoms: C_9  and  N_12
REMARK    7  A    between atoms: N_15  and  C_16
REMARK    8  A    between atoms: C_16  and  C_17
REMARK    9  A    between atoms: N_22  and  C_23
REMARK   10  A    between atoms: C_23  and  C_24
REMARK                            x       y       z     vdW  Elec       q    Type
REMARK                         _______ _______ _______ _____ _____    ______ ____
ROOT
ATOM      1  N   UNL     1      -0.538   0.318  -3.185  0.00  0.00    -0.293 N 
ATOM      2  C   UNL     1      -1.024   0.870  -4.314  0.00  0.00    +0.300 C 
ATOM      3  O   UNL     1      -0.632   0.482  -5.398  0.00  0.00    -0.253 OA
ATOM      4  N   UNL     1      -1.945   1.852  -4.242  0.00  0.00    -0.301 N 
ATOM      5  H   UNL     1      -0.851   0.627  -2.320  0.00  0.00    +0.151 HD
ATOM      6  H   UNL     1      -2.257   2.161  -3.378  0.00  0.00    +0.150 HD
ENDROOT
BRANCH   1   7
ATOM      7  C   UNL     1       0.463  -0.749  -3.263  0.00  0.00    +0.105 C 
ATOM      8  C   UNL     1       1.862  -0.133  -3.324  0.00  0.00    +0.033 C 
BRANCH   7  11
ATOM      9  C   UNL     1       0.395  -3.917  -3.255  0.00  0.00    +0.068 C 
ATOM     10  C   UNL     1       0.325  -3.028  -2.040  0.00  0.00    +0.065 A 
ATOM     11  C   UNL     1       0.354  -1.630  -2.045  0.00  0.00    +0.016 A 
ATOM     12  C   UNL     1       0.269  -1.207  -0.762  0.00  0.00    +0.041 A 
ATOM     13  N   UNL     1       0.188  -2.300   0.026  0.00  0.00    -0.271 N 
ATOM     14  N   UNL     1       0.220  -3.431  -0.800  0.00  0.00    -0.176 NA
ATOM     15  C   UNL     1       0.081  -2.302   1.487  0.00  0.00    +0.172 C 
ATOM     16  C   UNL     1       0.265   0.226  -0.297  0.00  0.00    +0.065 C 
ENDBRANCH   7  11
ENDBRANCH   1   7
BRANCH   4  17
ATOM     17  C   UNL     1      -2.473   2.452  -5.470  0.00  0.00    +0.090 C 
BRANCH  17  18
ATOM     18  C   UNL     1      -3.453   3.570  -5.110  0.00  0.00    -0.051 C 
ATOM     19  C   UNL     1      -4.266   3.977  -6.357  0.00  0.00    -0.016 C 
ATOM     20  C   UNL     1      -4.381   5.517  -6.212  0.00  0.00    -0.020 C 
ATOM     21  C   UNL     1      -3.009   5.877  -5.591  0.00  0.00    -0.078 C 
ATOM     22  N   UNL     1      -2.710   4.762  -4.661  0.00  0.00    +0.383 N 
ATOM     23  H   UNL     1      -2.999   5.010  -3.726  0.00  0.00    -0.081 HD
BRANCH  22  24
ATOM     24  C   UNL     1      -1.269   4.480  -4.672  0.00  0.00    -0.075 C 
BRANCH  24  25
ATOM     25  C   UNL     1      -0.519   5.629  -3.994  0.00  0.00    -0.028 C 
ATOM     26  C   UNL     1      -0.570   6.869  -4.889  0.00  0.00    +0.002 C 
ATOM     27  C   UNL     1       0.180   8.018  -4.211  0.00  0.00    +0.000 C 
ATOM     28  C   UNL     1       1.637   7.612  -3.985  0.00  0.00    +0.000 C 
ATOM     29  C   UNL     1       1.689   6.372  -3.091  0.00  0.00    +0.000 C 
ATOM     30  C   UNL     1       0.939   5.223  -3.768  0.00  0.00    +0.002 C 
ENDBRANCH  24  25
ENDBRANCH  22  24
ENDBRANCH  17  18
ENDBRANCH   4  17
TORSDOF 6
