REMARK  Name = ZINC67163960
REMARK  13 active torsions:
REMARK  status: ('A' for Active; 'I' for Inactive)
REMARK    1  A    between atoms: C_1  and  C_2
REMARK    2  A    between atoms: N_8  and  C_9
REMARK    3  A    between atoms: C_9  and  C_11
REMARK    4  A    between atoms: C_9  and  C_12
REMARK    5  A    between atoms: C_12  and  N_13
REMARK    6  A    between atoms: C_14  and  C_16
REMARK    7  A    between atoms: C_16  and  C_18
REMARK    8  A    between atoms: C_16  and  N_19
REMARK    9  A    between atoms: C_20  and  O_22
REMARK   10  A    between atoms: O_22  and  C_23
REMARK   11  A    between atoms: C_23  and  C_24
REMARK   12  A    between atoms: C_23  and  C_25
REMARK   13  A    between atoms: C_23  and  C_26
REMARK                            x       y       z     vdW  Elec       q    Type
REMARK                         _______ _______ _______ _____ _____    ______ ____
ROOT
ATOM      1  N   UNL     1      -1.190   2.050   1.089  0.00  0.00    -0.315 N 
ATOM      2  C   UNL     1      -1.053   3.211   0.417  0.00  0.00    +0.233 C 
ATOM      3  O   UNL     1      -0.230   4.026   0.777  0.00  0.00    -0.274 OA
ATOM      4  H   UNL     1      -1.798   1.369   0.761  0.00  0.00    +0.149 HD
ENDROOT
BRANCH   2   5
ATOM      5  C   UNL     1      -1.923   3.495  -0.780  0.00  0.00    +0.159 C 
ATOM      6  C   UNL     1      -1.340   2.797  -2.011  0.00  0.00    +0.038 C 
BRANCH   5   7
ATOM      7  N   UNL     1      -1.971   4.940  -1.016  0.00  0.00    -0.270 N 
ATOM      8  C   UNL     1      -3.022   5.483  -1.662  0.00  0.00    +0.401 C 
ATOM      9  O   UNL     1      -3.930   4.773  -2.048  0.00  0.00    -0.226 OA
ATOM     10  H   UNL     1      -1.246   5.506  -0.708  0.00  0.00    +0.153 HD
BRANCH   8  11
ATOM     11  O   UNL     1      -3.067   6.811  -1.879  0.00  0.00    -0.445 OA
BRANCH  11  12
ATOM     12  C   UNL     1      -4.211   7.317  -2.569  0.00  0.00    +0.107 C 
ATOM     13  C   UNL     1      -5.474   6.989  -1.772  0.00  0.00    +0.055 C 
ATOM     14  C   UNL     1      -4.084   8.835  -2.721  0.00  0.00    +0.055 C 
ATOM     15  C   UNL     1      -4.298   6.672  -3.954  0.00  0.00    +0.055 C 
ENDBRANCH  11  12
ENDBRANCH   8  11
ENDBRANCH   5   7
ENDBRANCH   2   5
BRANCH   1  16
ATOM     16  C   UNL     1      -0.422   1.818   2.314  0.00  0.00    +0.089 C 
BRANCH  16  17
ATOM     17  C   UNL     1      -0.821   0.470   2.919  0.00  0.00    -0.054 C 
ATOM     18  C   UNL     1       0.027   0.199   4.163  0.00  0.00    -0.012 C 
BRANCH  17  25
ATOM     19  C   UNL     1      -2.487  -1.790   2.929  0.00  0.00    -0.013 C 
ATOM     20  C   UNL     1      -1.022  -1.881   2.498  0.00  0.00    -0.071 C 
ATOM     21  C   UNL     1      -0.867  -2.980   1.445  0.00  0.00    -0.016 C 
ATOM     22  C   UNL     1       0.601  -3.068   1.018  0.00  0.00    -0.003 C 
ATOM     23  C   UNL     1       1.053  -1.700   0.499  0.00  0.00    -0.019 C 
ATOM     24  C   UNL     1       0.828  -0.648   1.587  0.00  0.00    -0.078 C 
ATOM     25  N   UNL     1      -0.598  -0.594   1.932  0.00  0.00    +0.384 N 
ATOM     26  H   UNL     1      -1.137  -0.399   1.102  0.00  0.00    -0.081 HD
ENDBRANCH  17  25
ENDBRANCH  16  17
ENDBRANCH   1  16
TORSDOF 7
