REMARK  Name = ZINC22023122
REMARK  8 active torsions:
REMARK  status: ('A' for Active; 'I' for Inactive)
REMARK    1  A    between atoms: C_1  and  C_2
REMARK    2  A    between atoms: N_5  and  C_11
REMARK    3  A    between atoms: C_7  and  C_10
REMARK    4  A    between atoms: C_14  and  N_31
REMARK    5  A    between atoms: C_15  and  C_17
REMARK    6  A    between atoms: C_17  and  C_18
REMARK    7  A    between atoms: C_18  and  C_20
REMARK    8  A    between atoms: C_18  and  C_21
REMARK                            x       y       z     vdW  Elec       q    Type
REMARK                         _______ _______ _______ _____ _____    ______ ____
ROOT
ATOM      1  C   UNL     1       2.968   7.783   0.900  0.00  0.00    +0.030 A 
ATOM      2  C   UNL     1       2.774   8.377  -0.340  0.00  0.00    +0.025 A 
ATOM      3  C   UNL     1       2.600   7.591  -1.462  0.00  0.00    +0.035 A 
ATOM      4  C   UNL     1       2.625   6.212  -1.352  0.00  0.00    +0.129 A 
ATOM      5  C   UNL     1       2.812   5.617  -0.118  0.00  0.00    -0.015 A 
ATOM      6  C   UNL     1       2.986   6.398   1.008  0.00  0.00    +0.029 A 
ENDROOT
BRANCH   1  10
ATOM      7  C   UNL     1       3.189  12.323   2.621  0.00  0.00    -0.012 C 
ATOM      8  C   UNL     1       3.205  10.835   2.976  0.00  0.00    -0.057 C 
ATOM      9  C   UNL     1       3.089  10.004   1.696  0.00  0.00    +0.089 C 
ATOM     10  N   UNL     1       3.143   8.575   2.037  0.00  0.00    -0.333 N 
ATOM     11  C   UNL     1       4.403   8.247   2.718  0.00  0.00    +0.089 C 
ATOM     12  C   UNL     1       4.519   9.079   3.998  0.00  0.00    -0.057 C 
ATOM     13  N   UNL     1       4.465  10.507   3.657  0.00  0.00    +0.384 N 
ATOM     14  C   UNL     1       5.849   8.769   4.689  0.00  0.00    -0.012 C 
ATOM     15  H   UNL     1       5.312  10.746   2.997  0.00  0.00    -0.085 HD
ATOM     16  H   UNL     1       4.545  11.095   4.583  0.00  0.00    -0.085 HD
ENDBRANCH   1  10
BRANCH   4  17
ATOM     17  N   UNL     1       2.444   5.373  -2.558  0.00  0.00    +0.057 N 
ATOM     18  O   UNL     1       2.279   5.896  -3.645  0.00  0.00    -0.126 OA
ATOM     19  O   UNL     1       2.461   4.158  -2.462  0.00  0.00    -0.126 OA
ENDBRANCH   4  17
BRANCH   5  20
ATOM     20  C   UNL     1       2.831   4.115  -0.003  0.00  0.00    +0.041 C 
BRANCH  20  21
ATOM     21  C   UNL     1       1.396   3.585   0.008  0.00  0.00    -0.003 C 
ATOM     22  C   UNL     1       0.680   4.079   1.267  0.00  0.00    +0.008 C 
BRANCH  21  23
ATOM     23  C   UNL     1       1.417   2.055  -0.000  0.00  0.00    -0.026 C 
ATOM     24  C   UNL     1      -0.019   1.526   0.010  0.00  0.00    +0.010 C 
ATOM     25  C   UNL     1       0.002  -0.004   0.002  0.00  0.00    -0.010 C 
ATOM     26  C   UNL     1       0.718  -0.497  -1.257  0.00  0.00    +0.007 C 
ATOM     27  C   UNL     1       2.154   0.032  -1.268  0.00  0.00    -0.010 C 
ATOM     28  C   UNL     1       2.133   1.562  -1.259  0.00  0.00    +0.010 C 
ATOM     29  C   UNL     1       2.894  -0.475  -0.028  0.00  0.00    +0.007 C 
ATOM     30  C   UNL     1       2.178   0.019   1.231  0.00  0.00    -0.010 C 
ATOM     31  C   UNL     1       0.742  -0.511   1.242  0.00  0.00    +0.007 C 
ATOM     32  C   UNL     1       2.157   1.548   1.239  0.00  0.00    +0.010 C 
ENDBRANCH  21  23
ENDBRANCH  20  21
ENDBRANCH   5  20
TORSDOF 5
