REMARK  Name = ZINC08567966
REMARK  9 active torsions:
REMARK  status: ('A' for Active; 'I' for Inactive)
REMARK    1  A    between atoms: C_1  and  O_2
REMARK    2  A    between atoms: O_2  and  C_3
REMARK    3  A    between atoms: C_6  and  C_17
REMARK    4  A    between atoms: C_8  and  O_9
REMARK    5  A    between atoms: O_9  and  C_10
REMARK    6  A    between atoms: C_10  and  C_11
REMARK    7  A    between atoms: C_20  and  C_31
REMARK    8  A    between atoms: C_26  and  N_30
REMARK    9  A    between atoms: C_27  and  C_28
REMARK                            x       y       z     vdW  Elec       q    Type
REMARK                         _______ _______ _______ _____ _____    ______ ____
ROOT
ATOM      1  C   UNL     1      -4.987  -2.627   0.035  0.00  0.00    +0.102 C 
ATOM      2  C   UNL     1      -5.763  -2.224   1.262  0.00  0.00    +0.054 A 
ATOM      3  C   UNL     1      -5.556  -2.582   2.597  0.00  0.00    +0.100 A 
ATOM      4  N   UNL     1      -6.482  -1.989   3.326  0.00  0.00    -0.171 NA
ATOM      5  N   UNL     1      -7.303  -1.238   2.470  0.00  0.00    -0.246 N 
ATOM      6  H   UNL     1      -8.065  -0.700   2.737  0.00  0.00    +0.192 HD
ATOM      7  C   UNL     1      -6.847  -1.396   1.210  0.00  0.00    +0.223 A 
ATOM      8  O   UNL     1      -7.313  -0.872   0.049  0.00  0.00    -0.423 OA
ATOM      9  C   UNL     1      -6.853  -1.399  -1.103  0.00  0.00    +0.200 C 
ATOM     10  C   UNL     1      -5.782  -2.221  -1.181  0.00  0.00    +0.098 C 
ENDROOT
BRANCH   1  14
ATOM     11  C   UNL     1      -1.201  -0.638   0.010  0.00  0.00    +0.162 A 
ATOM     12  C   UNL     1      -2.374   0.099   0.019  0.00  0.00    +0.050 A 
ATOM     13  C   UNL     1      -3.596  -0.546   0.027  0.00  0.00    +0.008 A 
ATOM     14  C   UNL     1      -3.652  -1.928   0.026  0.00  0.00    -0.031 A 
ATOM     15  C   UNL     1      -2.485  -2.669   0.017  0.00  0.00    +0.054 A 
ATOM     16  C   UNL     1      -1.257  -2.028   0.003  0.00  0.00    +0.163 A 
BRANCH  11  18
ATOM     17  C   UNL     1      -0.017   1.425   0.010  0.00  0.00    +0.277 C 
ATOM     18  O   UNL     1       0.002  -0.004   0.002  0.00  0.00    -0.491 OA
ENDBRANCH  11  18
BRANCH  16  19
ATOM     19  O   UNL     1      -0.108  -2.756  -0.012  0.00  0.00    -0.484 OA
BRANCH  19  20
ATOM     20  C   UNL     1      -0.242  -4.179  -0.018  0.00  0.00    +0.264 C 
BRANCH  20  21
ATOM     21  C   UNL     1       1.125  -4.812  -0.034  0.00  0.00    -0.010 A 
ATOM     22  C   UNL     1       1.744  -5.091  -1.239  0.00  0.00    +0.007 A 
ATOM     23  C   UNL     1       2.998  -5.671  -1.254  0.00  0.00    +0.000 A 
ATOM     24  C   UNL     1       3.635  -5.973  -0.064  0.00  0.00    +0.000 A 
ATOM     25  C   UNL     1       3.017  -5.693   1.140  0.00  0.00    +0.000 A 
ATOM     26  C   UNL     1       1.764  -5.109   1.155  0.00  0.00    +0.007 A 
ENDBRANCH  20  21
ENDBRANCH  19  20
ENDBRANCH  16  19
ENDBRANCH   1  14
BRANCH   3  27
ATOM     27  C   UNL     1      -4.483  -3.473   3.106  0.00  0.00    +0.003 A 
ATOM     28  C   UNL     1      -4.051  -4.555   2.341  0.00  0.00    +0.010 A 
ATOM     29  C   UNL     1      -3.054  -5.380   2.818  0.00  0.00    +0.001 A 
ATOM     30  C   UNL     1      -2.483  -5.135   4.054  0.00  0.00    +0.000 A 
ATOM     31  C   UNL     1      -2.908  -4.063   4.818  0.00  0.00    +0.001 A 
ATOM     32  C   UNL     1      -3.901  -3.228   4.347  0.00  0.00    +0.010 A 
ENDBRANCH   3  27
BRANCH   9  33
ATOM     33  N   UNL     1      -7.510  -1.083  -2.267  0.00  0.00    -0.328 N 
ATOM     34  H   UNL     1      -8.282  -0.496  -2.243  0.00  0.00    +0.145 HD
ATOM     35  H   UNL     1      -7.203  -1.447  -3.111  0.00  0.00    +0.145 HD
ENDBRANCH   9  33
BRANCH  10  36
ATOM     36  C   UNL     1      -5.388  -2.724  -2.462  0.00  0.00    +0.101 C 
ATOM     37  N   UNL     1      -5.076  -3.124  -3.479  0.00  0.00    -0.191 NA
ENDBRANCH  10  36
TORSDOF 8
