REMARK  Name = ZINC40287708
REMARK  6 active torsions:
REMARK  status: ('A' for Active; 'I' for Inactive)
REMARK    1  A    between atoms: C_1  and  O_2
REMARK    2  A    between atoms: O_2  and  C_3
REMARK    3  A    between atoms: C_8  and  C_9
REMARK    4  A    between atoms: N_14  and  C_16
REMARK    5  A    between atoms: C_16  and  C_17
REMARK    6  A    between atoms: C_18  and  C_19
REMARK                            x       y       z     vdW  Elec       q    Type
REMARK                         _______ _______ _______ _____ _____    ______ ____
ROOT
ATOM      1  C   UNL     1       0.063  -2.830  -0.054  0.00  0.00    +0.095 A 
ATOM      2  C   UNL     1       0.129  -4.241  -0.132  0.00  0.00    +0.035 A 
ATOM      3  C   UNL     1      -0.433  -4.969   0.875  0.00  0.00    +0.074 A 
ATOM      4  C   UNL     1      -1.046  -4.268   1.936  0.00  0.00    +0.268 A 
ATOM      5  O   UNL     1      -1.562  -4.877   2.859  0.00  0.00    -0.266 OA
ATOM      6  N   UNL     1      -1.059  -2.921   1.922  0.00  0.00    -0.225 N 
ATOM      7  N   UNL     1      -0.521  -2.250   0.968  0.00  0.00    -0.168 NA
ENDROOT
BRANCH   1  13
ATOM      8  C   UNL     1       0.606  -0.607  -1.055  0.00  0.00    +0.129 A 
ATOM      9  C   UNL     1       1.173   0.159  -2.062  0.00  0.00    +0.046 A 
ATOM     10  C   UNL     1       1.786  -0.456  -3.136  0.00  0.00    +0.004 A 
ATOM     11  C   UNL     1       1.839  -1.836  -3.215  0.00  0.00    +0.001 A 
ATOM     12  C   UNL     1       1.278  -2.611  -2.220  0.00  0.00    +0.014 A 
ATOM     13  C   UNL     1       0.662  -2.002  -1.129  0.00  0.00    +0.044 A 
BRANCH   8  15
ATOM     14  C   UNL     1      -0.017   1.425   0.010  0.00  0.00    +0.277 C 
ATOM     15  O   UNL     1       0.002  -0.004   0.002  0.00  0.00    -0.494 OA
ENDBRANCH   8  15
ENDBRANCH   1  13
BRANCH   6  16
ATOM     16  C   UNL     1      -1.698  -2.203   3.027  0.00  0.00    +0.174 C 
BRANCH  16  17
ATOM     17  C   UNL     1      -0.681  -1.938   4.108  0.00  0.00    -0.003 C 
ATOM     18  C   UNL     1      -0.478  -0.700   4.537  0.00  0.00    +0.005 C 
BRANCH  18  19
ATOM     19  C   UNL     1       0.519  -0.440   5.597  0.00  0.00    -0.025 A 
ATOM     20  C   UNL     1       1.251  -1.495   6.144  0.00  0.00    +0.008 A 
ATOM     21  C   UNL     1       2.180  -1.245   7.134  0.00  0.00    +0.001 A 
ATOM     22  C   UNL     1       2.386   0.047   7.584  0.00  0.00    +0.000 A 
ATOM     23  C   UNL     1       1.663   1.096   7.045  0.00  0.00    +0.001 A 
ATOM     24  C   UNL     1       0.736   0.861   6.051  0.00  0.00    +0.008 A 
ENDBRANCH  18  19
ENDBRANCH  16  17
ENDBRANCH   6  16
TORSDOF 5
