REMARK  Name = ZINC59311159
REMARK  5 active torsions:
REMARK  status: ('A' for Active; 'I' for Inactive)
REMARK    1  A    between atoms: C_1  and  C_2
REMARK    2  A    between atoms: C_7  and  C_8
REMARK    3  A    between atoms: C_8  and  S_9
REMARK    4  A    between atoms: S_9  and  C_10
REMARK    5  A    between atoms: N_16  and  N_17
REMARK                            x       y       z     vdW  Elec       q    Type
REMARK                         _______ _______ _______ _____ _____    ______ ____
ROOT
ATOM      1  C   UNL     1      -1.543   0.813   4.804  0.00  0.00    +0.191 A 
ATOM      2  N   UNL     1      -2.548   1.454   5.471  0.00  0.00    -0.303 N 
ATOM      3  H   UNL     1      -3.486   1.457   5.222  0.00  0.00    +0.171 HD
ATOM      4  C   UNL     1      -2.002   2.088   6.552  0.00  0.00    +0.235 A 
ATOM      5  N   UNL     1      -0.713   1.850   6.552  0.00  0.00    -0.111 NA
ATOM      6  N   UNL     1      -0.422   1.037   5.448  0.00  0.00    -0.121 NA
ATOM      7  N   UNL     1      -2.691   2.851   7.485  0.00  0.00    -0.205 N 
ATOM      8  H   UNL     1      -3.650   2.971   7.400  0.00  0.00    +0.177 HD
ENDROOT
BRANCH   7   9
ATOM      9  N   UNL     1      -2.001   3.447   8.549  0.00  0.00    -0.189 NA
ATOM     10  C   UNL     1      -2.648   4.064   9.465  0.00  0.00    +0.037 C 
ATOM     11  C   UNL     1      -4.173   4.032   9.486  0.00  0.00    +0.052 C 
ATOM     12  C   UNL     1      -4.694   3.915  10.893  0.00  0.00    +0.006 C 
ATOM     13  C   UNL     1      -4.885   5.312  11.499  0.00  0.00    +0.000 C 
ATOM     14  C   UNL     1      -3.633   5.890  11.994  0.00  0.00    +0.000 C 
ATOM     15  C   UNL     1      -2.608   6.126  10.876  0.00  0.00    +0.006 C 
ATOM     16  C   UNL     1      -1.902   4.834  10.550  0.00  0.00    +0.052 C 
ENDBRANCH   7   9
BRANCH   1  17
ATOM     17  S   UNL     1      -1.720  -0.150   3.340  0.00  0.00    -0.081 S 
BRANCH  17  18
ATOM     18  C   UNL     1      -0.035  -0.718   2.981  0.00  0.00    +0.112 C 
BRANCH  18  25
ATOM     19  C   UNL     1       0.345   0.512   0.394  0.00  0.00    +0.044 C 
ATOM     20  C   UNL     1       0.137  -0.977   0.497  0.00  0.00    -0.046 A 
ATOM     21  C   UNL     1       0.133  -1.755  -0.646  0.00  0.00    +0.003 A 
ATOM     22  C   UNL     1      -0.059  -3.120  -0.552  0.00  0.00    +0.000 A 
ATOM     23  C   UNL     1      -0.246  -3.708   0.686  0.00  0.00    +0.000 A 
ATOM     24  C   UNL     1      -0.242  -2.930   1.828  0.00  0.00    +0.005 A 
ATOM     25  C   UNL     1      -0.046  -1.565   1.734  0.00  0.00    -0.034 A 
ENDBRANCH  18  25
ENDBRANCH  17  18
ENDBRANCH   1  17
TORSDOF 4
