REMARK  Name = ZINC47999093
REMARK  7 active torsions:
REMARK  status: ('A' for Active; 'I' for Inactive)
REMARK    1  A    between atoms: C_1  and  C_2
REMARK    2  A    between atoms: N_8  and  C_9
REMARK    3  A    between atoms: C_9  and  C_10
REMARK    4  A    between atoms: C_10  and  N_11
REMARK    5  A    between atoms: C_12  and  C_14
REMARK    6  A    between atoms: N_16  and  C_17
REMARK    7  A    between atoms: C_18  and  C_26
REMARK                            x       y       z     vdW  Elec       q    Type
REMARK                         _______ _______ _______ _____ _____    ______ ____
ROOT
ATOM      1  C   UNL     1       6.293   0.607   3.630  0.00  0.00    +0.304 C 
ATOM      2  O   UNL     1       6.685   1.284   2.701  0.00  0.00    -0.265 OA
ATOM      3  N   UNL     1       7.099   0.382   4.687  0.00  0.00    -0.271 N 
ATOM      4  H   UNL     1       6.786  -0.159   5.429  0.00  0.00    +0.156 HD
ENDROOT
BRANCH   3   5
ATOM      5  C   UNL     1       8.374   0.922   4.713  0.00  0.00    +0.090 A 
ATOM      6  C   UNL     1       9.351   0.805   5.694  0.00  0.00    +0.084 A 
ATOM      7  C   UNL     1      10.618   1.478   5.474  0.00  0.00    -0.018 A 
ATOM      8  C   UNL     1      10.735   2.168   4.316  0.00  0.00    -0.004 A 
ATOM      9  S   UNL     1       9.184   1.939   3.491  0.00  0.00    -0.077 S 
ATOM     10  C   UNL     1      11.922   2.949   3.842  0.00  0.00    +0.043 C 
ATOM     11  C   UNL     1      12.869   3.163   5.032  0.00  0.00    +0.005 C 
ATOM     12  C   UNL     1      13.063   1.825   5.752  0.00  0.00    +0.005 C 
ATOM     13  C   UNL     1      11.773   1.429   6.470  0.00  0.00    +0.037 C 
BRANCH   6  14
ATOM     14  C   UNL     1       9.115   0.045   6.885  0.00  0.00    +0.102 C 
ATOM     15  N   UNL     1       8.928  -0.558   7.830  0.00  0.00    -0.191 NA
ENDBRANCH   6  14
ENDBRANCH   3   5
BRANCH   1  17
ATOM     16  N   UNL     1       4.113   0.250   2.546  0.00  0.00    -0.309 N 
ATOM     17  C   UNL     1       4.919   0.025   3.602  0.00  0.00    +0.299 C 
ATOM     18  O   UNL     1       4.527  -0.652   4.531  0.00  0.00    -0.265 OA
ATOM     19  H   UNL     1       4.426   0.791   1.803  0.00  0.00    +0.149 HD
BRANCH  16  20
ATOM     20  C   UNL     1       2.764  -0.321   2.518  0.00  0.00    +0.086 C 
BRANCH  20  21
ATOM     21  C   UNL     1       2.066   0.083   1.218  0.00  0.00    -0.059 C 
BRANCH  21  28
ATOM     22  C   UNL     1      -0.019   1.526   0.010  0.00  0.00    -0.013 C 
ATOM     23  C   UNL     1       0.002  -0.004   0.002  0.00  0.00    -0.072 C 
ATOM     24  C   UNL     1      -1.434  -0.533   0.011  0.00  0.00    -0.016 C 
ATOM     25  C   UNL     1      -1.408  -2.064   0.003  0.00  0.00    -0.003 C 
ATOM     26  C   UNL     1      -0.600  -2.558   1.206  0.00  0.00    -0.019 C 
ATOM     27  C   UNL     1       0.805  -1.954   1.152  0.00  0.00    -0.078 C 
ATOM     28  N   UNL     1       0.713  -0.490   1.191  0.00  0.00    +0.382 N 
ATOM     29  H   UNL     1       0.213  -0.206   2.020  0.00  0.00    -0.081 HD
ENDBRANCH  21  28
ENDBRANCH  20  21
ENDBRANCH  16  20
ENDBRANCH   1  17
TORSDOF 6
