REMARK  Name = ZINC09946864
REMARK  10 active torsions:
REMARK  status: ('A' for Active; 'I' for Inactive)
REMARK    1  A    between atoms: C_1  and  C_2
REMARK    2  A    between atoms: C_3  and  C_28
REMARK    3  A    between atoms: C_5  and  S_8
REMARK    4  A    between atoms: S_8  and  C_9
REMARK    5  A    between atoms: C_9  and  C_11
REMARK    6  A    between atoms: C_9  and  C_12
REMARK    7  A    between atoms: N_14  and  C_15
REMARK    8  A    between atoms: C_15  and  C_16
REMARK    9  A    between atoms: N_18  and  C_19
REMARK   10  A    between atoms: C_28  and  C_29
REMARK                            x       y       z     vdW  Elec       q    Type
REMARK                         _______ _______ _______ _____ _____    ______ ____
ROOT
ATOM      1  C   UNL     1       3.895   7.507   0.427  0.00  0.00    +0.227 C 
ATOM      2  O   UNL     1       2.962   8.281   0.459  0.00  0.00    -0.275 OA
ATOM      3  N   UNL     1       3.669   6.183   0.312  0.00  0.00    -0.306 N 
ATOM      4  H   UNL     1       4.416   5.564   0.286  0.00  0.00    +0.149 HD
ENDROOT
BRANCH   1   5
ATOM      5  C   UNL     1       5.308   8.025   0.516  0.00  0.00    +0.137 C 
ATOM      6  C   UNL     1       5.877   8.199  -0.893  0.00  0.00    +0.029 C 
BRANCH   5   7
ATOM      7  S   UNL     1       5.312   9.621   1.370  0.00  0.00    -0.075 S 
BRANCH   7  12
ATOM      8  C   UNL     1      10.075  11.778   2.362  0.00  0.00    +0.065 C 
ATOM      9  C   UNL     1       9.001  10.830   1.892  0.00  0.00    +0.037 A 
ATOM     10  C   UNL     1       9.189   9.659   1.259  0.00  0.00    +0.067 A 
ATOM     11  N   UNL     1       7.985   9.116   1.009  0.00  0.00    -0.226 NA
ATOM     12  C   UNL     1       7.047   9.912   1.467  0.00  0.00    +0.167 A 
ATOM     13  N   UNL     1       7.641  11.002   2.024  0.00  0.00    -0.337 N 
ATOM     14  H   UNL     1       7.179  11.780   2.449  0.00  0.00    +0.168 HD
BRANCH  10  15
ATOM     15  C   UNL     1      10.521   9.059   0.892  0.00  0.00    +0.092 C 
BRANCH  15  16
ATOM     16  C   UNL     1      10.923   9.528  -0.482  0.00  0.00    -0.042 A 
ATOM     17  C   UNL     1      10.554   8.800  -1.597  0.00  0.00    +0.004 A 
ATOM     18  C   UNL     1      10.919   9.233  -2.858  0.00  0.00    +0.000 A 
ATOM     19  C   UNL     1      11.661  10.390  -3.003  0.00  0.00    +0.000 A 
ATOM     20  C   UNL     1      12.035  11.116  -1.887  0.00  0.00    +0.000 A 
ATOM     21  C   UNL     1      11.666  10.685  -0.627  0.00  0.00    +0.004 A 
ENDBRANCH  15  16
ENDBRANCH  10  15
ENDBRANCH   7  12
ENDBRANCH   5   7
ENDBRANCH   1   5
BRANCH   3  22
ATOM     22  C   UNL     1       2.296   5.679   0.225  0.00  0.00    +0.200 C 
BRANCH  22  23
ATOM     23  C   UNL     1       2.319   4.177   0.104  0.00  0.00    +0.234 C 
ATOM     24  O   UNL     1       3.378   3.586   0.091  0.00  0.00    -0.274 OA
ATOM     25  N   UNL     1       1.163   3.491   0.009  0.00  0.00    -0.282 N 
ATOM     26  H   UNL     1       0.321   3.967  -0.061  0.00  0.00    +0.155 HD
BRANCH  25  27
ATOM     27  C   UNL     1       1.178   2.090   0.013  0.00  0.00    +0.072 A 
ATOM     28  C   UNL     1       2.230   1.407   0.608  0.00  0.00    +0.029 A 
ATOM     29  C   UNL     1       2.244   0.026   0.611  0.00  0.00    +0.043 A 
ATOM     30  C   UNL     1       1.210  -0.680   0.022  0.00  0.00    +0.161 A 
ATOM     31  C   UNL     1       0.156  -0.003  -0.574  0.00  0.00    +0.195 A 
ATOM     32  C   UNL     1       0.139   1.381  -0.579  0.00  0.00    +0.182 A 
ATOM     33  F   UNL     1      -0.884   2.043  -1.163  0.00  0.00    -0.200 F 
ATOM     34  F   UNL     1      -0.852  -0.694  -1.149  0.00  0.00    -0.199 F 
ATOM     35  F   UNL     1       1.226  -2.031   0.026  0.00  0.00    -0.202 F 
ENDBRANCH  25  27
ENDBRANCH  22  23
ENDBRANCH   3  22
TORSDOF 8
