REMARK  Name = ZINC24338221
REMARK  8 active torsions:
REMARK  status: ('A' for Active; 'I' for Inactive)
REMARK    1  A    between atoms: C_1  and  C_2
REMARK    2  A    between atoms: C_2  and  C_3
REMARK    3  A    between atoms: N_12  and  C_13
REMARK    4  A    between atoms: C_13  and  C_14
REMARK    5  A    between atoms: N_16  and  N_17
REMARK    6  A    between atoms: C_18  and  C_20
REMARK    7  A    between atoms: C_20  and  C_21
REMARK    8  A    between atoms: C_23  and  C_26
REMARK                            x       y       z     vdW  Elec       q    Type
REMARK                         _______ _______ _______ _____ _____    ______ ____
ROOT
ATOM      1  C   UNL     1       3.448   2.078  -1.204  0.00  0.00    +0.213 C 
ATOM      2  O   UNL     1       3.772   2.924  -0.398  0.00  0.00    -0.276 OA
ATOM      3  N   UNL     1       4.322   1.679  -2.150  0.00  0.00    -0.236 N 
ATOM      4  H   UNL     1       4.028   0.911  -2.881  0.00  0.00    +0.173 HD
ENDROOT
BRANCH   3   5
ATOM      5  N   UNL     1       5.604   2.241  -2.201  0.00  0.00    -0.234 N 
ATOM      6  C   UNL     1       6.477   1.842  -3.147  0.00  0.00    +0.235 C 
ATOM      7  O   UNL     1       6.153   0.996  -3.953  0.00  0.00    -0.274 OA
ATOM      8  H   UNL     1       5.897   3.009  -1.470  0.00  0.00    +0.173 HD
BRANCH   6   9
ATOM      9  C   UNL     1       7.856   2.447  -3.202  0.00  0.00    +0.160 C 
BRANCH   9  10
ATOM     10  C   UNL     1       8.629   1.833  -4.341  0.00  0.00    +0.087 A 
ATOM     11  N   UNL     1       8.702   2.224  -5.593  0.00  0.00    -0.249 NA
ATOM     12  C   UNL     1       9.434   1.573  -6.473  0.00  0.00    +0.046 A 
ATOM     13  C   UNL     1      10.110   0.470  -6.062  0.00  0.00    +0.070 A 
ATOM     14  S   UNL     1       9.644   0.424  -4.337  0.00  0.00    -0.080 S 
ATOM     15  C   UNL     1       9.513   2.038  -7.905  0.00  0.00    +0.066 C 
ENDBRANCH   9  10
ENDBRANCH   6   9
ENDBRANCH   3   5
BRANCH   1  16
ATOM     16  C   UNL     1       2.069   1.473  -1.149  0.00  0.00    +0.021 C 
BRANCH  16  25
ATOM     17  C   UNL     1       1.095   3.415  -0.082  0.00  0.00    -0.036 C 
ATOM     18  C   UNL     1       0.382   3.884   1.183  0.00  0.00    -0.051 A 
ATOM     19  C   UNL     1      -0.342   5.071   1.272  0.00  0.00    +0.010 A 
ATOM     20  C   UNL     1      -0.947   5.409   2.435  0.00  0.00    +0.045 A 
ATOM     21  S   UNL     1      -0.511   4.034   3.491  0.00  0.00    -0.101 S 
ATOM     22  C   UNL     1       0.437   3.119   2.309  0.00  0.00    -0.010 A 
ATOM     23  C   UNL     1       1.147   1.814   2.467  0.00  0.00    +0.024 C 
ATOM     24  C   UNL     1       2.094   1.648   1.266  0.00  0.00    -0.072 C 
ATOM     25  N   UNL     1       1.361   1.976   0.036  0.00  0.00    +0.390 N 
ATOM     26  H   UNL     1       0.385   1.471   0.095  0.00  0.00    -0.080 HD
BRANCH  17  28
ATOM     27  C   UNL     1      -1.091   2.874  -1.164  0.00  0.00    +0.002 C 
ATOM     28  C   UNL     1       0.205   3.676  -1.299  0.00  0.00    -0.014 C 
ENDBRANCH  17  28
ENDBRANCH  16  25
ENDBRANCH   1  16
TORSDOF 6
