REMARK  Name = ZINC50306102
REMARK  6 active torsions:
REMARK  status: ('A' for Active; 'I' for Inactive)
REMARK    1  A    between atoms: C_1  and  C_2
REMARK    2  A    between atoms: C_3  and  N_24
REMARK    3  A    between atoms: C_4  and  C_8
REMARK    4  A    between atoms: N_10  and  C_11
REMARK    5  A    between atoms: N_10  and  C_18
REMARK    6  A    between atoms: C_11  and  C_12
REMARK                            x       y       z     vdW  Elec       q    Type
REMARK                         _______ _______ _______ _____ _____    ______ ____
ROOT
ATOM      1  C   UNL     1       0.407  -3.350  -1.142  0.00  0.00    +0.269 C 
ATOM      2  O   UNL     1       0.573  -2.486  -0.303  0.00  0.00    -0.268 OA
ATOM      3  N   UNL     1      -0.040  -4.568  -0.776  0.00  0.00    -0.290 N 
ENDROOT
BRANCH   1   7
ATOM      4  C   UNL     1       1.638  -1.020  -5.477  0.00  0.00    +0.067 C 
ATOM      5  C   UNL     1       1.234  -2.037  -4.441  0.00  0.00    +0.054 A 
ATOM      6  C   UNL     1       1.080  -1.816  -3.108  0.00  0.00    +0.078 A 
ATOM      7  C   UNL     1       0.695  -3.066  -2.560  0.00  0.00    +0.168 A 
ATOM      8  N   UNL     1       0.643  -3.928  -3.559  0.00  0.00    -0.167 NA
ATOM      9  N   UNL     1       0.949  -3.347  -4.663  0.00  0.00    -0.279 N 
ATOM     10  H   UNL     1       0.974  -3.781  -5.530  0.00  0.00    +0.189 HD
BRANCH   6  11
ATOM     11  N   UNL     1       1.263  -0.607  -2.421  0.00  0.00    -0.355 N 
ATOM     12  H   UNL     1       1.529   0.191  -2.905  0.00  0.00    +0.142 HD
ATOM     13  H   UNL     1       1.123  -0.568  -1.462  0.00  0.00    +0.142 HD
ENDBRANCH   6  11
ENDBRANCH   1   7
BRANCH   3  14
ATOM     14  C   UNL     1      -0.412  -4.823   0.618  0.00  0.00    +0.087 C 
ATOM     15  C   UNL     1      -1.619  -3.954   0.969  0.00  0.00    +0.034 C 
ATOM     16  C   UNL     1      -1.625  -3.628   2.489  0.00  0.00    +0.071 C 
ATOM     17  S   UNL     1       0.182  -3.353   2.751  0.00  0.00    -0.159 S 
ATOM     18  C   UNL     1       0.814  -4.556   1.514  0.00  0.00    +0.091 C 
ENDBRANCH   3  14
BRANCH   3  19
ATOM     19  C   UNL     1      -0.153  -5.637  -1.771  0.00  0.00    +0.140 C 
BRANCH  19  20
ATOM     20  C   UNL     1       1.208  -6.312  -1.951  0.00  0.00    +0.136 C 
ATOM     21  C   UNL     1       1.128  -7.358  -3.084  0.00  0.00    +0.035 C 
ATOM     22  C   UNL     1       1.997  -8.517  -2.524  0.00  0.00    +0.031 C 
ATOM     23  C   UNL     1       1.690  -8.410  -1.009  0.00  0.00    +0.160 C 
ATOM     24  O   UNL     1       1.571  -7.001  -0.749  0.00  0.00    -0.375 OA
ENDBRANCH  19  20
ENDBRANCH   3  19
TORSDOF 5
