REMARK  Name = ZINC39634219
REMARK  7 active torsions:
REMARK  status: ('A' for Active; 'I' for Inactive)
REMARK    1  A    between atoms: C_1  and  C_2
REMARK    2  A    between atoms: C_5  and  C_8
REMARK    3  A    between atoms: C_8  and  N_9
REMARK    4  A    between atoms: C_10  and  C_12
REMARK    5  A    between atoms: C_23  and  C_25
REMARK    6  A    between atoms: C_25  and  C_26
REMARK    7  A    between atoms: C_25  and  C_27
REMARK                            x       y       z     vdW  Elec       q    Type
REMARK                         _______ _______ _______ _____ _____    ______ ____
ROOT
ATOM      1  C   UNL     1       3.137  -6.551  -0.051  0.00  0.00    +0.100 C 
ATOM      2  C   UNL     1       3.814  -6.202  -1.395  0.00  0.00    +0.121 C 
ATOM      3  N   UNL     1       4.683  -7.366  -1.691  0.00  0.00    -0.300 N 
ATOM      4  C   UNL     1       3.881  -8.540  -1.270  0.00  0.00    +0.115 C 
ATOM      5  C   UNL     1       3.183  -8.087   0.027  0.00  0.00    -0.004 C 
ATOM      6  C   UNL     1       1.768  -8.655   0.090  0.00  0.00    -0.010 C 
ATOM      7  C   UNL     1       1.840 -10.178   0.226  0.00  0.00    -0.082 C 
ATOM      8  N   UNL     1       2.584 -10.528   1.442  0.00  0.00    +0.379 N 
ATOM      9  C   UNL     1       3.971 -10.059   1.333  0.00  0.00    -0.082 C 
ATOM     10  C   UNL     1       3.989  -8.530   1.244  0.00  0.00    -0.010 C 
ATOM     11  C   UNL     1       5.921  -7.358  -2.221  0.00  0.00    +0.218 C 
ATOM     12  O   UNL     1       6.509  -8.403  -2.405  0.00  0.00    -0.275 OA
ATOM     13  H   UNL     1       2.146 -10.094   2.240  0.00  0.00    -0.086 HD
ATOM     14  H   UNL     1       2.578 -11.530   1.562  0.00  0.00    -0.086 HD
ENDROOT
BRANCH   1  16
ATOM     15  N   UNL     1       1.121  -5.733   1.125  0.00  0.00    -0.311 N 
ATOM     16  C   UNL     1       1.710  -6.067  -0.040  0.00  0.00    +0.218 C 
ATOM     17  O   UNL     1       1.092  -5.979  -1.080  0.00  0.00    -0.275 OA
ATOM     18  H   UNL     1       1.615  -5.803   1.956  0.00  0.00    +0.149 HD
BRANCH  15  19
ATOM     19  C   UNL     1      -0.267  -5.262   1.135  0.00  0.00    +0.139 C 
BRANCH  19  24
ATOM     20  C   UNL     1      -1.867  -4.091   6.562  0.00  0.00    +0.044 C 
ATOM     21  C   UNL     1      -1.449  -4.396   5.147  0.00  0.00    -0.050 A 
ATOM     22  C   UNL     1      -0.876  -3.409   4.367  0.00  0.00    +0.003 A 
ATOM     23  C   UNL     1      -0.493  -3.690   3.069  0.00  0.00    +0.005 A 
ATOM     24  C   UNL     1      -0.683  -4.957   2.550  0.00  0.00    -0.030 A 
ATOM     25  C   UNL     1      -1.256  -5.944   3.331  0.00  0.00    +0.005 A 
ATOM     26  C   UNL     1      -1.635  -5.665   4.630  0.00  0.00    +0.003 A 
ENDBRANCH  19  24
ENDBRANCH  15  19
ENDBRANCH   1  16
BRANCH  11  27
ATOM     27  C   UNL     1       6.577  -6.051  -2.587  0.00  0.00    +0.069 C 
ATOM     28  C   UNL     1       7.967  -6.322  -3.165  0.00  0.00    +0.017 C 
ATOM     29  C   UNL     1       5.723  -5.327  -3.630  0.00  0.00    +0.017 C 
ENDBRANCH  11  27
TORSDOF 4
