REMARK  Name = ZINC21970933
REMARK  4 active torsions:
REMARK  status: ('A' for Active; 'I' for Inactive)
REMARK    1  A    between atoms: C_3  and  C_6
REMARK    2  A    between atoms: C_12  and  C_14
REMARK    3  A    between atoms: N_16  and  N_17
REMARK    4  A    between atoms: C_18  and  C_20
REMARK                            x       y       z     vdW  Elec       q    Type
REMARK                         _______ _______ _______ _____ _____    ______ ____
ROOT
ATOM      1  C   UNL     1       8.673  -2.883  -1.942  0.00  0.00    +0.250 C 
ATOM      2  O   UNL     1       8.998  -1.717  -1.873  0.00  0.00    -0.272 OA
ATOM      3  N   UNL     1       7.369  -3.222  -1.908  0.00  0.00    -0.233 N 
ATOM      4  H   UNL     1       7.074  -4.280  -1.970  0.00  0.00    +0.173 HD
ENDROOT
BRANCH   1  11
ATOM      5  C   UNL     1      11.185  -2.724  -3.692  0.00  0.00    +0.254 C 
ATOM      6  O   UNL     1      10.263  -2.604  -4.478  0.00  0.00    -0.269 OA
ATOM      7  N   UNL     1      10.992  -3.359  -2.519  0.00  0.00    -0.285 N 
ATOM      8  C   UNL     1      12.016  -3.575  -1.480  0.00  0.00    +0.109 C 
ATOM      9  C   UNL     1      11.525  -4.814  -0.691  0.00  0.00    +0.021 C 
ATOM     10  C   UNL     1       9.990  -4.591  -0.684  0.00  0.00    +0.033 C 
ATOM     11  C   UNL     1       9.727  -3.953  -2.064  0.00  0.00    +0.164 C 
BRANCH   5  14
ATOM     12  C   UNL     1      14.219  -1.089  -5.211  0.00  0.00    +0.008 A 
ATOM     13  C   UNL     1      12.910  -1.501  -5.161  0.00  0.00    +0.021 A 
ATOM     14  C   UNL     1      12.504  -2.176  -4.021  0.00  0.00    +0.074 A 
ATOM     15  S   UNL     1      14.008  -2.212  -3.061  0.00  0.00    -0.092 S 
ATOM     16  C   UNL     1      15.042  -1.365  -4.166  0.00  0.00    +0.046 A 
ENDBRANCH   5  14
ENDBRANCH   1  11
BRANCH   3  17
ATOM     17  N   UNL     1       6.389  -2.227  -1.795  0.00  0.00    -0.230 N 
ATOM     18  C   UNL     1       5.085  -2.566  -1.761  0.00  0.00    +0.267 C 
ATOM     19  O   UNL     1       4.759  -3.736  -1.830  0.00  0.00    -0.268 OA
ATOM     20  H   UNL     1       6.684  -1.169  -1.733  0.00  0.00    +0.173 HD
BRANCH  18  21
ATOM     21  C   UNL     1       4.060  -1.525  -1.642  0.00  0.00    +0.076 A 
ATOM     22  C   UNL     1       2.684  -1.656  -1.591  0.00  0.00    +0.024 A 
ATOM     23  C   UNL     1       1.918  -0.501  -1.472  0.00  0.00    -0.036 A 
ATOM     24  C   UNL     1       2.596   0.669  -1.443  0.00  0.00    -0.006 A 
ATOM     25  S   UNL     1       4.260   0.246  -1.526  0.00  0.00    -0.088 S 
ATOM     26  C   UNL     1       1.990   2.054  -1.378  0.00  0.00    +0.043 C 
ATOM     27  C   UNL     1       1.324   2.194   0.001  0.00  0.00    +0.005 C 
ATOM     28  C   UNL     1      -0.018   1.503   0.010  0.00  0.00    +0.001 C 
ATOM     29  C   UNL     1       0.002  -0.004   0.002  0.00  0.00    +0.005 C 
ATOM     30  C   UNL     1       0.391  -0.563  -1.368  0.00  0.00    +0.036 C 
ENDBRANCH  18  21
ENDBRANCH   3  17
TORSDOF 4
