REMARK  Name = ZINC66464884
REMARK  5 active torsions:
REMARK  status: ('A' for Active; 'I' for Inactive)
REMARK    1  A    between atoms: C_1  and  C_2
REMARK    2  A    between atoms: C_2  and  C_4
REMARK    3  A    between atoms: C_2  and  N_12
REMARK    4  A    between atoms: N_6  and  C_7
REMARK    5  A    between atoms: C_18  and  N_22
REMARK                            x       y       z     vdW  Elec       q    Type
REMARK                         _______ _______ _______ _____ _____    ______ ____
ROOT
ATOM      1  N   UNL     1       0.711  -0.489   1.189  0.00  0.00    -0.312 N 
ATOM      2  C   UNL     1       2.086  -0.602   1.173  0.00  0.00    +0.160 A 
ATOM      3  N   UNL     1       2.925  -0.322   0.202  0.00  0.00    -0.225 NA
ATOM      4  C   UNL     1       4.261  -0.482   0.328  0.00  0.00    +0.080 A 
ATOM      5  C   UNL     1       5.265  -0.220  -0.631  0.00  0.00    +0.031 A 
ATOM      6  C   UNL     1       6.586  -0.440  -0.340  0.00  0.00    +0.035 A 
ATOM      7  C   UNL     1       6.985  -0.924   0.898  0.00  0.00    +0.127 A 
ATOM      8  C   UNL     1       6.028  -1.191   1.860  0.00  0.00    +0.050 A 
ATOM      9  C   UNL     1       4.703  -0.974   1.577  0.00  0.00    +0.043 A 
ATOM     10  S   UNL     1       3.179  -1.161   2.472  0.00  0.00    -0.052 S 
ATOM     11  H   UNL     1       0.213  -0.731   1.986  0.00  0.00    +0.149 HD
ENDROOT
BRANCH   7  12
ATOM     12  N   UNL     1       8.419  -1.153   1.185  0.00  0.00    +0.056 N 
ATOM     13  O   UNL     1       9.250  -0.918   0.339  0.00  0.00    -0.126 OA
ATOM     14  O   UNL     1       8.759  -1.575   2.266  0.00  0.00    -0.126 OA
ENDBRANCH   7  12
BRANCH   1  16
ATOM     15  C   UNL     1      -0.019   1.526   0.010  0.00  0.00    +0.038 C 
ATOM     16  C   UNL     1       0.002  -0.004   0.002  0.00  0.00    +0.155 C 
BRANCH  16  17
ATOM     17  C   UNL     1      -1.412  -0.526   0.013  0.00  0.00    +0.233 C 
ATOM     18  O   UNL     1      -1.790  -1.233   0.922  0.00  0.00    -0.274 OA
ATOM     19  N   UNL     1      -2.256  -0.206  -0.988  0.00  0.00    -0.311 N 
ATOM     20  H   UNL     1      -1.953   0.360  -1.716  0.00  0.00    +0.149 HD
BRANCH  19  21
ATOM     21  C   UNL     1      -3.630  -0.713  -0.978  0.00  0.00    +0.073 C 
ATOM     22  C   UNL     1      -3.689  -2.095  -1.662  0.00  0.00    +0.022 C 
ATOM     23  C   UNL     1      -5.036  -2.084  -2.425  0.00  0.00    +0.002 C 
ATOM     24  C   UNL     1      -5.123  -0.627  -2.944  0.00  0.00    +0.002 C 
ATOM     25  C   UNL     1      -4.542   0.220  -1.794  0.00  0.00    +0.022 C 
ENDBRANCH  19  21
ENDBRANCH  16  17
ENDBRANCH   1  16
TORSDOF 4
