REMARK  Name = ZINC12734465
REMARK  4 active torsions:
REMARK  status: ('A' for Active; 'I' for Inactive)
REMARK    1  A    between atoms: C_10  and  C_17
REMARK    2  A    between atoms: N_12  and  C_13
REMARK    3  A    between atoms: C_13  and  C_14
REMARK    4  A    between atoms: C_21  and  C_23
REMARK                            x       y       z     vdW  Elec       q    Type
REMARK                         _______ _______ _______ _____ _____    ______ ____
ROOT
ATOM      1  C   UNL     1       2.236  -2.400   0.850  0.00  0.00    +0.001 A 
ATOM      2  C   UNL     1       3.367  -1.865   0.252  0.00  0.00    +0.002 A 
ATOM      3  C   UNL     1       3.325  -0.622  -0.347  0.00  0.00    +0.024 A 
ATOM      4  C   UNL     1       2.142   0.103  -0.353  0.00  0.00    +0.044 A 
ATOM      5  C   UNL     1       0.997  -0.439   0.256  0.00  0.00    +0.058 A 
ATOM      6  C   UNL     1       1.051  -1.694   0.855  0.00  0.00    +0.015 A 
ATOM      7  C   UNL     1      -0.248   0.356   0.240  0.00  0.00    +0.247 C 
ATOM      8  O   UNL     1      -1.328  -0.157   0.461  0.00  0.00    -0.270 OA
ATOM      9  N   UNL     1      -0.137   1.678  -0.030  0.00  0.00    -0.289 N 
ATOM     10  C   UNL     1       1.186   2.267  -0.234  0.00  0.00    +0.193 C 
ATOM     11  N   UNL     1       2.070   1.349  -0.955  0.00  0.00    -0.298 N 
ATOM     12  H   UNL     1      -0.932   2.231  -0.092  0.00  0.00    +0.151 HD
ENDROOT
BRANCH  10  13
ATOM     13  C   UNL     1       1.043   3.539  -1.029  0.00  0.00    -0.008 A 
ATOM     14  C   UNL     1       0.573   3.492  -2.330  0.00  0.00    +0.007 A 
ATOM     15  C   UNL     1       0.438   4.655  -3.066  0.00  0.00    +0.002 A 
ATOM     16  C   UNL     1       0.771   5.872  -2.507  0.00  0.00    +0.019 A 
ATOM     17  C   UNL     1       1.246   5.927  -1.196  0.00  0.00    +0.052 A 
ATOM     18  C   UNL     1       1.375   4.749  -0.456  0.00  0.00    +0.026 A 
BRANCH  17  19
ATOM     19  C   UNL     1       1.593   7.186  -0.609  0.00  0.00    +0.099 C 
ATOM     20  N   UNL     1       1.869   8.185  -0.144  0.00  0.00    -0.191 NA
ENDBRANCH  17  19
ENDBRANCH  10  13
BRANCH  11  21
ATOM     21  C   UNL     1       3.408   1.930  -1.124  0.00  0.00    +0.202 C 
BRANCH  21  22
ATOM     22  C   UNL     1       4.027   2.167   0.230  0.00  0.00    +0.228 C 
ATOM     23  O   UNL     1       3.464   1.778   1.231  0.00  0.00    -0.274 OA
ATOM     24  N   UNL     1       5.207   2.810   0.328  0.00  0.00    -0.328 N 
ATOM     25  H   UNL     1       5.658   3.121  -0.473  0.00  0.00    +0.145 HD
ATOM     26  H   UNL     1       5.606   2.963   1.199  0.00  0.00    +0.145 HD
ENDBRANCH  21  22
ENDBRANCH  11  21
TORSDOF 4
