REMARK  Name = ZINC65575244
REMARK  6 active torsions:
REMARK  status: ('A' for Active; 'I' for Inactive)
REMARK    1  A    between atoms: C_1  and  C_2
REMARK    2  A    between atoms: C_2  and  C_3
REMARK    3  A    between atoms: N_12  and  C_13
REMARK    4  A    between atoms: C_16  and  C_19
REMARK    5  A    between atoms: C_19  and  C_27
REMARK    6  A    between atoms: C_27  and  C_28
REMARK                            x       y       z     vdW  Elec       q    Type
REMARK                         _______ _______ _______ _____ _____    ______ ____
ROOT
ATOM      1  C   UNL     1      -6.909   0.172   1.579  0.00  0.00    +0.035 A 
ATOM      2  C   UNL     1      -6.786   1.554   1.650  0.00  0.00    +0.023 A 
ATOM      3  C   UNL     1      -7.910   2.338   1.818  0.00  0.00    +0.006 A 
ATOM      4  C   UNL     1      -9.157   1.750   1.915  0.00  0.00    -0.032 A 
ATOM      5  C   UNL     1      -9.284   0.375   1.846  0.00  0.00    +0.006 A 
ATOM      6  C   UNL     1      -8.164  -0.415   1.672  0.00  0.00    +0.023 A 
ENDROOT
BRANCH   1  15
ATOM      7  C   UNL     1      -1.204  -0.361   0.997  0.00  0.00    +0.006 C 
ATOM      8  C   UNL     1      -1.155  -1.692   0.242  0.00  0.00    +0.006 C 
ATOM      9  C   UNL     1      -2.545  -2.021  -0.305  0.00  0.00    +0.019 C 
ATOM     10  C   UNL     1      -3.529  -2.162   0.861  0.00  0.00    +0.109 C 
ATOM     11  N   UNL     1      -3.475  -0.941   1.676  0.00  0.00    -0.285 N 
ATOM     12  C   UNL     1      -2.172  -0.483   2.178  0.00  0.00    +0.112 C 
ATOM     13  C   UNL     1      -4.599  -0.253   1.957  0.00  0.00    +0.306 C 
ATOM     14  O   UNL     1      -4.554   0.705   2.706  0.00  0.00    -0.252 OA
ATOM     15  N   UNL     1      -5.772  -0.626   1.409  0.00  0.00    -0.269 N 
ATOM     16  H   UNL     1      -5.829  -1.447   0.896  0.00  0.00    +0.156 HD
BRANCH   7  18
ATOM     17  C   UNL     1       0.171   1.370   2.163  0.00  0.00    +0.004 C 
ATOM     18  C   UNL     1       0.194  -0.017   1.516  0.00  0.00    +0.002 C 
ENDBRANCH   7  18
ENDBRANCH   1  15
BRANCH   4  19
ATOM     19  C   UNL     1     -10.382   2.609   2.099  0.00  0.00    +0.072 C 
ATOM     20  C   UNL     1     -11.636   1.731   2.049  0.00  0.00    +0.030 C 
ATOM     21  C   UNL     1     -12.857   2.606   2.348  0.00  0.00    +0.097 C 
ATOM     22  C   UNL     1     -12.657   3.298   3.671  0.00  0.00    +0.219 C 
ATOM     23  O   UNL     1     -13.623   3.587   4.343  0.00  0.00    -0.275 OA
ATOM     24  N   UNL     1     -11.430   3.601   4.119  0.00  0.00    -0.256 N 
ATOM     25  C   UNL     1     -10.316   3.301   3.434  0.00  0.00    +0.230 C 
ATOM     26  O   UNL     1      -9.235   3.593   3.900  0.00  0.00    -0.274 OA
ATOM     27  H   UNL     1     -11.344   4.054   4.973  0.00  0.00    +0.157 HD
BRANCH  19  28
ATOM     28  C   UNL     1     -10.444   3.655   0.984  0.00  0.00    +0.017 C 
ATOM     29  C   UNL     1     -10.594   2.953  -0.367  0.00  0.00    +0.005 C 
ENDBRANCH  19  28
ENDBRANCH   4  19
TORSDOF 4
