REMARK  Name = ZINC20556022
REMARK  4 active torsions:
REMARK  status: ('A' for Active; 'I' for Inactive)
REMARK    1  A    between atoms: C_1  and  C_2
REMARK    2  A    between atoms: N_5  and  C_11
REMARK    3  A    between atoms: C_7  and  C_10
REMARK    4  A    between atoms: C_23  and  N_25
REMARK                            x       y       z     vdW  Elec       q    Type
REMARK                         _______ _______ _______ _____ _____    ______ ____
ROOT
ATOM      1  C   UNL     1       1.045   5.970   0.024  0.00  0.00    +0.042 C 
ATOM      2  C   UNL     1       0.303   5.754   1.345  0.00  0.00    +0.017 C 
ATOM      3  C   UNL     1       0.993   4.647   2.143  0.00  0.00    +0.001 C 
ATOM      4  C   UNL     1      -0.034   3.582   2.531  0.00  0.00    +0.000 C 
ATOM      5  C   UNL     1       0.461   2.206   2.079  0.00  0.00    +0.000 C 
ATOM      6  C   UNL     1      -0.619   1.527   1.234  0.00  0.00    +0.000 C 
ATOM      7  C   UNL     1      -0.019   1.089  -0.103  0.00  0.00    -0.000 C 
ATOM      8  C   UNL     1      -0.866   1.646  -1.249  0.00  0.00    -0.000 C 
ATOM      9  C   UNL     1       0.033   2.412  -2.222  0.00  0.00    -0.000 C 
ATOM     10  C   UNL     1      -0.529   3.819  -2.436  0.00  0.00    -0.002 C 
ATOM     11  C   UNL     1       0.565   4.852  -2.158  0.00  0.00    -0.015 C 
ATOM     12  C   UNL     1       0.056   5.873  -1.139  0.00  0.00    -0.058 C 
ENDROOT
BRANCH   1  16
ATOM     13  C   UNL     1       3.876   9.147   2.497  0.00  0.00    +0.039 C 
ATOM     14  C   UNL     1       3.016   8.936   1.249  0.00  0.00    +0.130 C 
ATOM     15  C   UNL     1       2.432   7.521   1.263  0.00  0.00    +0.116 C 
ATOM     16  N   UNL     1       1.671   7.298   0.025  0.00  0.00    -0.296 NA
ATOM     17  C   UNL     1       2.530   7.477  -1.154  0.00  0.00    +0.116 C 
ATOM     18  C   UNL     1       3.114   8.893  -1.144  0.00  0.00    +0.130 C 
ATOM     19  O   UNL     1       3.823   9.102   0.080  0.00  0.00    -0.371 OA
ATOM     20  C   UNL     1       1.980   9.914  -1.258  0.00  0.00    +0.039 C 
ENDBRANCH   1  16
BRANCH  12  21
ATOM     21  N   UNL     1      -0.072   7.186  -1.784  0.00  0.00    +0.381 N 
ATOM     22  H   UNL     1      -0.784   7.117  -2.620  0.00  0.00    -0.090 HD
ATOM     23  H   UNL     1       0.909   7.506  -2.163  0.00  0.00    -0.090 HD
ATOM     24  H   UNL     1      -0.439   7.920  -1.050  0.00  0.00    -0.090 HD
ENDBRANCH  12  21
TORSDOF 2
