REMARK  Name = ZINC40734734
REMARK  9 active torsions:
REMARK  status: ('A' for Active; 'I' for Inactive)
REMARK    1  A    between atoms: C_1  and  C_2
REMARK    2  A    between atoms: C_7  and  C_9
REMARK    3  A    between atoms: C_7  and  C_10
REMARK    4  A    between atoms: C_14  and  N_29
REMARK    5  A    between atoms: C_15  and  N_19
REMARK    6  A    between atoms: N_19  and  C_20
REMARK    7  A    between atoms: C_20  and  C_21
REMARK    8  A    between atoms: C_24  and  O_27
REMARK    9  A    between atoms: O_27  and  C_28
REMARK                            x       y       z     vdW  Elec       q    Type
REMARK                         _______ _______ _______ _____ _____    ______ ____
ROOT
ATOM      1  C   UNL     1       0.390   0.179   1.987  0.00  0.00    +0.013 C 
ATOM      2  C   UNL     1      -0.011  -1.284   1.743  0.00  0.00    -0.014 C 
ATOM      3  C   UNL     1       0.954  -2.005   0.763  0.00  0.00    +0.030 C 
ATOM      4  C   UNL     1       0.059  -3.201   0.353  0.00  0.00    +0.076 C 
ATOM      5  C   UNL     1       0.056  -4.185   1.521  0.00  0.00    +0.029 C 
ATOM      6  C   UNL     1      -0.389  -3.573   2.837  0.00  0.00    -0.033 C 
ATOM      7  C   UNL     1      -0.052  -2.106   3.030  0.00  0.00    +0.014 C 
ATOM      8  C   UNL     1      -1.895  -3.799   3.034  0.00  0.00    +0.011 C 
ATOM      9  C   UNL     1       0.322  -4.358   3.968  0.00  0.00    +0.011 C 
ATOM     10  N   UNL     1      -1.293  -2.628   0.199  0.00  0.00    -0.310 N 
ATOM     11  C   UNL     1      -1.369  -1.408   1.017  0.00  0.00    +0.113 C 
ATOM     12  C   UNL     1      -2.315  -3.145  -0.589  0.00  0.00    +0.147 A 
ATOM     13  C   UNL     1      -3.586  -2.568  -0.569  0.00  0.00    +0.105 A 
ATOM     14  C   UNL     1      -4.576  -3.125  -1.380  0.00  0.00    +0.145 A 
ATOM     15  N   UNL     1      -4.273  -4.178  -2.136  0.00  0.00    -0.219 NA
ATOM     16  C   UNL     1      -3.060  -4.692  -2.125  0.00  0.00    +0.225 A 
ATOM     17  N   UNL     1      -2.096  -4.193  -1.378  0.00  0.00    -0.219 NA
ENDROOT
BRANCH  13  18
ATOM     18  N   UNL     1      -3.862  -1.457   0.246  0.00  0.00    -0.353 N 
ATOM     19  H   UNL     1      -3.181  -0.781   0.391  0.00  0.00    +0.143 HD
ATOM     20  H   UNL     1      -4.732  -1.365   0.663  0.00  0.00    +0.143 HD
ENDBRANCH  13  18
BRANCH  14  21
ATOM     21  N   UNL     1      -5.858  -2.590  -1.397  0.00  0.00    -0.323 N 
ATOM     22  H   UNL     1      -6.071  -1.823  -0.843  0.00  0.00    +0.148 HD
BRANCH  21  23
ATOM     23  C   UNL     1      -6.889  -3.184  -2.253  0.00  0.00    +0.138 C 
BRANCH  23  24
ATOM     24  C   UNL     1      -8.179  -2.423  -2.088  0.00  0.00    -0.030 A 
ATOM     25  C   UNL     1      -9.085  -2.804  -1.116  0.00  0.00    +0.009 A 
ATOM     26  C   UNL     1     -10.269  -2.108  -0.963  0.00  0.00    +0.046 A 
ATOM     27  C   UNL     1     -10.547  -1.026  -1.786  0.00  0.00    +0.120 A 
ATOM     28  C   UNL     1      -9.636  -0.645  -2.759  0.00  0.00    +0.046 A 
ATOM     29  C   UNL     1      -8.451  -1.341  -2.905  0.00  0.00    +0.009 A 
BRANCH  27  30
ATOM     30  O   UNL     1     -11.711  -0.340  -1.637  0.00  0.00    -0.495 OA
ATOM     31  C   UNL     1     -11.931   0.763  -2.519  0.00  0.00    +0.277 C 
ENDBRANCH  27  30
ENDBRANCH  23  24
ENDBRANCH  21  23
ENDBRANCH  14  21
TORSDOF 5
