REMARK  Name = ZINC14534693
REMARK  9 active torsions:
REMARK  status: ('A' for Active; 'I' for Inactive)
REMARK    1  A    between atoms: C_1  and  N_2
REMARK    2  A    between atoms: C_3  and  C_5
REMARK    3  A    between atoms: N_8  and  C_10
REMARK    4  A    between atoms: C_10  and  C_11
REMARK    5  A    between atoms: C_11  and  C_12
REMARK    6  A    between atoms: C_20  and  N_63
REMARK    7  A    between atoms: C_23  and  C_24
REMARK    8  A    between atoms: C_23  and  N_63
REMARK    9  A    between atoms: C_24  and  O_30
REMARK                            x       y       z     vdW  Elec       q    Type
REMARK                         _______ _______ _______ _____ _____    ______ ____
ROOT
ATOM      1  C   UNL     1       0.499  -2.961   2.375  0.00  0.00    +0.150 A 
ATOM      2  C   UNL     1       0.521  -1.997   1.353  0.00  0.00    +0.004 A 
ATOM      3  C   UNL     1       0.849  -2.664   0.219  0.00  0.00    +0.043 A 
ATOM      4  N   UNL     1       1.010  -3.956   0.550  0.00  0.00    -0.267 N 
ATOM      5  N   UNL     1       0.804  -4.117   1.811  0.00  0.00    -0.166 NA
ATOM      6  C   UNL     1       0.992  -2.008  -1.131  0.00  0.00    +0.054 C 
ATOM      7  C   UNL     1       1.122  -0.494  -0.920  0.00  0.00    -0.009 C 
ATOM      8  C   UNL     1       0.002  -0.004   0.002  0.00  0.00    -0.067 C 
ATOM      9  C   UNL     1       0.248  -0.520   1.426  0.00  0.00    +0.023 C 
ENDROOT
BRANCH   1  12
ATOM     10  C   UNL     1      -0.092  -3.525   6.086  0.00  0.00    +0.128 C 
ATOM     11  N   UNL     1       0.211  -3.756   4.671  0.00  0.00    -0.313 N 
ATOM     12  C   UNL     1       0.194  -2.727   3.801  0.00  0.00    +0.264 C 
ATOM     13  O   UNL     1      -0.073  -1.607   4.190  0.00  0.00    -0.268 OA
ATOM     14  H   UNL     1       0.424  -4.651   4.361  0.00  0.00    +0.149 HD
ENDBRANCH   1  12
BRANCH   8  15
ATOM     15  N   UNL     1      -0.013   1.471   0.017  0.00  0.00    +0.383 N 
ATOM     16  H   UNL     1       0.950   1.820  -0.053  0.00  0.00    -0.085 HD
ATOM     17  H   UNL     1      -0.432   1.796   0.897  0.00  0.00    -0.085 HD
BRANCH  15  18
ATOM     18  C   UNL     1      -0.802   1.987  -1.117  0.00  0.00    -0.047 C 
BRANCH  18  19
ATOM     19  C   UNL     1      -0.799   3.516  -1.075  0.00  0.00    +0.051 C 
ATOM     20  C   UNL     1      -1.304   3.990   0.289  0.00  0.00    +0.033 C 
ATOM     21  C   UNL     1      -1.301   5.519   0.332  0.00  0.00    +0.003 C 
ATOM     22  C   UNL     1      -2.218   6.061  -0.767  0.00  0.00    +0.000 C 
ATOM     23  C   UNL     1      -1.714   5.588  -2.132  0.00  0.00    +0.003 C 
ATOM     24  C   UNL     1      -1.716   4.058  -2.174  0.00  0.00    +0.033 C 
BRANCH  19  25
ATOM     25  O   UNL     1       0.530   3.997  -1.285  0.00  0.00    -0.390 OA
ATOM     26  H   UNL     1       1.167   3.692  -0.624  0.00  0.00    +0.210 HD
ENDBRANCH  19  25
ENDBRANCH  18  19
ENDBRANCH  15  18
ENDBRANCH   8  15
BRANCH   4  27
ATOM     27  C   UNL     1       1.369  -5.024  -0.386  0.00  0.00    +0.148 C 
BRANCH  27  28
ATOM     28  C   UNL     1       2.892  -5.155  -0.452  0.00  0.00    +0.058 C 
BRANCH  28  29
ATOM     29  C   UNL     1       3.261  -6.254  -1.414  0.00  0.00    -0.046 A 
ATOM     30  C   UNL     1       3.406  -7.551  -0.959  0.00  0.00    +0.004 A 
ATOM     31  C   UNL     1       3.740  -8.560  -1.843  0.00  0.00    +0.000 A 
ATOM     32  C   UNL     1       3.938  -8.270  -3.180  0.00  0.00    +0.000 A 
ATOM     33  C   UNL     1       3.799  -6.972  -3.634  0.00  0.00    +0.000 A 
ATOM     34  C   UNL     1       3.460  -5.964  -2.751  0.00  0.00    +0.004 A 
ENDBRANCH  28  29
ENDBRANCH  27  28
ENDBRANCH   4  27
TORSDOF 8
