REMARK  Name = ZINC18123075
REMARK  11 active torsions:
REMARK  status: ('A' for Active; 'I' for Inactive)
REMARK    1  A    between atoms: C_1  and  C_2
REMARK    2  A    between atoms: C_2  and  C_3
REMARK    3  A    between atoms: C_3  and  C_4
REMARK    4  A    between atoms: C_4  and  C_5
REMARK    5  A    between atoms: C_5  and  C_6
REMARK    6  A    between atoms: C_6  and  O_7
REMARK    7  A    between atoms: O_7  and  C_8
REMARK    8  A    between atoms: C_11  and  N_14
REMARK    9  A    between atoms: C_18  and  N_22
REMARK   10  A    between atoms: C_25  and  C_28
REMARK   11  A    between atoms: C_25  and  N_31
REMARK                            x       y       z     vdW  Elec       q    Type
REMARK                         _______ _______ _______ _____ _____    ______ ____
ROOT
ATOM      1  N   UNL     1       2.743 -10.075  -3.986  0.00  0.00    -0.209 N 
ATOM      2  C   UNL     1       2.227 -11.039  -3.214  0.00  0.00    +0.228 C 
ATOM      3  O   UNL     1       1.686 -10.868  -2.143  0.00  0.00    -0.275 OA
ATOM      4  C   UNL     1       2.426 -12.378  -3.891  0.00  0.00    +0.125 C 
ATOM      5  C   UNL     1       3.154 -12.015  -5.202  0.00  0.00    +0.153 C 
ATOM      6  C   UNL     1       3.285 -10.510  -5.130  0.00  0.00    +0.244 C 
ATOM      7  O   UNL     1       3.801  -9.809  -5.973  0.00  0.00    -0.273 OA
ENDROOT
BRANCH   1  11
ATOM      8  C   UNL     1       2.654  -6.042  -2.919  0.00  0.00    +0.121 A 
ATOM      9  C   UNL     1       1.976  -6.476  -4.050  0.00  0.00    +0.047 A 
ATOM     10  C   UNL     1       2.006  -7.810  -4.403  0.00  0.00    +0.027 A 
ATOM     11  C   UNL     1       2.713  -8.718  -3.627  0.00  0.00    +0.044 A 
ATOM     12  C   UNL     1       3.391  -8.284  -2.496  0.00  0.00    +0.027 A 
ATOM     13  C   UNL     1       3.365  -6.948  -2.146  0.00  0.00    +0.047 A 
BRANCH   8  14
ATOM     14  O   UNL     1       2.625  -4.728  -2.572  0.00  0.00    -0.492 OA
BRANCH  14  15
ATOM     15  C   UNL     1       1.873  -3.851  -3.413  0.00  0.00    +0.229 C 
BRANCH  15  16
ATOM     16  C   UNL     1       1.957  -2.424  -2.867  0.00  0.00    +0.041 C 
BRANCH  16  17
ATOM     17  C   UNL     1       1.151  -1.485  -3.767  0.00  0.00    +0.003 C 
BRANCH  17  18
ATOM     18  C   UNL     1       1.235  -0.059  -3.221  0.00  0.00    -0.000 C 
BRANCH  18  20
ATOM     19  C   UNL     1       0.514   2.307  -3.576  0.00  0.00    +0.004 C 
ATOM     20  C   UNL     1       0.430   0.880  -4.122  0.00  0.00    -0.003 C 
ENDBRANCH  18  20
ENDBRANCH  17  18
ENDBRANCH  16  17
ENDBRANCH  15  16
ENDBRANCH  14  15
ENDBRANCH   8  14
ENDBRANCH   1  11
BRANCH   5  21
ATOM     21  N   UNL     1       4.475 -12.655  -5.253  0.00  0.00    -0.291 NA
ATOM     22  C   UNL     1       4.362 -14.110  -5.087  0.00  0.00    +0.084 C 
ATOM     23  C   UNL     1       5.761 -14.725  -5.000  0.00  0.00    +0.013 C 
ATOM     24  C   UNL     1       6.538 -14.397  -6.278  0.00  0.00    +0.015 C 
ATOM     25  C   UNL     1       6.599 -12.877  -6.453  0.00  0.00    +0.013 C 
ATOM     26  C   UNL     1       5.176 -12.316  -6.498  0.00  0.00    +0.084 C 
BRANCH  24  27
ATOM     27  N   UNL     1       7.901 -14.935  -6.176  0.00  0.00    +0.389 N 
ATOM     28  C   UNL     1       8.604 -14.275  -5.069  0.00  0.00    -0.077 C 
ATOM     29  C   UNL     1       9.996 -14.889  -4.906  0.00  0.00    -0.019 C 
ATOM     30  C   UNL     1      10.788 -14.696  -6.203  0.00  0.00    -0.004 C 
ATOM     31  C   UNL     1      10.009 -15.323  -7.363  0.00  0.00    -0.019 C 
ATOM     32  C   UNL     1       8.616 -14.694  -7.434  0.00  0.00    -0.077 C 
ATOM     33  H   UNL     1       7.857 -15.928  -6.000  0.00  0.00    -0.080 HD
ENDBRANCH  24  27
BRANCH  24  34
ATOM     34  C   UNL     1       5.840 -15.013  -7.463  0.00  0.00    +0.200 C 
ATOM     35  O   UNL     1       5.111 -14.335  -8.157  0.00  0.00    -0.278 OA
ATOM     36  N   UNL     1       6.025 -16.316  -7.752  0.00  0.00    -0.330 N 
ATOM     37  H   UNL     1       6.664 -16.840  -7.244  0.00  0.00    +0.145 HD
ATOM     38  H   UNL     1       5.519 -16.731  -8.469  0.00  0.00    +0.145 HD
ENDBRANCH  24  34
ENDBRANCH   5  21
TORSDOF 10
