REMARK  Name = ZINC01683292
REMARK  6 active torsions:
REMARK  status: ('A' for Active; 'I' for Inactive)
REMARK    1  A    between atoms: C_1  and  C_2
REMARK    2  A    between atoms: C_5  and  C_19
REMARK    3  A    between atoms: C_6  and  N_8
REMARK    4  A    between atoms: N_8  and  S_9
REMARK    5  A    between atoms: S_9  and  C_12
REMARK    6  A    between atoms: C_15  and  N_18
REMARK                            x       y       z     vdW  Elec       q    Type
REMARK                         _______ _______ _______ _____ _____    ______ ____
ROOT
ATOM      1  S   UNL     1      -1.421  -0.852   0.011  0.00  0.00    +0.074 S 
ATOM      2  O   UNL     1      -1.073  -2.229  -0.027  0.00  0.00    -0.150 OA
ATOM      3  O   UNL     1      -2.218  -0.295   1.047  0.00  0.00    -0.150 OA
ENDROOT
BRANCH   1   4
ATOM      4  C   UNL     1      -2.247  -0.499  -1.505  0.00  0.00    +0.109 A 
ATOM      5  C   UNL     1      -3.125   0.566  -1.580  0.00  0.00    +0.030 A 
ATOM      6  C   UNL     1      -3.770   0.849  -2.768  0.00  0.00    +0.024 A 
ATOM      7  C   UNL     1      -3.544   0.055  -3.885  0.00  0.00    +0.025 A 
ATOM      8  C   UNL     1      -2.665  -1.017  -3.805  0.00  0.00    +0.024 A 
ATOM      9  C   UNL     1      -2.019  -1.291  -2.615  0.00  0.00    +0.030 A 
BRANCH   7  10
ATOM     10  N   UNL     1      -4.199   0.335  -5.087  0.00  0.00    -0.358 N 
ATOM     11  H   UNL     1      -4.040  -0.220  -5.867  0.00  0.00    +0.142 HD
ATOM     12  H   UNL     1      -4.812   1.084  -5.142  0.00  0.00    +0.142 HD
ENDBRANCH   7  10
ENDBRANCH   1   4
BRANCH   1  13
ATOM     13  N   UNL     1       0.002  -0.004   0.002  0.00  0.00    -0.198 N 
ATOM     14  H   UNL     1       0.849  -0.478  -0.009  0.00  0.00    +0.175 HD
BRANCH  13  20
ATOM     15  C   UNL     1      -2.501   4.096   0.048  0.00  0.00    +0.067 C 
ATOM     16  C   UNL     1      -1.187   3.357   0.032  0.00  0.00    +0.058 A 
ATOM     17  C   UNL     1       0.001   4.063   0.024  0.00  0.00    +0.134 A 
ATOM     18  N   UNL     1       1.156   3.420   0.009  0.00  0.00    -0.255 NA
ATOM     19  C   UNL     1       1.179   2.101   0.002  0.00  0.00    +0.079 A 
ATOM     20  C   UNL     1      -0.017   1.386   0.010  0.00  0.00    +0.159 A 
ATOM     21  N   UNL     1      -1.174   2.035   0.019  0.00  0.00    -0.233 NA
ATOM     22  C   UNL     1       2.496   1.368  -0.014  0.00  0.00    +0.069 C 
ENDBRANCH  13  20
ENDBRANCH   1  13
TORSDOF 4
