REMARK  Name = ZINC03304766
REMARK  11 active torsions:
REMARK  status: ('A' for Active; 'I' for Inactive)
REMARK    1  A    between atoms: C_1  and  O_2
REMARK    2  A    between atoms: O_2  and  C_3
REMARK    3  A    between atoms: C_6  and  C_11
REMARK    4  A    between atoms: C_8  and  O_9
REMARK    5  A    between atoms: O_9  and  C_10
REMARK    6  A    between atoms: C_13  and  C_21
REMARK    7  A    between atoms: C_24  and  C_26
REMARK    8  A    between atoms: C_26  and  S_27
REMARK    9  A    between atoms: S_27  and  C_28
REMARK   10  A    between atoms: N_33  and  C_34
REMARK   11  A    between atoms: C_34  and  C_35
REMARK                            x       y       z     vdW  Elec       q    Type
REMARK                         _______ _______ _______ _____ _____    ______ ____
ROOT
ATOM      1  C   UNL     1      -0.199  -8.786   0.583  0.00  0.00    +0.249 A 
ATOM      2  N   UNL     1      -0.199  -8.722  -0.729  0.00  0.00    -0.107 NA
ATOM      3  N   UNL     1       0.064  -7.516  -1.093  0.00  0.00    -0.111 NA
ATOM      4  C   UNL     1       0.249  -6.771  -0.037  0.00  0.00    +0.228 A 
ATOM      5  O   UNL     1       0.084  -7.551   1.044  0.00  0.00    -0.419 OA
ENDROOT
BRANCH   1   8
ATOM      6  C   UNL     1      -0.693 -11.098   3.525  0.00  0.00    +0.073 A 
ATOM      7  C   UNL     1      -0.430  -9.937   2.789  0.00  0.00    +0.042 A 
ATOM      8  C   UNL     1      -0.462  -9.986   1.401  0.00  0.00    +0.050 A 
ATOM      9  C   UNL     1      -0.760 -11.279   0.781  0.00  0.00    +0.013 A 
ATOM     10  C   UNL     1      -0.808 -11.430  -0.609  0.00  0.00    +0.011 A 
ATOM     11  C   UNL     1      -1.089 -12.652  -1.144  0.00  0.00    +0.001 A 
ATOM     12  C   UNL     1      -1.329 -13.752  -0.324  0.00  0.00    +0.002 A 
ATOM     13  C   UNL     1      -1.290 -13.639   1.032  0.00  0.00    +0.028 A 
ATOM     14  C   UNL     1      -1.003 -12.394   1.620  0.00  0.00    +0.072 A 
ATOM     15  N   UNL     1      -0.958 -12.253   2.947  0.00  0.00    -0.247 NA
BRANCH   6  19
ATOM     16  C   UNL     1      -0.606 -10.894   7.775  0.00  0.00    +0.162 A 
ATOM     17  C   UNL     1      -0.460  -9.738   7.021  0.00  0.00    +0.050 A 
ATOM     18  C   UNL     1      -0.488  -9.802   5.644  0.00  0.00    +0.014 A 
ATOM     19  C   UNL     1      -0.662 -11.029   5.005  0.00  0.00    +0.004 A 
ATOM     20  C   UNL     1      -0.815 -12.191   5.762  0.00  0.00    +0.059 A 
ATOM     21  C   UNL     1      -0.780 -12.123   7.143  0.00  0.00    +0.162 A 
BRANCH  16  23
ATOM     22  C   UNL     1      -0.395  -9.535   9.714  0.00  0.00    +0.277 C 
ATOM     23  O   UNL     1      -0.578 -10.827   9.132  0.00  0.00    -0.491 OA
ENDBRANCH  16  23
BRANCH  21  24
ATOM     24  O   UNL     1      -0.923 -13.255   7.883  0.00  0.00    -0.491 OA
ATOM     25  C   UNL     1      -1.098 -14.480   7.168  0.00  0.00    +0.277 C 
ENDBRANCH  21  24
ENDBRANCH   6  19
ENDBRANCH   1   8
BRANCH   4  26
ATOM     26  C   UNL     1       0.580  -5.301  -0.033  0.00  0.00    +0.174 C 
BRANCH  26  27
ATOM     27  S   UNL     1      -0.955  -4.335  -0.013  0.00  0.00    -0.087 S 
BRANCH  27  28
ATOM     28  C   UNL     1      -0.405  -2.661  -0.009  0.00  0.00    +0.160 A 
ATOM     29  N   UNL     1       0.826  -2.186  -0.017  0.00  0.00    -0.133 NA
ATOM     30  N   UNL     1       1.033  -0.826  -0.012  0.00  0.00    -0.125 NA
ATOM     31  C   UNL     1       0.002  -0.004   0.002  0.00  0.00    +0.183 A 
ATOM     32  S   UNL     1      -1.364  -1.155   0.016  0.00  0.00    -0.025 S 
ATOM     33  N   UNL     1      -0.017   1.386   0.010  0.00  0.00    -0.318 N 
ATOM     34  H   UNL     1      -0.863   1.859   0.016  0.00  0.00    +0.148 HD
BRANCH  33  35
ATOM     35  C   UNL     1       1.242   2.135   0.002  0.00  0.00    +0.138 C 
BRANCH  35  36
ATOM     36  C   UNL     1       0.946   3.613   0.012  0.00  0.00    -0.030 A 
ATOM     37  C   UNL     1       0.805   4.298  -1.180  0.00  0.00    +0.005 A 
ATOM     38  C   UNL     1       0.529   5.653  -1.170  0.00  0.00    +0.000 A 
ATOM     39  C   UNL     1       0.405   6.324   0.032  0.00  0.00    +0.000 A 
ATOM     40  C   UNL     1       0.552   5.640   1.224  0.00  0.00    +0.000 A 
ATOM     41  C   UNL     1       0.822   4.285   1.214  0.00  0.00    +0.005 A 
ENDBRANCH  35  36
ENDBRANCH  33  35
ENDBRANCH  27  28
ENDBRANCH  26  27
ENDBRANCH   4  26
TORSDOF 9
