REMARK  Name = ZINC39267328
REMARK  8 active torsions:
REMARK  status: ('A' for Active; 'I' for Inactive)
REMARK    1  A    between atoms: C_4  and  C_7
REMARK    2  A    between atoms: C_7  and  C_8
REMARK    3  A    between atoms: C_7  and  N_14
REMARK    4  A    between atoms: N_14  and  C_15
REMARK    5  A    between atoms: C_15  and  C_17
REMARK    6  A    between atoms: C_15  and  C_22
REMARK    7  A    between atoms: N_27  and  C_30
REMARK    8  A    between atoms: C_30  and  C_31
REMARK                            x       y       z     vdW  Elec       q    Type
REMARK                         _______ _______ _______ _____ _____    ______ ____
ROOT
ATOM      1  C   UNL     1       3.392  -1.433  -2.352  0.00  0.00    +0.055 C 
ENDROOT
BRANCH   1   2
ATOM      2  C   UNL     1       3.489  -2.737  -3.100  0.00  0.00    +0.206 C 
ATOM      3  O   UNL     1       3.875  -3.736  -2.530  0.00  0.00    -0.277 OA
ATOM      4  N   UNL     1       3.147  -2.795  -4.403  0.00  0.00    -0.300 N 
ATOM      5  C   UNL     1       2.787  -1.576  -5.143  0.00  0.00    +0.123 C 
ATOM      6  C   UNL     1       3.616  -1.524  -6.430  0.00  0.00    +0.103 C 
ATOM      7  N   UNL     1       3.438  -2.779  -7.174  0.00  0.00    -0.295 NA
ATOM      8  C   UNL     1       3.941  -3.928  -6.410  0.00  0.00    +0.103 C 
ATOM      9  C   UNL     1       3.131  -4.077  -5.123  0.00  0.00    +0.123 C 
BRANCH   7  10
ATOM     10  C   UNL     1       4.078  -2.703  -8.494  0.00  0.00    +0.119 C 
BRANCH  10  11
ATOM     11  C   UNL     1       3.671  -3.897  -9.319  0.00  0.00    -0.033 A 
ATOM     12  C   UNL     1       4.435  -5.062  -9.264  0.00  0.00    +0.005 A 
ATOM     13  C   UNL     1       4.095  -6.158  -9.995  0.00  0.00    +0.009 A 
ATOM     14  C   UNL     1       2.958  -6.118 -10.820  0.00  0.00    -0.018 A 
ATOM     15  C   UNL     1       2.576  -7.230 -11.590  0.00  0.00    +0.008 A 
ATOM     16  C   UNL     1       1.468  -7.155 -12.377  0.00  0.00    +0.001 A 
ATOM     17  C   UNL     1       0.704  -5.991 -12.431  0.00  0.00    +0.001 A 
ATOM     18  C   UNL     1       1.043  -4.895 -11.700  0.00  0.00    +0.008 A 
ATOM     19  C   UNL     1       2.181  -4.934 -10.876  0.00  0.00    -0.018 A 
ATOM     20  C   UNL     1       2.560  -3.824 -10.101  0.00  0.00    +0.013 A 
ENDBRANCH  10  11
ENDBRANCH   7  10
ENDBRANCH   1   2
BRANCH   1  21
ATOM     21  C   UNL     1       4.676  -0.661  -2.520  0.00  0.00    -0.015 A 
ATOM     22  C   UNL     1       4.918   0.438  -3.276  0.00  0.00    +0.010 A 
ATOM     23  C   UNL     1       6.188   0.985  -3.276  0.00  0.00    +0.008 A 
ATOM     24  C   UNL     1       7.153   0.406  -2.520  0.00  0.00    +0.045 A 
ATOM     25  S   UNL     1       6.269  -0.952  -1.769  0.00  0.00    -0.103 S 
ENDBRANCH   1  21
BRANCH   1  26
ATOM     26  N   UNL     1       3.165  -1.702  -0.926  0.00  0.00    +0.397 N 
ATOM     27  H   UNL     1       3.971  -2.171  -0.540  0.00  0.00    -0.083 HD
ATOM     28  H   UNL     1       2.351  -2.288  -0.820  0.00  0.00    -0.083 HD
BRANCH  26  29
ATOM     29  C   UNL     1       2.951  -0.433  -0.216  0.00  0.00    -0.009 C 
BRANCH  29  33
ATOM     30  C   UNL     1      -0.652   1.387  -1.612  0.00  0.00    +0.000 A 
ATOM     31  C   UNL     1       0.461   2.166  -1.354  0.00  0.00    +0.000 A 
ATOM     32  C   UNL     1       1.627   1.577  -0.902  0.00  0.00    +0.002 A 
ATOM     33  C   UNL     1       1.680   0.209  -0.708  0.00  0.00    -0.057 A 
ATOM     34  C   UNL     1       0.567  -0.569  -0.966  0.00  0.00    +0.002 A 
ATOM     35  C   UNL     1      -0.599   0.020  -1.419  0.00  0.00    +0.000 A 
ENDBRANCH  29  33
BRANCH  29  36
ATOM     36  C   UNL     1       2.841  -0.698   1.263  0.00  0.00    -0.057 A 
ATOM     37  C   UNL     1       2.152  -1.806   1.718  0.00  0.00    +0.002 A 
ATOM     38  C   UNL     1       2.051  -2.049   3.075  0.00  0.00    +0.000 A 
ATOM     39  C   UNL     1       2.639  -1.183   3.977  0.00  0.00    +0.000 A 
ATOM     40  C   UNL     1       3.329  -0.074   3.523  0.00  0.00    +0.000 A 
ATOM     41  C   UNL     1       3.434   0.166   2.166  0.00  0.00    +0.002 A 
ENDBRANCH  29  36
ENDBRANCH  26  29
ENDBRANCH   1  26
TORSDOF 8
