REMARK  Name = ZINC15643067
REMARK  7 active torsions:
REMARK  status: ('A' for Active; 'I' for Inactive)
REMARK    1  A    between atoms: C_1  and  C_2
REMARK    2  A    between atoms: C_2  and  C_4
REMARK    3  A    between atoms: C_2  and  O_14
REMARK    4  A    between atoms: N_6  and  C_7
REMARK    5  A    between atoms: O_14  and  C_15
REMARK    6  A    between atoms: C_15  and  C_17
REMARK    7  A    between atoms: C_22  and  N_23
REMARK                            x       y       z     vdW  Elec       q    Type
REMARK                         _______ _______ _______ _____ _____    ______ ____
ROOT
ATOM      1  C   UNL     1      -3.734  -1.376  -1.312  0.00  0.00    +0.080 A 
ATOM      2  C   UNL     1      -4.397  -1.496  -0.091  0.00  0.00    +0.017 A 
ATOM      3  C   UNL     1      -5.679  -2.009  -0.038  0.00  0.00    +0.013 A 
ATOM      4  C   UNL     1      -6.325  -2.413  -1.203  0.00  0.00    +0.035 A 
ATOM      5  C   UNL     1      -5.672  -2.300  -2.443  0.00  0.00    +0.054 A 
ATOM      6  C   UNL     1      -4.374  -1.775  -2.500  0.00  0.00    +0.050 A 
ATOM      7  C   UNL     1      -6.352  -2.728  -3.678  0.00  0.00    +0.196 C 
ATOM      8  O   UNL     1      -5.785  -2.630  -4.749  0.00  0.00    -0.287 OA
ATOM      9  C   UNL     1      -7.723  -3.277  -3.615  0.00  0.00    +0.033 A 
ATOM     10  C   UNL     1      -8.370  -3.684  -4.778  0.00  0.00    +0.012 A 
ATOM     11  C   UNL     1      -9.653  -4.197  -4.709  0.00  0.00    +0.001 A 
ATOM     12  C   UNL     1     -10.299  -4.309  -3.491  0.00  0.00    +0.001 A 
ATOM     13  C   UNL     1      -9.670  -3.909  -2.325  0.00  0.00    +0.012 A 
ATOM     14  C   UNL     1      -8.379  -3.391  -2.376  0.00  0.00    +0.033 A 
ATOM     15  C   UNL     1      -7.698  -2.962  -1.137  0.00  0.00    +0.195 C 
ATOM     16  O   UNL     1      -8.264  -3.061  -0.067  0.00  0.00    -0.287 OA
ENDROOT
BRANCH   6  17
ATOM     17  N   UNL     1      -3.726  -1.655  -3.712  0.00  0.00    -0.357 N 
ATOM     18  H   UNL     1      -2.757  -1.673  -3.748  0.00  0.00    +0.142 HD
ATOM     19  H   UNL     1      -4.239  -1.551  -4.529  0.00  0.00    +0.142 HD
ENDBRANCH   6  17
BRANCH   1  20
ATOM     20  C   UNL     1      -2.366  -0.827  -1.359  0.00  0.00    +0.342 C 
ATOM     21  O   UNL     1      -1.832  -0.618  -2.430  0.00  0.00    -0.245 OA
BRANCH  20  22
ATOM     22  O   UNL     1      -1.709  -0.558  -0.214  0.00  0.00    -0.449 OA
BRANCH  22  24
ATOM     23  C   UNL     1      -0.453   1.500  -0.383  0.00  0.00    +0.062 C 
ATOM     24  C   UNL     1      -0.387  -0.028  -0.334  0.00  0.00    +0.259 C 
BRANCH  24  25
ATOM     25  C   UNL     1       0.436  -0.457   0.853  0.00  0.00    +0.258 C 
ATOM     26  O   UNL     1      -0.083  -1.071   1.761  0.00  0.00    -0.271 OA
ATOM     27  N   UNL     1       1.749  -0.158   0.907  0.00  0.00    -0.281 N 
ATOM     28  H   UNL     1       2.177   0.281   0.155  0.00  0.00    +0.155 HD
BRANCH  27  29
ATOM     29  C   UNL     1       2.495  -0.481   2.046  0.00  0.00    +0.052 A 
ATOM     30  C   UNL     1       2.204  -1.633   2.765  0.00  0.00    +0.025 A 
ATOM     31  C   UNL     1       2.942  -1.949   3.889  0.00  0.00    +0.002 A 
ATOM     32  C   UNL     1       3.969  -1.119   4.300  0.00  0.00    +0.002 A 
ATOM     33  C   UNL     1       4.262   0.029   3.587  0.00  0.00    +0.022 A 
ATOM     34  C   UNL     1       3.531   0.348   2.458  0.00  0.00    +0.062 A 
ATOM     35 CL   UNL     1       3.904   1.786   1.560  0.00  0.00    -0.082 Cl
ENDBRANCH  27  29
ENDBRANCH  24  25
ENDBRANCH  22  24
ENDBRANCH  20  22
ENDBRANCH   1  20
TORSDOF 6
