REMARK  Name = ZINC03840474
REMARK  5 active torsions:
REMARK  status: ('A' for Active; 'I' for Inactive)
REMARK    1  A    between atoms: C_1  and  S_2
REMARK    2  A    between atoms: S_2  and  C_3
REMARK    3  A    between atoms: C_6  and  C_9
REMARK    4  A    between atoms: C_20  and  N_28
REMARK    5  A    between atoms: C_29  and  C_31
REMARK                            x       y       z     vdW  Elec       q    Type
REMARK                         _______ _______ _______ _____ _____    ______ ____
ROOT
ATOM      1  C   UNL     1      -3.594   1.872   0.851  0.00  0.00    -0.017 A 
ATOM      2  C   UNL     1      -3.869   3.018   0.101  0.00  0.00    +0.010 A 
ATOM      3  C   UNL     1      -2.885   3.592  -0.650  0.00  0.00    +0.024 A 
ATOM      4  C   UNL     1      -1.598   3.044  -0.701  0.00  0.00    +0.046 A 
ATOM      5  C   UNL     1      -1.318   1.886   0.019  0.00  0.00    +0.059 A 
ATOM      6  C   UNL     1      -2.328   1.311   0.808  0.00  0.00    +0.023 A 
ATOM      7  C   UNL     1      -0.014   1.212   0.009  0.00  0.00    +0.249 C 
ATOM      8  O   UNL     1       0.002  -0.004   0.002  0.00  0.00    -0.270 OA
ATOM      9  N   UNL     1       1.167   1.864   0.001  0.00  0.00    -0.286 N 
ATOM     10  C   UNL     1       2.385   1.067  -0.149  0.00  0.00    +0.111 C 
ATOM     11  C   UNL     1       3.567   1.737   0.546  0.00  0.00    +0.041 C 
ATOM     12  C   UNL     1       3.672   3.180   0.038  0.00  0.00    +0.077 C 
ATOM     13  C   UNL     1       2.455   3.953   0.539  0.00  0.00    +0.054 C 
ATOM     14  C   UNL     1       1.161   3.308   0.113  0.00  0.00    +0.164 C 
ATOM     15  C   UNL     1       0.599   3.919  -1.135  0.00  0.00    +0.238 C 
ATOM     16  O   UNL     1       1.309   4.607  -1.838  0.00  0.00    -0.273 OA
ATOM     17  N   UNL     1      -0.672   3.715  -1.482  0.00  0.00    -0.283 N 
ATOM     18  H   UNL     1      -0.968   4.060  -2.339  0.00  0.00    +0.155 HD
ENDROOT
BRANCH   1  22
ATOM     19  C   UNL     1      -6.631   0.110   3.253  0.00  0.00    +0.008 A 
ATOM     20  C   UNL     1      -6.909   1.252   2.509  0.00  0.00    +0.015 A 
ATOM     21  C   UNL     1      -5.926   1.824   1.730  0.00  0.00    +0.009 A 
ATOM     22  C   UNL     1      -4.653   1.258   1.689  0.00  0.00    -0.018 A 
ATOM     23  C   UNL     1      -4.377   0.110   2.431  0.00  0.00    +0.009 A 
ATOM     24  C   UNL     1      -5.361  -0.456   3.213  0.00  0.00    +0.015 A 
BRANCH  19  26
ATOM     25  C   UNL     1      -7.072  -2.048   5.010  0.00  0.00    +0.090 C 
ATOM     26  S   UNL     1      -7.889  -0.619   4.249  0.00  0.00    -0.129 S 
ENDBRANCH  19  26
ENDBRANCH   1  22
BRANCH  12  27
ATOM     27  N   UNL     1       4.896   3.798   0.554  0.00  0.00    -0.312 N 
ATOM     28  C   UNL     1       6.064   3.624  -0.096  0.00  0.00    +0.216 C 
ATOM     29  O   UNL     1       6.102   2.955  -1.107  0.00  0.00    -0.276 OA
ATOM     30  H   UNL     1       4.866   4.332   1.363  0.00  0.00    +0.149 HD
BRANCH  28  31
ATOM     31  C   UNL     1       7.324   4.259   0.435  0.00  0.00    +0.071 C 
ATOM     32  C   UNL     1       7.152   5.780   0.472  0.00  0.00    -0.007 C 
ATOM     33  C   UNL     1       8.455   6.424   0.954  0.00  0.00    -0.082 C 
ATOM     34  C   UNL     1       9.762   4.606   0.028  0.00  0.00    -0.082 C 
ATOM     35  C   UNL     1       8.499   3.909  -0.482  0.00  0.00    -0.007 C 
ATOM     36  N   UNL     1       9.554   6.067   0.038  0.00  0.00    +0.379 N 
ATOM     37  H   UNL     1      10.417   6.529   0.348  0.00  0.00    -0.086 HD
ATOM     38  H   UNL     1       9.320   6.381  -0.911  0.00  0.00    -0.086 HD
ENDBRANCH  28  31
ENDBRANCH  12  27
TORSDOF 4
