REMARK  Name = ZINC12549650
REMARK  6 active torsions:
REMARK  status: ('A' for Active; 'I' for Inactive)
REMARK    1  A    between atoms: C_1  and  C_2
REMARK    2  A    between atoms: C_2  and  O_3
REMARK    3  A    between atoms: O_3  and  C_4
REMARK    4  A    between atoms: C_5  and  O_31
REMARK    5  A    between atoms: C_7  and  C_11
REMARK    6  A    between atoms: O_31  and  C_32
REMARK                            x       y       z     vdW  Elec       q    Type
REMARK                         _______ _______ _______ _____ _____    ______ ____
ROOT
ATOM      1  C   UNL     1       1.107  -6.045  -1.850  0.00  0.00    +0.209 C 
ATOM      2  N   UNL     1       0.630  -6.428  -3.192  0.00  0.00    -0.294 N 
ATOM      3  C   UNL     1      -0.711  -6.588  -3.419  0.00  0.00    +0.160 C 
ATOM      4  N   UNL     1      -1.530  -6.983  -2.460  0.00  0.00    -0.302 N 
ATOM      5  C   UNL     1      -1.025  -7.168  -1.217  0.00  0.00    +0.213 A 
ATOM      6  N   UNL     1       0.248  -6.737  -0.883  0.00  0.00    -0.286 N 
ATOM      7  C   UNL     1       0.478  -7.074   0.430  0.00  0.00    +0.076 A 
ATOM      8  C   UNL     1       1.552  -6.921   1.296  0.00  0.00    +0.077 A 
ATOM      9  C   UNL     1       1.460  -7.383   2.595  0.00  0.00    +0.164 A 
ATOM     10  C   UNL     1       0.297  -8.004   3.042  0.00  0.00    +0.164 A 
ATOM     11  C   UNL     1      -0.779  -8.166   2.195  0.00  0.00    +0.079 A 
ATOM     12  C   UNL     1      -0.700  -7.702   0.878  0.00  0.00    +0.095 A 
ATOM     13  N   UNL     1      -1.579  -7.718  -0.169  0.00  0.00    -0.212 NA
ATOM     14  O   UNL     1       0.226  -8.453   4.330  0.00  0.00    -0.488 OA
ATOM     15  C   UNL     1       1.067  -9.561   4.654  0.00  0.00    +0.232 C 
ATOM     16  C   UNL     1       2.467  -9.089   5.016  0.00  0.00    +0.082 C 
ATOM     17  C   UNL     1       3.179  -8.435   3.842  0.00  0.00    +0.232 C 
ATOM     18  O   UNL     1       2.514  -7.232   3.451  0.00  0.00    -0.488 OA
ATOM     19  N   UNL     1      -1.214  -6.334  -4.666  0.00  0.00    -0.332 N 
ATOM     20  H   UNL     1       1.265  -6.566  -3.912  0.00  0.00    +0.151 HD
ATOM     21  H   UNL     1      -0.622  -6.043  -5.378  0.00  0.00    +0.145 HD
ATOM     22  H   UNL     1      -2.162  -6.444  -4.838  0.00  0.00    +0.145 HD
ATOM     23  H   UNL     1      -2.471  -7.136  -2.641  0.00  0.00    +0.171 HD
ENDROOT
BRANCH   1  27
ATOM     24  C   UNL     1       0.777  -1.811  -1.336  0.00  0.00    +0.180 A 
ATOM     25  C   UNL     1       1.877  -2.491  -0.823  0.00  0.00    +0.163 A 
ATOM     26  C   UNL     1       1.980  -3.863  -0.991  0.00  0.00    +0.056 A 
ATOM     27  C   UNL     1       0.992  -4.553  -1.668  0.00  0.00    -0.002 A 
ATOM     28  C   UNL     1      -0.100  -3.878  -2.179  0.00  0.00    +0.031 A 
ATOM     29  C   UNL     1      -0.213  -2.510  -2.009  0.00  0.00    +0.087 A 
ATOM     30 CL   UNL     1      -1.591  -1.667  -2.646  0.00  0.00    -0.080 Cl
BRANCH  25  31
ATOM     31  O   UNL     1       2.848  -1.811  -0.157  0.00  0.00    -0.491 OA
ATOM     32  C   UNL     1       3.948  -2.574   0.343  0.00  0.00    +0.277 C 
ENDBRANCH  25  31
BRANCH  24  33
ATOM     33  O   UNL     1       0.671  -0.465  -1.174  0.00  0.00    -0.487 OA
BRANCH  33  35
ATOM     34  C   UNL     1      -0.019   1.526   0.010  0.00  0.00    +0.048 C 
ATOM     35  C   UNL     1       0.002  -0.004   0.002  0.00  0.00    +0.226 C 
ENDBRANCH  33  35
ENDBRANCH  24  33
ENDBRANCH   1  27
TORSDOF 4
