REMARK  Name = ZINC11787404
REMARK  6 active torsions:
REMARK  status: ('A' for Active; 'I' for Inactive)
REMARK    1  A    between atoms: C_2  and  C_3
REMARK    2  A    between atoms: C_3  and  N_53
REMARK    3  A    between atoms: C_4  and  N_53
REMARK    4  A    between atoms: N_7  and  C_10
REMARK    5  A    between atoms: C_13  and  C_16
REMARK    6  A    between atoms: C_22  and  O_25
REMARK                            x       y       z     vdW  Elec       q    Type
REMARK                         _______ _______ _______ _____ _____    ______ ____
ROOT
ATOM      1  C   UNL     1      -0.023   1.387   0.087  0.00  0.00    +0.030 A 
ATOM      2  C   UNL     1      -0.858   2.082   0.957  0.00  0.00    +0.024 A 
ATOM      3  C   UNL     1      -0.873   3.458   0.946  0.00  0.00    +0.015 A 
ATOM      4  C   UNL     1      -0.056   4.157   0.052  0.00  0.00    +0.037 A 
ATOM      5  C   UNL     1       0.777   3.456  -0.825  0.00  0.00    +0.015 A 
ATOM      6  C   UNL     1       0.791   2.080  -0.805  0.00  0.00    +0.024 A 
ENDROOT
BRANCH   4   7
ATOM      7  C   UNL     1      -0.074   5.632   0.033  0.00  0.00    +0.247 C 
ATOM      8  O   UNL     1       0.969   6.254   0.095  0.00  0.00    -0.270 OA
ATOM      9  N   UNL     1      -1.247   6.291  -0.054  0.00  0.00    -0.295 N 
ATOM     10  C   UNL     1      -2.520   5.557  -0.047  0.00  0.00    +0.108 C 
ATOM     11  C   UNL     1      -3.336   5.973  -1.276  0.00  0.00    +0.021 C 
ATOM     12  C   UNL     1      -3.488   7.495  -1.290  0.00  0.00    +0.034 C 
ATOM     13  C   UNL     1      -2.107   8.147  -1.385  0.00  0.00    +0.132 C 
ATOM     14  C   UNL     1      -1.277   7.756  -0.152  0.00  0.00    +0.139 C 
BRANCH  13  15
ATOM     15  O   UNL     1      -2.252   9.568  -1.429  0.00  0.00    -0.390 OA
ATOM     16  H   UNL     1      -1.414  10.047  -1.490  0.00  0.00    +0.210 HD
ENDBRANCH  13  15
ENDBRANCH   4   7
BRANCH   1  20
ATOM     17  C   UNL     1       0.401  -2.635   1.222  0.00  0.00    -0.069 C 
ATOM     18  C   UNL     1      -0.999  -2.054   1.006  0.00  0.00    +0.003 C 
ATOM     19  C   UNL     1      -0.935  -0.528   1.114  0.00  0.00    +0.103 C 
ATOM     20  N   UNL     1      -0.006  -0.004   0.104  0.00  0.00    -0.330 N 
ATOM     21  C   UNL     1       1.355  -0.511   0.320  0.00  0.00    +0.103 C 
ATOM     22  C   UNL     1       1.359  -2.036   0.189  0.00  0.00    +0.003 C 
BRANCH  17  23
ATOM     23  N   UNL     1       0.350  -4.100   1.056  0.00  0.00    +0.383 N 
ATOM     24  H   UNL     1      -0.549  -4.449   1.410  0.00  0.00    -0.085 HD
ATOM     25  H   UNL     1       0.439  -4.331   0.060  0.00  0.00    -0.085 HD
BRANCH  23  26
ATOM     26  C   UNL     1       1.449  -4.739   1.805  0.00  0.00    -0.055 C 
BRANCH  26  28
ATOM     27  C   UNL     1       2.409  -6.891   1.165  0.00  0.00    +0.002 C 
ATOM     28  C   UNL     1       1.371  -6.232   1.617  0.00  0.00    -0.054 C 
ENDBRANCH  26  28
ENDBRANCH  23  26
ENDBRANCH  17  23
ENDBRANCH   1  20
TORSDOF 6
