REMARK  Name = ZINC63927200
REMARK  4 active torsions:
REMARK  status: ('A' for Active; 'I' for Inactive)
REMARK    1  A    between atoms: C_8  and  C_12
REMARK    2  A    between atoms: C_12  and  S_13
REMARK    3  A    between atoms: S_13  and  C_16
REMARK    4  A    between atoms: C_19  and  O_22
REMARK                            x       y       z     vdW  Elec       q    Type
REMARK                         _______ _______ _______ _____ _____    ______ ____
ROOT
ATOM      1  C   UNL     1       2.384  -4.189  -0.042  0.00  0.00    +0.227 C 
ENDROOT
BRANCH   1   9
ATOM      2  C   UNL     1      -0.016   1.359   0.009  0.00  0.00    +0.005 A 
ATOM      3  C   UNL     1       1.194   2.067   0.002  0.00  0.00    +0.018 A 
ATOM      4  C   UNL     1       2.370   1.401  -0.013  0.00  0.00    +0.096 A 
ATOM      5  N   UNL     1       2.400   0.039  -0.021  0.00  0.00    -0.268 N 
ATOM      6  C   UNL     1       1.236  -0.679  -0.013  0.00  0.00    +0.141 A 
ATOM      7  C   UNL     1       0.002  -0.004   0.002  0.00  0.00    +0.047 A 
ATOM      8  N   UNL     1       1.256  -2.011  -0.020  0.00  0.00    -0.232 NA
ATOM      9  C   UNL     1       2.397  -2.682  -0.034  0.00  0.00    +0.070 A 
ATOM     10  C   UNL     1       3.600  -2.003  -0.042  0.00  0.00    +0.095 A 
ATOM     11  C   UNL     1       3.587  -0.603  -0.035  0.00  0.00    +0.259 A 
ATOM     12  O   UNL     1       4.633   0.026  -0.043  0.00  0.00    -0.267 OA
ENDBRANCH   1   9
BRANCH   1  13
ATOM     13  S   UNL     1       1.952  -4.798   1.611  0.00  0.00    +0.002 S 
ATOM     14  O   UNL     1       2.993  -4.499   2.531  0.00  0.00    -0.169 OA
ATOM     15  O   UNL     1       0.602  -4.474   1.915  0.00  0.00    -0.169 OA
BRANCH  13  16
ATOM     16  C   UNL     1       1.971  -6.554   1.466  0.00  0.00    +0.089 A 
ATOM     17  C   UNL     1       0.820  -7.229   1.105  0.00  0.00    +0.030 A 
ATOM     18  C   UNL     1       0.832  -8.606   0.992  0.00  0.00    +0.047 A 
ATOM     19  C   UNL     1       2.001  -9.311   1.239  0.00  0.00    +0.117 A 
ATOM     20  C   UNL     1       3.155  -8.631   1.601  0.00  0.00    +0.047 A 
ATOM     21  C   UNL     1       3.139  -7.254   1.709  0.00  0.00    +0.030 A 
BRANCH  19  22
ATOM     22  O   UNL     1       2.016 -10.665   1.129  0.00  0.00    -0.507 OA
ATOM     23  H   UNL     1       2.244 -10.985   0.245  0.00  0.00    +0.292 HD
ENDBRANCH  19  22
ENDBRANCH  13  16
ENDBRANCH   1  13
TORSDOF 4
