REMARK  Name = ZINC00946539
REMARK  6 active torsions:
REMARK  status: ('A' for Active; 'I' for Inactive)
REMARK    1  A    between atoms: C_4  and  C_7
REMARK    2  A    between atoms: C_7  and  C_9
REMARK    3  A    between atoms: C_11  and  C_23
REMARK    4  A    between atoms: C_17  and  C_18
REMARK    5  A    between atoms: C_17  and  O_22
REMARK    6  A    between atoms: C_27  and  O_29
REMARK                            x       y       z     vdW  Elec       q    Type
REMARK                         _______ _______ _______ _____ _____    ______ ____
ROOT
ATOM      1  C   UNL     1      -1.572   2.213   0.096  0.00  0.00    +0.144 C 
ATOM      2  C   UNL     1      -1.403   3.661   0.567  0.00  0.00    +0.118 C 
ATOM      3  N   UNL     1      -2.601   4.424   0.213  0.00  0.00    -0.319 N 
ATOM      4  C   UNL     1      -3.345   4.099  -0.856  0.00  0.00    +0.133 C 
ATOM      5  S   UNL     1      -4.724   5.047  -1.216  0.00  0.00    -0.019 S 
ATOM      6  N   UNL     1      -3.049   3.062  -1.653  0.00  0.00    -0.291 N 
ATOM      7  C   UNL     1      -1.877   2.221  -1.406  0.00  0.00    +0.241 C 
ATOM      8  H   UNL     1      -2.863   5.179   0.762  0.00  0.00    +0.148 HD
ATOM      9  H   UNL     1      -3.624   2.865  -2.409  0.00  0.00    +0.151 HD
ENDROOT
BRANCH   2  10
ATOM     10  C   UNL     1      -1.215   3.685   2.062  0.00  0.00    -0.023 A 
ATOM     11  C   UNL     1      -2.311   3.583   2.899  0.00  0.00    +0.006 A 
ATOM     12  C   UNL     1      -2.141   3.599   4.271  0.00  0.00    +0.004 A 
ATOM     13  C   UNL     1      -0.875   3.729   4.809  0.00  0.00    +0.045 A 
ATOM     14  C   UNL     1       0.226   3.838   3.973  0.00  0.00    +0.117 A 
ATOM     15  C   UNL     1       0.052   3.815   2.596  0.00  0.00    +0.051 A 
BRANCH  14  16
ATOM     16  O   UNL     1       1.471   3.966   4.500  0.00  0.00    -0.507 OA
ATOM     17  H   UNL     1       1.743   4.882   4.650  0.00  0.00    +0.292 HD
ENDBRANCH  14  16
ENDBRANCH   2  10
BRANCH   7  18
ATOM     18  C   UNL     1      -2.163   0.794  -1.877  0.00  0.00    +0.436 C 
ATOM     19  F   UNL     1      -3.187   0.242  -1.099  0.00  0.00    -0.166 F 
ATOM     20  F   UNL     1      -2.558   0.816  -3.219  0.00  0.00    -0.166 F 
ATOM     21  F   UNL     1      -1.006   0.018  -1.744  0.00  0.00    -0.166 F 
ENDBRANCH   7  18
BRANCH   1  22
ATOM     22  C   UNL     1      -0.299   1.447   0.349  0.00  0.00    +0.173 C 
ATOM     23  O   UNL     1       0.735   1.799  -0.175  0.00  0.00    -0.292 OA
BRANCH  22  27
ATOM     24  C   UNL     1      -0.340  -1.952   2.887  0.00  0.00    +0.000 A 
ATOM     25  C   UNL     1       0.810  -1.629   2.187  0.00  0.00    +0.001 A 
ATOM     26  C   UNL     1       0.831  -0.526   1.360  0.00  0.00    +0.011 A 
ATOM     27  C   UNL     1      -0.313   0.267   1.230  0.00  0.00    +0.018 A 
ATOM     28  C   UNL     1      -1.469  -0.063   1.944  0.00  0.00    +0.011 A 
ATOM     29  C   UNL     1      -1.476  -1.172   2.763  0.00  0.00    +0.001 A 
ENDBRANCH  22  27
ENDBRANCH   1  22
BRANCH   7  30
ATOM     30  O   UNL     1      -0.754   2.745  -2.118  0.00  0.00    -0.364 OA
ATOM     31  H   UNL     1      -0.878   2.779  -3.077  0.00  0.00    +0.212 HD
ENDBRANCH   7  30
TORSDOF 6
