REMARK  Name = ZINC35893169
REMARK  8 active torsions:
REMARK  status: ('A' for Active; 'I' for Inactive)
REMARK    1  A    between atoms: C_4  and  C_7
REMARK    2  A    between atoms: C_7  and  O_8
REMARK    3  A    between atoms: O_8  and  C_9
REMARK    4  A    between atoms: C_9  and  C_10
REMARK    5  A    between atoms: N_15  and  C_18
REMARK    6  A    between atoms: C_18  and  C_19
REMARK    7  A    between atoms: C_20  and  C_27
REMARK    8  A    between atoms: C_30  and  N_33
REMARK                            x       y       z     vdW  Elec       q    Type
REMARK                         _______ _______ _______ _____ _____    ______ ____
ROOT
ATOM      1  C   UNL     1      10.421  -2.712   4.275  0.00  0.00    +0.140 C 
ENDROOT
BRANCH   1   7
ATOM      2  C   UNL     1       5.005  -2.420   4.129  0.00  0.00    +0.241 C 
ATOM      3  O   UNL     1       4.436  -1.998   5.114  0.00  0.00    -0.273 OA
ATOM      4  N   UNL     1       6.232  -2.966   4.241  0.00  0.00    -0.297 N 
ATOM      5  C   UNL     1       6.942  -3.477   3.059  0.00  0.00    +0.123 C 
ATOM      6  C   UNL     1       8.348  -2.868   3.034  0.00  0.00    +0.104 C 
ATOM      7  N   UNL     1       9.013  -3.128   4.318  0.00  0.00    -0.294 NA
ATOM      8  C   UNL     1       8.305  -2.474   5.427  0.00  0.00    +0.104 C 
ATOM      9  C   UNL     1       6.899  -3.061   5.548  0.00  0.00    +0.123 C 
BRANCH   2  10
ATOM     10  C   UNL     1       4.340  -2.333   2.779  0.00  0.00    +0.256 C 
BRANCH  10  11
ATOM     11  O   UNL     1       3.056  -1.720   2.920  0.00  0.00    -0.366 OA
BRANCH  11  12
ATOM     12  C   UNL     1       2.337  -1.588   1.692  0.00  0.00    +0.195 C 
BRANCH  12  16
ATOM     13  C   UNL     1      -1.436   0.268   2.440  0.00  0.00    +0.000 A 
ATOM     14  C   UNL     1      -0.331   1.044   2.145  0.00  0.00    +0.000 A 
ATOM     15  C   UNL     1       0.891   0.443   1.903  0.00  0.00    +0.006 A 
ATOM     16  C   UNL     1       1.006  -0.933   1.956  0.00  0.00    -0.022 A 
ATOM     17  C   UNL     1      -0.099  -1.709   2.252  0.00  0.00    +0.006 A 
ATOM     18  C   UNL     1      -1.321  -1.108   2.492  0.00  0.00    +0.000 A 
ENDBRANCH  12  16
ENDBRANCH  11  12
ENDBRANCH  10  11
ENDBRANCH   2  10
ENDBRANCH   1   7
BRANCH   1  19
ATOM     19  C   UNL     1      11.130  -3.212   5.508  0.00  0.00    +0.065 A 
ATOM     20  C   UNL     1      11.356  -2.506   6.642  0.00  0.00    +0.095 A 
ATOM     21  N   UNL     1      12.017  -3.303   7.507  0.00  0.00    -0.221 NA
ATOM     22  C   UNL     1      12.203  -4.464   6.950  0.00  0.00    +0.178 A 
ATOM     23  N   UNL     1      11.665  -4.482   5.689  0.00  0.00    -0.296 N 
ATOM     24  C   UNL     1      11.783  -5.656   4.978  0.00  0.00    +0.100 A 
ATOM     25  C   UNL     1      12.391  -6.717   5.506  0.00  0.00    +0.067 A 
ATOM     26  S   UNL     1      12.872  -6.103   7.114  0.00  0.00    -0.058 S 
BRANCH  20  27
ATOM     27  C   UNL     1      10.949  -1.101   6.889  0.00  0.00    +0.002 A 
ATOM     28  C   UNL     1      10.390  -0.740   8.114  0.00  0.00    +0.012 A 
ATOM     29  C   UNL     1      10.014   0.569   8.339  0.00  0.00    +0.033 A 
ATOM     30  C   UNL     1      10.191   1.522   7.351  0.00  0.00    +0.126 A 
ATOM     31  C   UNL     1      10.744   1.169   6.134  0.00  0.00    +0.033 A 
ATOM     32  C   UNL     1      11.130  -0.136   5.900  0.00  0.00    +0.012 A 
BRANCH  30  33
ATOM     33  N   UNL     1       9.785   2.924   7.599  0.00  0.00    +0.056 N 
ATOM     34  O   UNL     1       9.300   3.234   8.662  0.00  0.00    -0.126 OA
ATOM     35  O   UNL     1       9.938   3.758   6.737  0.00  0.00    -0.126 OA
ENDBRANCH  30  33
ENDBRANCH  20  27
ENDBRANCH   1  19
TORSDOF 8
