REMARK  Name = ZINC23845106
REMARK  6 active torsions:
REMARK  status: ('A' for Active; 'I' for Inactive)
REMARK    1  A    between atoms: C_1  and  C_2
REMARK    2  A    between atoms: C_3  and  C_29
REMARK    3  A    between atoms: C_10  and  C_13
REMARK    4  A    between atoms: C_13  and  C_22
REMARK    5  A    between atoms: C_14  and  C_15
REMARK    6  A    between atoms: C_18  and  O_21
REMARK                            x       y       z     vdW  Elec       q    Type
REMARK                         _______ _______ _______ _____ _____    ______ ____
ROOT
ATOM      1  C   UNL     1      -3.698   1.690   0.134  0.00  0.00    +0.080 C 
ATOM      2  C   UNL     1      -2.473   1.063   0.222  0.00  0.00    +0.024 C 
ENDROOT
BRANCH   1  12
ATOM      3  C   UNL     1      -4.216   8.285  -0.758  0.00  0.00    +0.045 C 
ATOM      4  C   UNL     1      -3.957   7.365   0.407  0.00  0.00    -0.026 A 
ATOM      5  C   UNL     1      -3.763   7.866   1.638  0.00  0.00    -0.008 A 
ATOM      6  S   UNL     1      -3.506   6.410   2.635  0.00  0.00    -0.075 S 
ATOM      7  C   UNL     1      -3.666   5.180   1.369  0.00  0.00    +0.092 A 
ATOM      8  C   UNL     1      -3.914   5.928   0.212  0.00  0.00    +0.075 A 
ATOM      9  C   UNL     1      -4.093   5.137  -1.028  0.00  0.00    +0.282 A 
ATOM     10  O   UNL     1      -4.314   5.697  -2.090  0.00  0.00    -0.265 OA
ATOM     11  N   UNL     1      -4.006   3.805  -0.973  0.00  0.00    -0.190 NA
ATOM     12  C   UNL     1      -3.775   3.158   0.151  0.00  0.00    +0.148 A 
ATOM     13  N   UNL     1      -3.600   3.823   1.331  0.00  0.00    -0.333 N 
ATOM     14  H   UNL     1      -3.404   3.256   2.254  0.00  0.00    +0.168 HD
ATOM     15  C   UNL     1      -3.763   9.309   2.072  0.00  0.00    +0.052 C 
ENDBRANCH   1  12
BRANCH   1  16
ATOM     16  C   UNL     1      -4.927   0.890   0.023  0.00  0.00    +0.250 C 
ATOM     17  O   UNL     1      -4.858  -0.320  -0.085  0.00  0.00    -0.270 OA
ATOM     18  N   UNL     1      -6.130   1.497   0.042  0.00  0.00    -0.297 N 
ATOM     19  C   UNL     1      -6.356   2.949   0.068  0.00  0.00    +0.108 C 
ATOM     20  C   UNL     1      -7.883   3.175   0.107  0.00  0.00    +0.020 C 
ATOM     21  C   UNL     1      -8.415   1.835   0.680  0.00  0.00    +0.020 C 
ATOM     22  C   UNL     1      -7.437   0.815   0.046  0.00  0.00    +0.108 C 
ENDBRANCH   1  16
BRANCH   2  23
ATOM     23  C   UNL     1      -1.250   1.859   0.342  0.00  0.00    -0.024 A 
ATOM     24  C   UNL     1      -1.124   3.066  -0.361  0.00  0.00    +0.011 A 
ATOM     25  C   UNL     1       0.017   3.808  -0.240  0.00  0.00    +0.046 A 
ATOM     26  C   UNL     1       1.054   3.365   0.574  0.00  0.00    +0.117 A 
ATOM     27  C   UNL     1       0.938   2.166   1.269  0.00  0.00    +0.046 A 
ATOM     28  C   UNL     1      -0.198   1.415   1.156  0.00  0.00    +0.011 A 
BRANCH  26  29
ATOM     29  O   UNL     1       2.185   4.106   0.690  0.00  0.00    -0.507 OA
ATOM     30  H   UNL     1       3.007   3.758   1.333  0.00  0.00    +0.292 HD
ENDBRANCH  26  29
ENDBRANCH   2  23
TORSDOF 4
