REMARK  Name = ZINC12573809
REMARK  7 active torsions:
REMARK  status: ('A' for Active; 'I' for Inactive)
REMARK    1  A    between atoms: C_1  and  C_2
REMARK    2  A    between atoms: C_2  and  C_3
REMARK    3  A    between atoms: C_2  and  N_55
REMARK    4  A    between atoms: C_9  and  C_11
REMARK    5  A    between atoms: C_11  and  C_12
REMARK    6  A    between atoms: C_17  and  C_20
REMARK    7  A    between atoms: C_17  and  O_27
REMARK                            x       y       z     vdW  Elec       q    Type
REMARK                         _______ _______ _______ _____ _____    ______ ____
ROOT
ATOM      1  C   UNL     1      -1.622  -2.175   0.039  0.00  0.00    +0.214 C 
ATOM      2  O   UNL     1      -0.999  -1.767  -0.918  0.00  0.00    -0.276 OA
ATOM      3  N   UNL     1      -2.946  -2.404  -0.066  0.00  0.00    -0.301 N 
ATOM      4  C   UNL     1      -3.713  -2.904   1.083  0.00  0.00    +0.111 C 
ATOM      5  C   UNL     1      -4.471  -4.163   0.666  0.00  0.00    +0.058 C 
ATOM      6  C   UNL     1      -5.319  -3.859  -0.572  0.00  0.00    +0.094 C 
ATOM      7  C   UNL     1      -4.406  -3.438  -1.726  0.00  0.00    +0.058 C 
ATOM      8  C   UNL     1      -3.649  -2.165  -1.334  0.00  0.00    +0.111 C 
ENDROOT
BRANCH   6   9
ATOM      9  C   UNL     1      -6.090  -5.092  -0.966  0.00  0.00    -0.016 A 
ATOM     10  C   UNL     1      -5.542  -5.995  -1.857  0.00  0.00    +0.008 A 
ATOM     11  C   UNL     1      -6.247  -7.129  -2.215  0.00  0.00    +0.020 A 
ATOM     12  C   UNL     1      -7.507  -7.354  -1.690  0.00  0.00    +0.041 A 
ATOM     13  C   UNL     1      -8.058  -6.446  -0.803  0.00  0.00    +0.020 A 
ATOM     14  C   UNL     1      -7.350  -5.316  -0.442  0.00  0.00    +0.008 A 
ATOM     15 CL   UNL     1      -8.396  -8.774  -2.144  0.00  0.00    -0.084 Cl
ENDBRANCH   6   9
BRANCH   6  16
ATOM     16  O   UNL     1      -6.231  -2.801  -0.275  0.00  0.00    -0.384 OA
ATOM     17  H   UNL     1      -6.842  -2.998   0.448  0.00  0.00    +0.211 HD
ENDBRANCH   6  16
BRANCH   1  18
ATOM     18  C   UNL     1      -0.916  -2.425   1.347  0.00  0.00    +0.090 C 
BRANCH  18  24
ATOM     19  C   UNL     1       2.517  -2.086  -0.136  0.00  0.00    -0.058 C 
ATOM     20  C   UNL     1       2.321  -0.690  -0.730  0.00  0.00    +0.085 C 
ATOM     21  N   UNL     1       1.401   0.083   0.100  0.00  0.00    -0.318 N 
ATOM     22  C   UNL     1       0.573  -0.481   0.986  0.00  0.00    +0.200 C 
ATOM     23  O   UNL     1      -0.181   0.233   1.612  0.00  0.00    -0.278 OA
ATOM     24  C   UNL     1       0.538  -1.962   1.238  0.00  0.00    +0.028 C 
ATOM     25  H   UNL     1       1.390   1.048   0.005  0.00  0.00    +0.149 HD
ATOM     26  N   UNL     1       1.183  -2.668   0.114  0.00  0.00    +0.390 N 
ATOM     27  H   UNL     1       0.605  -2.557  -0.728  0.00  0.00    -0.080 HD
BRANCH  26  29
ATOM     28  C   UNL     1       1.768  -4.852  -0.831  0.00  0.00    -0.013 C 
ATOM     29  C   UNL     1       1.307  -4.110   0.426  0.00  0.00    -0.074 C 
ATOM     30  C   UNL     1       2.326  -4.324   1.547  0.00  0.00    -0.013 C 
ENDBRANCH  26  29
ENDBRANCH  18  24
ENDBRANCH   1  18
TORSDOF 5
