REMARK  Name = ZINC09346018
REMARK  6 active torsions:
REMARK  status: ('A' for Active; 'I' for Inactive)
REMARK    1  A    between atoms: C_1  and  C_2
REMARK    2  A    between atoms: C_5  and  C_8
REMARK    3  A    between atoms: C_14  and  C_27
REMARK    4  A    between atoms: C_19  and  C_21
REMARK    5  A    between atoms: C_32  and  S_34
REMARK    6  A    between atoms: S_34  and  C_35
REMARK                            x       y       z     vdW  Elec       q    Type
REMARK                         _______ _______ _______ _____ _____    ______ ____
ROOT
ATOM      1  C   UNL     1       0.059  -4.275  -0.021  0.00  0.00    +0.159 C 
ATOM      2  C   UNL     1      -1.360  -4.766   0.156  0.00  0.00    +0.025 C 
ATOM      3  C   UNL     1      -1.629  -5.566   1.209  0.00  0.00    +0.058 C 
ATOM      4  C   UNL     1      -3.029  -6.032   1.376  0.00  0.00    +0.040 A 
ATOM      5  C   UNL     1      -3.345  -7.090   2.216  0.00  0.00    +0.017 A 
ATOM      6  C   UNL     1      -4.662  -7.492   2.340  0.00  0.00    -0.050 A 
ATOM      7  C   UNL     1      -5.658  -6.844   1.631  0.00  0.00    +0.007 A 
ATOM      8  C   UNL     1      -5.351  -5.788   0.793  0.00  0.00    +0.046 A 
ATOM      9  C   UNL     1      -4.037  -5.374   0.660  0.00  0.00    +0.131 A 
ATOM     10  O   UNL     1      -3.708  -4.336  -0.150  0.00  0.00    -0.479 OA
ATOM     11  C   UNL     1      -2.443  -4.388  -0.812  0.00  0.00    +0.234 C 
ATOM     12  C   UNL     1      -5.013  -8.640   3.250  0.00  0.00    +0.044 C 
ATOM     13  N   UNL     1      -0.662  -5.932   2.086  0.00  0.00    -0.326 N 
ATOM     14  C   UNL     1       0.595  -5.551   2.006  0.00  0.00    +0.216 C 
ATOM     15  N   UNL     1       1.024  -4.726   0.989  0.00  0.00    -0.209 N 
ATOM     16  N   UNL     1       2.389  -4.511   1.194  0.00  0.00    -0.239 N 
ATOM     17  C   UNL     1       2.725  -5.212   2.322  0.00  0.00    +0.174 C 
ATOM     18  N   UNL     1       1.661  -5.819   2.782  0.00  0.00    -0.192 NA
ATOM     19  H   UNL     1      -0.914  -6.512   2.821  0.00  0.00    +0.169 HD
ATOM     20  H   UNL     1       2.981  -3.971   0.647  0.00  0.00    +0.172 HD
ENDROOT
BRANCH   1  25
ATOM     21  C   UNL     1      -0.018   1.503   0.010  0.00  0.00    +0.044 C 
ATOM     22  C   UNL     1       0.002  -0.004   0.002  0.00  0.00    -0.050 A 
ATOM     23  C   UNL     1       0.006  -0.689  -1.199  0.00  0.00    +0.004 A 
ATOM     24  C   UNL     1       0.025  -2.071  -1.206  0.00  0.00    +0.006 A 
ATOM     25  C   UNL     1       0.040  -2.768  -0.013  0.00  0.00    -0.021 A 
ATOM     26  C   UNL     1       0.037  -2.084   1.188  0.00  0.00    +0.006 A 
ATOM     27  C   UNL     1       0.023  -0.702   1.195  0.00  0.00    +0.004 A 
ENDBRANCH   1  25
BRANCH  11  28
ATOM     28  C   UNL     1      -2.501  -5.410  -1.919  0.00  0.00    -0.003 A 
ATOM     29  C   UNL     1      -3.240  -6.566  -1.754  0.00  0.00    +0.007 A 
ATOM     30  C   UNL     1      -3.294  -7.503  -2.768  0.00  0.00    +0.000 A 
ATOM     31  C   UNL     1      -2.608  -7.284  -3.948  0.00  0.00    +0.000 A 
ATOM     32  C   UNL     1      -1.869  -6.127  -4.114  0.00  0.00    +0.000 A 
ATOM     33  C   UNL     1      -1.819  -5.188  -3.101  0.00  0.00    +0.007 A 
ENDBRANCH  11  28
BRANCH  17  34
ATOM     34  S   UNL     1       4.334  -5.291   3.036  0.00  0.00    -0.092 S 
ATOM     35  C   UNL     1       4.120  -6.361   4.485  0.00  0.00    +0.093 C 
ENDBRANCH  17  34
TORSDOF 3
