REMARK  Name = ZINC66348560
REMARK  5 active torsions:
REMARK  status: ('A' for Active; 'I' for Inactive)
REMARK    1  A    between atoms: C_6  and  C_7
REMARK    2  A    between atoms: C_7  and  C_9
REMARK    3  A    between atoms: C_7  and  N_14
REMARK    4  A    between atoms: N_17  and  C_18
REMARK    5  A    between atoms: N_21  and  C_24
REMARK                            x       y       z     vdW  Elec       q    Type
REMARK                         _______ _______ _______ _____ _____    ______ ____
ROOT
ATOM      1  N   UNL     1      -1.162  -1.939   0.891  0.00  0.00    -0.289 N 
ATOM      2  C   UNL     1      -2.258  -2.480   1.459  0.00  0.00    +0.301 C 
ATOM      3  O   UNL     1      -3.355  -2.003   1.240  0.00  0.00    -0.253 OA
ATOM      4  N   UNL     1      -2.138  -3.551   2.268  0.00  0.00    -0.297 N 
ATOM      5  H   UNL     1      -0.287  -2.319   1.065  0.00  0.00    +0.151 HD
ATOM      6  H   UNL     1      -1.263  -3.932   2.443  0.00  0.00    +0.151 HD
ENDROOT
BRANCH   4   7
ATOM      7  C   UNL     1      -3.329  -4.140   2.885  0.00  0.00    +0.071 C 
ATOM      8  C   UNL     1      -3.658  -3.392   4.181  0.00  0.00    +0.004 C 
ATOM      9  C   UNL     1      -4.854  -4.062   4.861  0.00  0.00    -0.077 C 
ATOM     10  N   UNL     1      -4.527  -5.459   5.170  0.00  0.00    +0.382 N 
ATOM     11  C   UNL     1      -4.281  -6.200   3.926  0.00  0.00    -0.077 C 
ATOM     12  C   UNL     1      -3.063  -5.612   3.211  0.00  0.00    +0.004 C 
ATOM     13  H   UNL     1      -3.700  -5.490   5.747  0.00  0.00    -0.081 HD
BRANCH  10  14
ATOM     14  C   UNL     1      -5.649  -6.075   5.891  0.00  0.00    -0.069 C 
ATOM     15  C   UNL     1      -5.430  -6.436   7.362  0.00  0.00    -0.017 C 
ATOM     16  C   UNL     1      -5.503  -7.541   6.306  0.00  0.00    -0.017 C 
ENDBRANCH  10  14
ENDBRANCH   4   7
BRANCH   1  17
ATOM     17  C   UNL     1      -1.293  -0.775   0.011  0.00  0.00    +0.136 C 
BRANCH  17  23
ATOM     18  C   UNL     1      -0.017   1.378   0.010  0.00  0.00    +0.007 A 
ATOM     19  C   UNL     1       1.171   2.086   0.002  0.00  0.00    +0.020 A 
ATOM     20  C   UNL     1       2.378   1.410  -0.013  0.00  0.00    +0.041 A 
ATOM     21  C   UNL     1       2.396   0.027  -0.021  0.00  0.00    +0.020 A 
ATOM     22  C   UNL     1       1.208  -0.679  -0.013  0.00  0.00    +0.007 A 
ATOM     23  C   UNL     1       0.002  -0.004   0.002  0.00  0.00    -0.023 A 
ATOM     24 CL   UNL     1       3.870   2.298  -0.023  0.00  0.00    -0.084 Cl
ENDBRANCH  17  23
BRANCH  17  25
ATOM     25  C   UNL     1      -1.612  -1.236  -1.388  0.00  0.00    -0.016 A 
ATOM     26  C   UNL     1      -2.523  -0.544  -2.164  0.00  0.00    +0.013 A 
ATOM     27  C   UNL     1      -2.787  -0.986  -3.418  0.00  0.00    +0.045 A 
ATOM     28  S   UNL     1      -1.733  -2.422  -3.534  0.00  0.00    -0.105 S 
ATOM     29  C   UNL     1      -1.006  -2.333  -1.905  0.00  0.00    +0.051 A 
ENDBRANCH  17  25
ENDBRANCH   1  17
TORSDOF 5
