REMARK  Name = ZINC08790266
REMARK  8 active torsions:
REMARK  status: ('A' for Active; 'I' for Inactive)
REMARK    1  A    between atoms: C_1  and  C_2
REMARK    2  A    between atoms: C_4  and  C_39
REMARK    3  A    between atoms: C_13  and  C_15
REMARK    4  A    between atoms: C_15  and  C_16
REMARK    5  A    between atoms: C_19  and  O_22
REMARK    6  A    between atoms: N_25  and  C_28
REMARK    7  A    between atoms: C_28  and  C_29
REMARK    8  A    between atoms: C_29  and  C_30
REMARK                            x       y       z     vdW  Elec       q    Type
REMARK                         _______ _______ _______ _____ _____    ______ ____
ROOT
ATOM      1  C   UNL     1      -4.962   4.231   7.420  0.00  0.00    +0.044 C 
ATOM      2  C   UNL     1      -5.134   3.370   6.195  0.00  0.00    -0.050 A 
ATOM      3  C   UNL     1      -6.397   2.968   5.802  0.00  0.00    +0.008 A 
ATOM      4  C   UNL     1      -6.561   2.180   4.682  0.00  0.00    -0.029 A 
ATOM      5  C   UNL     1      -5.453   1.781   3.937  0.00  0.00    +0.039 A 
ATOM      6  C   UNL     1      -4.186   2.191   4.343  0.00  0.00    -0.027 A 
ATOM      7  C   UNL     1      -4.028   2.978   5.461  0.00  0.00    +0.008 A 
ATOM      8  C   UNL     1      -3.227   1.604   3.347  0.00  0.00    +0.050 C 
ATOM      9  C   UNL     1      -2.409   2.693   2.641  0.00  0.00    +0.088 C 
ATOM     10  C   UNL     1      -1.054   2.719   3.401  0.00  0.00    +0.073 C 
ATOM     11  C   UNL     1      -1.196   1.647   4.502  0.00  0.00    -0.053 C 
ATOM     12  C   UNL     1      -0.063   2.242   2.364  0.00  0.00    +0.224 C 
ATOM     13  O   UNL     1       1.127   2.103   2.545  0.00  0.00    -0.275 OA
ATOM     14  N   UNL     1      -0.704   1.998   1.216  0.00  0.00    -0.241 N 
ATOM     15  C   UNL     1      -2.022   2.226   1.256  0.00  0.00    +0.225 C 
ATOM     16  O   UNL     1      -2.787   2.079   0.327  0.00  0.00    -0.275 OA
ATOM     17  C   UNL     1      -4.088   0.846   2.374  0.00  0.00    +0.211 C 
ATOM     18  O   UNL     1      -3.709   0.220   1.406  0.00  0.00    -0.277 OA
ATOM     19  N   UNL     1      -5.361   0.998   2.785  0.00  0.00    -0.286 N 
ATOM     20  C   UNL     1      -7.942   1.748   4.262  0.00  0.00    +0.045 C 
ATOM     21  H   UNL     1      -6.126   0.608   2.333  0.00  0.00    +0.155 HD
ATOM     22  N   UNL     1      -2.242   0.756   3.996  0.00  0.00    +0.394 N 
ATOM     23  H   UNL     1      -1.846   0.091   3.321  0.00  0.00    -0.083 HD
ATOM     24  H   UNL     1      -2.675   0.239   4.771  0.00  0.00    -0.083 HD
ENDROOT
BRANCH  11  25
ATOM     25  C   UNL     1       0.126   0.902   4.695  0.00  0.00    +0.020 C 
BRANCH  25  26
ATOM     26  C   UNL     1       0.002  -0.052   5.854  0.00  0.00    -0.049 A 
ATOM     27  C   UNL     1       0.324   0.367   7.131  0.00  0.00    +0.007 A 
ATOM     28  C   UNL     1       0.205  -0.504   8.197  0.00  0.00    +0.045 A 
ATOM     29  C   UNL     1      -0.227  -1.805   7.982  0.00  0.00    +0.117 A 
ATOM     30  C   UNL     1      -0.545  -2.225   6.699  0.00  0.00    +0.045 A 
ATOM     31  C   UNL     1      -0.430  -1.348   5.638  0.00  0.00    +0.007 A 
BRANCH  29  32
ATOM     32  O   UNL     1      -0.340  -2.665   9.028  0.00  0.00    -0.507 OA
ATOM     33  H   UNL     1       0.463  -3.173   9.208  0.00  0.00    +0.292 HD
ENDBRANCH  29  32
ENDBRANCH  25  26
ENDBRANCH  11  25
BRANCH  14  34
ATOM     34  C   UNL     1      -0.019   1.526   0.010  0.00  0.00    +0.121 C 
BRANCH  34  35
ATOM     35  C   UNL     1       0.002  -0.004   0.002  0.00  0.00    +0.054 C 
BRANCH  35  36
ATOM     36  C   UNL     1       0.707  -0.490  -1.238  0.00  0.00    -0.046 A 
ATOM     37  C   UNL     1      -0.012  -0.729  -2.394  0.00  0.00    +0.004 A 
ATOM     38  C   UNL     1       0.635  -1.170  -3.532  0.00  0.00    +0.000 A 
ATOM     39  C   UNL     1       2.001  -1.383  -3.512  0.00  0.00    +0.000 A 
ATOM     40  C   UNL     1       2.720  -1.148  -2.355  0.00  0.00    +0.000 A 
ATOM     41  C   UNL     1       2.073  -0.702  -1.218  0.00  0.00    +0.004 A 
ENDBRANCH  35  36
ENDBRANCH  34  35
ENDBRANCH  14  34
TORSDOF 6
