REMARK  Name = ZINC19790939
REMARK  8 active torsions:
REMARK  status: ('A' for Active; 'I' for Inactive)
REMARK    1  A    between atoms: C_4  and  C_7
REMARK    2  A    between atoms: C_7  and  C_8
REMARK    3  A    between atoms: C_7  and  C_28
REMARK    4  A    between atoms: C_8  and  N_9
REMARK    5  A    between atoms: C_15  and  C_17
REMARK    6  A    between atoms: C_17  and  C_18
REMARK    7  A    between atoms: N_20  and  C_21
REMARK    8  A    between atoms: C_21  and  C_22
REMARK                            x       y       z     vdW  Elec       q    Type
REMARK                         _______ _______ _______ _____ _____    ______ ____
ROOT
ATOM      1  N   UNL     1       2.132  -0.998   0.087  0.00  0.00    +0.389 N 
ATOM      2  C   UNL     1       1.513  -2.082  -0.693  0.00  0.00    -0.059 C 
ATOM      3  C   UNL     1       0.096  -2.319  -0.166  0.00  0.00    +0.085 C 
ATOM      4  N   UNL     1      -0.627  -1.053  -0.088  0.00  0.00    -0.318 N 
ATOM      5  C   UNL     1      -0.014   0.136  -0.092  0.00  0.00    +0.200 C 
ATOM      6  O   UNL     1      -0.690   1.138   0.007  0.00  0.00    -0.278 OA
ATOM      7  C   UNL     1       1.476   0.281  -0.215  0.00  0.00    +0.028 C 
ATOM      8  H   UNL     1      -1.725  -1.050  -0.023  0.00  0.00    +0.149 HD
ATOM      9  H   UNL     1       1.997  -1.215   1.157  0.00  0.00    -0.081 HD
ENDROOT
BRANCH   1  10
ATOM     10  C   UNL     1       3.576  -0.923  -0.171  0.00  0.00    -0.065 C 
BRANCH  10  11
ATOM     11  C   UNL     1       4.256  -2.186   0.362  0.00  0.00    +0.032 C 
BRANCH  11  15
ATOM     12  C   UNL     1       8.418  -2.072  -0.591  0.00  0.00    +0.000 A 
ATOM     13  C   UNL     1       7.625  -3.094  -1.078  0.00  0.00    +0.000 A 
ATOM     14  C   UNL     1       6.278  -3.131  -0.770  0.00  0.00    +0.004 A 
ATOM     15  C   UNL     1       5.724  -2.146   0.026  0.00  0.00    -0.042 A 
ATOM     16  C   UNL     1       6.516  -1.121   0.509  0.00  0.00    +0.004 A 
ATOM     17  C   UNL     1       7.864  -1.087   0.205  0.00  0.00    +0.000 A 
ENDBRANCH  11  15
BRANCH  11  18
ATOM     18  C   UNL     1       4.084  -2.256   1.858  0.00  0.00    -0.042 A 
ATOM     19  C   UNL     1       3.588  -3.405   2.443  0.00  0.00    +0.004 A 
ATOM     20  C   UNL     1       3.434  -3.470   3.816  0.00  0.00    +0.000 A 
ATOM     21  C   UNL     1       3.769  -2.383   4.601  0.00  0.00    +0.000 A 
ATOM     22  C   UNL     1       4.261  -1.232   4.015  0.00  0.00    +0.000 A 
ATOM     23  C   UNL     1       4.419  -1.168   2.643  0.00  0.00    +0.004 A 
ENDBRANCH  11  18
ENDBRANCH  10  11
ENDBRANCH   1  10
BRANCH   7  24
ATOM     24  C   UNL     1       1.964   1.347   0.769  0.00  0.00    +0.089 C 
BRANCH  24  25
ATOM     25  C   UNL     1       1.601   0.938   2.174  0.00  0.00    +0.212 C 
ATOM     26  O   UNL     1       1.092  -0.144   2.377  0.00  0.00    -0.276 OA
ATOM     27  N   UNL     1       1.843   1.774   3.203  0.00  0.00    -0.308 N 
ATOM     28  H   UNL     1       2.305   2.755   3.018  0.00  0.00    +0.149 HD
BRANCH  27  29
ATOM     29  C   UNL     1       1.490   1.376   4.568  0.00  0.00    +0.178 C 
BRANCH  29  30
ATOM     30  C   UNL     1       1.860   2.480   5.524  0.00  0.00    +0.124 A 
ATOM     31  N   UNL     1       1.031   3.450   5.965  0.00  0.00    -0.347 N 
ATOM     32  H   UNL     1      -0.014   3.479   5.622  0.00  0.00    +0.167 HD
ATOM     33  C   UNL     1       1.753   4.244   6.815  0.00  0.00    +0.104 A 
ATOM     34  C   UNL     1       3.000   3.738   6.857  0.00  0.00    +0.130 A 
ATOM     35  N   UNL     1       3.037   2.660   6.059  0.00  0.00    -0.239 NA
ENDBRANCH  29  30
ENDBRANCH  27  29
ENDBRANCH  24  25
ENDBRANCH   7  24
TORSDOF 8
