REMARK  Name = ZINC06149030
REMARK  14 active torsions:
REMARK  status: ('A' for Active; 'I' for Inactive)
REMARK    1  A    between atoms: C_1  and  C_2
REMARK    2  A    between atoms: C_2  and  C_3
REMARK    3  A    between atoms: C_3  and  C_4
REMARK    4  A    between atoms: C_3  and  C_5
REMARK    5  A    between atoms: C_3  and  N_6
REMARK    6  A    between atoms: C_7  and  C_11
REMARK    7  A    between atoms: C_11  and  C_13
REMARK    8  A    between atoms: C_11  and  N_72
REMARK    9  A    between atoms: C_16  and  C_26
REMARK   10  A    between atoms: C_18  and  C_25
REMARK   11  A    between atoms: C_27  and  C_28
REMARK   12  A    between atoms: C_27  and  N_72
REMARK   13  A    between atoms: C_35  and  C_36
REMARK   14  A    between atoms: C_35  and  N_72
REMARK                            x       y       z     vdW  Elec       q    Type
REMARK                         _______ _______ _______ _____ _____    ______ ____
ROOT
ATOM      1  C   UNL     1       4.830   4.006   0.064  0.00  0.00    +0.040 C 
ENDROOT
BRANCH   1   2
ATOM      2  C   UNL     1       3.674   3.062   0.267  0.00  0.00    +0.011 A 
ATOM      3  C   UNL     1       3.909   1.752   0.527  0.00  0.00    +0.018 A 
ATOM      4  C   UNL     1       2.764   0.861   0.720  0.00  0.00    +0.002 A 
ATOM      5  C   UNL     1       2.943  -0.500   0.991  0.00  0.00    -0.041 A 
ATOM      6  C   UNL     1       1.853  -1.305   1.166  0.00  0.00    +0.007 A 
ATOM      7  C   UNL     1       0.569  -0.785   1.077  0.00  0.00    -0.048 A 
ATOM      8  C   UNL     1       0.369   0.552   0.811  0.00  0.00    +0.029 A 
ATOM      9  C   UNL     1       1.463   1.392   0.629  0.00  0.00    +0.050 A 
ATOM     10  N   UNL     1       1.292   2.733   0.362  0.00  0.00    -0.322 N 
ATOM     11  H   UNL     1       0.367   3.109   0.298  0.00  0.00    +0.169 HD
ATOM     12  C   UNL     1       2.350   3.544   0.186  0.00  0.00    +0.251 A 
ATOM     13  O   UNL     1       2.161   4.725  -0.049  0.00  0.00    -0.268 OA
ATOM     14  C   UNL     1      -0.618  -1.692   1.274  0.00  0.00    +0.044 C 
ATOM     15  C   UNL     1       4.332  -1.075   1.090  0.00  0.00    +0.044 C 
ENDBRANCH   1   2
BRANCH   1  17
ATOM     16  N   UNL     1       5.560   5.145   2.226  0.00  0.00    -0.225 N 
ATOM     17  C   UNL     1       4.794   5.079   1.121  0.00  0.00    +0.143 A 
ATOM     18  N   UNL     1       4.007   6.127   1.146  0.00  0.00    -0.115 NA
ATOM     19  N   UNL     1       4.279   6.804   2.208  0.00  0.00    -0.023 NA
ATOM     20  N   UNL     1       5.219   6.215   2.861  0.00  0.00    -0.043 NA
BRANCH  16  21
ATOM     21  C   UNL     1       6.590   4.184   2.629  0.00  0.00    +0.061 C 
ATOM     22  C   UNL     1       5.971   2.790   2.739  0.00  0.00    +0.036 C 
ATOM     23  C   UNL     1       7.707   4.166   1.584  0.00  0.00    +0.036 C 
BRANCH  21  25
ATOM     24  C   UNL     1       8.242   3.591   4.407  0.00  0.00    +0.006 C 
ATOM     25  C   UNL     1       7.167   4.595   3.985  0.00  0.00    +0.026 C 
ENDBRANCH  21  25
ENDBRANCH  16  21
ENDBRANCH   1  17
BRANCH   1  26
ATOM     26  N   UNL     1       4.709   4.643  -1.265  0.00  0.00    +0.397 N 
ATOM     27  H   UNL     1       3.943   5.326  -1.238  0.00  0.00    -0.079 HD
BRANCH  26  28
ATOM     28  C   UNL     1       4.406   3.622  -2.289  0.00  0.00    -0.041 C 
BRANCH  28  29
ATOM     29  C   UNL     1       4.094   4.315  -3.590  0.00  0.00    -0.064 A 
ATOM     30  C   UNL     1       2.818   4.788  -3.832  0.00  0.00    +0.004 A 
ATOM     31  C   UNL     1       2.532   5.429  -5.023  0.00  0.00    +0.038 A 
ATOM     32  C   UNL     1       3.521   5.587  -5.978  0.00  0.00    +0.123 A 
ATOM     33  C   UNL     1       4.798   5.108  -5.737  0.00  0.00    +0.038 A 
ATOM     34  C   UNL     1       5.083   4.473  -4.543  0.00  0.00    +0.004 A 
ATOM     35  F   UNL     1       3.242   6.209  -7.144  0.00  0.00    -0.205 F 
ENDBRANCH  28  29
ENDBRANCH  26  28
BRANCH  26  36
ATOM     36  C   UNL     1       5.965   5.343  -1.606  0.00  0.00    -0.001 C 
BRANCH  36  37
ATOM     37  C   UNL     1       5.948   6.705  -0.959  0.00  0.00    +0.089 A 
ATOM     38  C   UNL     1       6.536   7.029   0.206  0.00  0.00    +0.042 A 
ATOM     39  C   UNL     1       6.270   8.399   0.432  0.00  0.00    +0.041 A 
ATOM     40  C   UNL     1       5.535   8.830  -0.609  0.00  0.00    +0.195 A 
ATOM     41  O   UNL     1       5.348   7.801  -1.451  0.00  0.00    -0.470 OA
ENDBRANCH  36  37
ENDBRANCH  26  36
ENDBRANCH   1  26
TORSDOF 9
