REMARK  Name = ZINC40144263
REMARK  12 active torsions:
REMARK  status: ('A' for Active; 'I' for Inactive)
REMARK    1  A    between atoms: C_1  and  C_2
REMARK    2  A    between atoms: C_2  and  C_3
REMARK    3  A    between atoms: C_2  and  O_4
REMARK    4  A    between atoms: O_4  and  C_5
REMARK    5  A    between atoms: C_8  and  C_13
REMARK    6  A    between atoms: C_10  and  O_11
REMARK    7  A    between atoms: O_11  and  C_12
REMARK    8  A    between atoms: C_13  and  C_15
REMARK    9  A    between atoms: C_13  and  N_28
REMARK   10  A    between atoms: C_15  and  C_17
REMARK   11  A    between atoms: C_15  and  C_19
REMARK   12  A    between atoms: C_29  and  N_30
REMARK                            x       y       z     vdW  Elec       q    Type
REMARK                         _______ _______ _______ _____ _____    ______ ____
ROOT
ATOM      1  C   UNL     1      -3.933  -0.946  -4.972  0.00  0.00    +0.160 C 
ENDROOT
BRANCH   1   2
ATOM      2  N   UNL     1      -3.068  -1.669  -5.908  0.00  0.00    -0.261 N 
ATOM      3  C   UNL     1      -3.333  -2.891  -6.470  0.00  0.00    +0.117 A 
ATOM      4  C   UNL     1      -2.284  -3.219  -7.281  0.00  0.00    +0.114 A 
ATOM      5  C   UNL     1      -1.347  -2.177  -7.222  0.00  0.00    +0.266 A 
ATOM      6  O   UNL     1      -0.287  -2.132  -7.821  0.00  0.00    -0.266 OA
ATOM      7  N   UNL     1      -1.828  -1.231  -6.390  0.00  0.00    -0.261 N 
ATOM      8  H   UNL     1      -1.390  -0.395  -6.163  0.00  0.00    +0.190 HD
BRANCH   3   9
ATOM      9  N   UNL     1      -4.454  -3.651  -6.256  0.00  0.00    -0.343 N 
ATOM     10  H   UNL     1      -5.149  -3.332  -5.659  0.00  0.00    +0.144 HD
ATOM     11  H   UNL     1      -4.552  -4.507  -6.701  0.00  0.00    +0.144 HD
ENDBRANCH   3   9
ENDBRANCH   1   2
BRANCH   1  15
ATOM     12  C   UNL     1      -1.984  -0.646  -1.177  0.00  0.00    +0.162 A 
ATOM     13  C   UNL     1      -1.282  -0.383  -2.342  0.00  0.00    +0.050 A 
ATOM     14  C   UNL     1      -1.914  -0.481  -3.567  0.00  0.00    +0.009 A 
ATOM     15  C   UNL     1      -3.248  -0.841  -3.634  0.00  0.00    -0.018 A 
ATOM     16  C   UNL     1      -3.954  -1.104  -2.475  0.00  0.00    +0.055 A 
ATOM     17  C   UNL     1      -3.325  -1.013  -1.244  0.00  0.00    +0.162 A 
BRANCH  17  18
ATOM     18  O   UNL     1      -4.017  -1.278  -0.103  0.00  0.00    -0.491 OA
ATOM     19  C   UNL     1      -5.389  -1.649  -0.249  0.00  0.00    +0.277 C 
ENDBRANCH  17  18
BRANCH  12  20
ATOM     20  O   UNL     1      -1.363  -0.551   0.029  0.00  0.00    -0.486 OA
BRANCH  20  22
ATOM     21  C   UNL     1       0.006   1.440  -0.008  0.00  0.00    +0.051 C 
ATOM     22  C   UNL     1      -0.011  -0.089   0.028  0.00  0.00    +0.167 C 
ATOM     23  C   UNL     1       0.696  -0.577   1.294  0.00  0.00    +0.051 C 
ENDBRANCH  20  22
ENDBRANCH  12  20
ENDBRANCH   1  15
BRANCH   1  24
ATOM     24  C   UNL     1      -4.209   0.458  -5.514  0.00  0.00    +0.176 C 
BRANCH  24  25
ATOM     25  C   UNL     1      -5.002   0.355  -6.792  0.00  0.00    +0.099 A 
ATOM     26  N   UNL     1      -4.664  -0.247  -7.894  0.00  0.00    -0.243 NA
ATOM     27  C   UNL     1      -5.468  -0.269  -8.977  0.00  0.00    +0.079 A 
ATOM     28  C   UNL     1      -5.268  -0.865 -10.241  0.00  0.00    +0.029 A 
ATOM     29  C   UNL     1      -6.219  -0.767 -11.210  0.00  0.00    +0.002 A 
ATOM     30  C   UNL     1      -7.409  -0.084 -10.995  0.00  0.00    +0.001 A 
ATOM     31  C   UNL     1      -7.640   0.512  -9.770  0.00  0.00    +0.017 A 
ATOM     32  C   UNL     1      -6.687   0.419  -8.785  0.00  0.00    +0.039 A 
ATOM     33  S   UNL     1      -6.528   0.989  -7.113  0.00  0.00    -0.071 S 
ENDBRANCH  24  25
BRANCH  24  34
ATOM     34  C   UNL     1      -2.933   1.141  -5.782  0.00  0.00    +0.075 C 
ATOM     35  N   UNL     1      -1.948   1.668  -5.989  0.00  0.00    -0.196 NA
ENDBRANCH  24  34
ENDBRANCH   1  24
TORSDOF 9
