REMARK  Name = ZINC20410924
REMARK  7 active torsions:
REMARK  status: ('A' for Active; 'I' for Inactive)
REMARK    1  A    between atoms: C_1  and  C_2
REMARK    2  A    between atoms: C_18  and  C_20
REMARK    3  A    between atoms: C_20  and  N_21
REMARK    4  A    between atoms: N_24  and  C_27
REMARK    5  A    between atoms: C_27  and  C_28
REMARK    6  A    between atoms: C_27  and  C_34
REMARK    7  A    between atoms: C_27  and  O_40
REMARK                            x       y       z     vdW  Elec       q    Type
REMARK                         _______ _______ _______ _____ _____    ______ ____
ROOT
ATOM      1  N   UNL     1       2.655   0.437   0.061  0.00  0.00    +0.382 N 
ATOM      2  C   UNL     1       1.593  -0.565   0.229  0.00  0.00    -0.063 C 
ATOM      3  C   UNL     1       0.361  -0.138  -0.573  0.00  0.00    +0.069 C 
ATOM      4  N   UNL     1      -0.088   1.182  -0.111  0.00  0.00    -0.271 NA
ATOM      5  C   UNL     1       0.974   2.185  -0.279  0.00  0.00    +0.069 C 
ATOM      6  C   UNL     1       2.206   1.758   0.523  0.00  0.00    -0.063 C 
ATOM      7  H   UNL     1       2.884   0.513  -1.012  0.00  0.00    -0.082 HD
ENDROOT
BRANCH   1   8
ATOM      8  C   UNL     1       3.882   0.026   0.756  0.00  0.00    -0.064 C 
BRANCH   8  23
ATOM      9  C   UNL     1       8.499   2.778  -0.812  0.00  0.00    +0.011 C 
ATOM     10  C   UNL     1       7.818   2.341  -2.111  0.00  0.00    -0.023 C 
ATOM     11  C   UNL     1       8.713   2.652  -3.311  0.00  0.00    +0.007 C 
ATOM     12  C   UNL     1       9.034   4.147  -3.345  0.00  0.00    +0.003 C 
ATOM     13  C   UNL     1       7.740   4.944  -3.539  0.00  0.00    +0.037 C 
ATOM     14  C   UNL     1       6.759   4.575  -2.423  0.00  0.00    +0.096 C 
ATOM     15  C   UNL     1       6.481   3.079  -2.268  0.00  0.00    +0.030 C 
ATOM     16  C   UNL     1       5.650   2.833  -1.011  0.00  0.00    +0.014 C 
ATOM     17  C   UNL     1       5.330   1.345  -0.856  0.00  0.00    +0.042 C 
ATOM     18  C   UNL     1       6.615   0.496  -0.907  0.00  0.00    +0.181 C 
ATOM     19  C   UNL     1       7.525   0.842  -2.060  0.00  0.00    +0.052 C 
ATOM     20  O   UNL     1       7.223   0.720   0.397  0.00  0.00    -0.461 OA
ATOM     21  C   UNL     1       6.224   0.714   1.312  0.00  0.00    +0.309 C 
ATOM     22  O   UNL     1       6.340   0.422   2.478  0.00  0.00    -0.251 OA
ATOM     23  C   UNL     1       4.932   1.132   0.635  0.00  0.00    +0.088 C 
ATOM     24  C   UNL     1       6.753   5.439  -1.163  0.00  0.00    +0.196 C 
ATOM     25  O   UNL     1       5.703   5.488  -2.131  0.00  0.00    -0.368 OA
ENDBRANCH   8  23
ENDBRANCH   1   8
BRANCH   4  26
ATOM     26  C   UNL     1      -1.315   1.594  -0.806  0.00  0.00    +0.172 C 
BRANCH  26  27
ATOM     27  C   UNL     1      -2.403   0.586  -0.543  0.00  0.00    +0.003 A 
ATOM     28  C   UNL     1      -2.456  -0.074   0.671  0.00  0.00    +0.008 A 
ATOM     29  C   UNL     1      -3.457  -0.996   0.914  0.00  0.00    +0.000 A 
ATOM     30  C   UNL     1      -4.400  -1.264  -0.060  0.00  0.00    +0.000 A 
ATOM     31  C   UNL     1      -4.345  -0.608  -1.276  0.00  0.00    +0.000 A 
ATOM     32  C   UNL     1      -3.346   0.316  -1.517  0.00  0.00    +0.008 A 
ENDBRANCH  26  27
BRANCH  26  33
ATOM     33  C   UNL     1      -1.749   2.946  -0.300  0.00  0.00    +0.003 A 
ATOM     34  C   UNL     1      -1.547   3.286   1.024  0.00  0.00    +0.008 A 
ATOM     35  C   UNL     1      -1.941   4.527   1.487  0.00  0.00    +0.000 A 
ATOM     36  C   UNL     1      -2.546   5.425   0.627  0.00  0.00    +0.000 A 
ATOM     37  C   UNL     1      -2.753   5.083  -0.696  0.00  0.00    +0.000 A 
ATOM     38  C   UNL     1      -2.354   3.843  -1.160  0.00  0.00    +0.008 A 
ENDBRANCH  26  33
BRANCH  26  39
ATOM     39  O   UNL     1      -1.064   1.669  -2.211  0.00  0.00    -0.366 OA
ATOM     40  H   UNL     1      -1.871   1.963  -2.898  0.00  0.00    +0.212 HD
ENDBRANCH  26  39
ENDBRANCH   4  26
TORSDOF 6
