REMARK  Name = ZINC09833514
REMARK  8 active torsions:
REMARK  status: ('A' for Active; 'I' for Inactive)
REMARK    1  A    between atoms: C_1  and  C_2
REMARK    2  A    between atoms: C_2  and  C_4
REMARK    3  A    between atoms: C_2  and  N_59
REMARK    4  A    between atoms: N_6  and  C_7
REMARK    5  A    between atoms: C_8  and  C_15
REMARK    6  A    between atoms: N_20  and  C_23
REMARK    7  A    between atoms: C_26  and  C_30
REMARK    8  A    between atoms: C_30  and  C_32
REMARK                            x       y       z     vdW  Elec       q    Type
REMARK                         _______ _______ _______ _____ _____    ______ ____
ROOT
ATOM      1  C   UNL     1       4.971  -2.537  -1.406  0.00  0.00    -0.004 C 
ATOM      2  C   UNL     1       5.401  -1.854  -0.106  0.00  0.00    +0.017 C 
ENDROOT
BRANCH   2   8
ATOM      3  C   UNL     1       4.846  -0.080   1.447  0.00  0.00    -0.059 C 
ATOM      4  C   UNL     1       3.760   0.925   1.837  0.00  0.00    +0.086 C 
ATOM      5  N   UNL     1       3.512   1.835   0.711  0.00  0.00    -0.331 N 
ATOM      6  C   UNL     1       3.082   1.090  -0.481  0.00  0.00    +0.086 C 
ATOM      7  C   UNL     1       4.168   0.086  -0.871  0.00  0.00    -0.059 C 
ATOM      8  N   UNL     1       4.392  -0.838   0.262  0.00  0.00    +0.389 N 
ATOM      9  H   UNL     1       3.509  -1.311   0.486  0.00  0.00    -0.081 HD
BRANCH   5  10
ATOM     10  C   UNL     1       2.580   2.809   1.053  0.00  0.00    +0.065 A 
ATOM     11  C   UNL     1       1.297   2.435   1.443  0.00  0.00    +0.027 A 
ATOM     12  C   UNL     1       0.374   3.385   1.776  0.00  0.00    +0.013 A 
ATOM     13  C   UNL     1       0.719   4.742   1.736  0.00  0.00    +0.020 A 
ATOM     14  C   UNL     1       2.010   5.122   1.343  0.00  0.00    +0.051 A 
ATOM     15  C   UNL     1       2.933   4.157   1.004  0.00  0.00    +0.145 A 
ATOM     16  F   UNL     1       4.178   4.517   0.624  0.00  0.00    -0.204 F 
BRANCH  13  17
ATOM     17  C   UNL     1      -0.270   5.763   2.098  0.00  0.00    +0.160 C 
ATOM     18  O   UNL     1      -1.370   5.431   2.487  0.00  0.00    -0.292 OA
ATOM     19  C   UNL     1       0.080   7.225   1.986  0.00  0.00    +0.091 C 
ENDBRANCH  13  17
ENDBRANCH   5  10
ENDBRANCH   2   8
BRANCH   2  20
ATOM     20  C   UNL     1       5.486  -2.878   0.996  0.00  0.00    +0.204 C 
ATOM     21  O   UNL     1       4.524  -3.086   1.706  0.00  0.00    -0.277 OA
ATOM     22  N   UNL     1       6.630  -3.563   1.193  0.00  0.00    -0.281 N 
ATOM     23  H   UNL     1       7.398  -3.397   0.625  0.00  0.00    +0.155 HD
BRANCH  22  24
ATOM     24  C   UNL     1       6.707  -4.506   2.207  0.00  0.00    +0.084 A 
ATOM     25  C   UNL     1       7.781  -5.305   2.558  0.00  0.00    +0.068 A 
ATOM     26  C   UNL     1       7.603  -6.224   3.681  0.00  0.00    -0.023 A 
ATOM     27  C   UNL     1       6.386  -6.196   4.255  0.00  0.00    -0.004 A 
ATOM     28  S   UNL     1       5.482  -4.973   3.337  0.00  0.00    -0.077 S 
ATOM     29  C   UNL     1       6.279  -7.168   5.398  0.00  0.00    +0.043 C 
ATOM     30  C   UNL     1       7.742  -7.516   5.752  0.00  0.00    +0.010 C 
ATOM     31  C   UNL     1       8.459  -7.261   4.411  0.00  0.00    +0.037 C 
BRANCH  25  32
ATOM     32  C   UNL     1       9.053  -5.231   1.832  0.00  0.00    +0.244 C 
ATOM     33  O   UNL     1       9.918  -4.456   2.197  0.00  0.00    -0.270 OA
ATOM     34  N   UNL     1       9.264  -6.021   0.760  0.00  0.00    -0.325 N 
ATOM     35  H   UNL     1       8.575  -6.638   0.469  0.00  0.00    +0.145 HD
ATOM     36  H   UNL     1      10.106  -5.971   0.280  0.00  0.00    +0.145 HD
ENDBRANCH  25  32
ENDBRANCH  22  24
ENDBRANCH   2  20
TORSDOF 6
