REMARK  Name = ZINC65259876
REMARK  6 active torsions:
REMARK  status: ('A' for Active; 'I' for Inactive)
REMARK    1  A    between atoms: C_1  and  O_2
REMARK    2  A    between atoms: O_2  and  C_3
REMARK    3  A    between atoms: C_3  and  C_4
REMARK    4  A    between atoms: C_4  and  N_5
REMARK    5  A    between atoms: C_21  and  C_23
REMARK    6  A    between atoms: C_23  and  C_24
REMARK                            x       y       z     vdW  Elec       q    Type
REMARK                         _______ _______ _______ _____ _____    ______ ____
ROOT
ATOM      1  N   UNL     1       1.401  -2.532  -0.162  0.00  0.00    -0.372 N 
ATOM      2  C   UNL     1       1.501  -3.789  -0.450  0.00  0.00    +0.098 C 
ATOM      3  N   UNL     1       0.892  -4.763   0.321  0.00  0.00    -0.301 N 
ATOM      4  C   UNL     1       1.587  -5.968   0.517  0.00  0.00    +0.053 A 
ATOM      5  C   UNL     1       1.145  -6.873   1.469  0.00  0.00    +0.025 A 
ATOM      6  C   UNL     1       1.823  -8.063   1.658  0.00  0.00    +0.002 A 
ATOM      7  C   UNL     1       2.942  -8.354   0.899  0.00  0.00    +0.002 A 
ATOM      8  C   UNL     1       3.393  -7.455  -0.049  0.00  0.00    +0.025 A 
ATOM      9  C   UNL     1       2.720  -6.257  -0.242  0.00  0.00    +0.049 A 
ATOM     10  N   UNL     1       3.190  -5.339  -1.193  0.00  0.00    -0.329 N 
ATOM     11  C   UNL     1       2.285  -4.271  -1.653  0.00  0.00    +0.102 C 
ATOM     12  C   UNL     1       1.327  -4.815  -2.709  0.00  0.00    +0.036 C 
ATOM     13  C   UNL     1       2.126  -5.333  -3.908  0.00  0.00    +0.021 C 
ATOM     14  C   UNL     1       2.928  -4.180  -4.518  0.00  0.00    +0.108 C 
ATOM     15  N   UNL     1       3.753  -3.568  -3.468  0.00  0.00    -0.299 N 
ATOM     16  C   UNL     1       3.099  -3.115  -2.232  0.00  0.00    +0.141 C 
ATOM     17  C   UNL     1       5.083  -3.425  -3.634  0.00  0.00    +0.220 C 
ATOM     18  O   UNL     1       5.753  -2.918  -2.759  0.00  0.00    -0.275 OA
ATOM     19  H   UNL     1       1.835  -1.870  -0.723  0.00  0.00    +0.161 HD
ATOM     20  H   UNL     1       4.092  -5.408  -1.543  0.00  0.00    +0.147 HD
ATOM     21  H   UNL     1       0.017  -4.619   0.712  0.00  0.00    +0.153 HD
ENDROOT
BRANCH   1  22
ATOM     22  C   UNL     1       0.633  -2.108   1.011  0.00  0.00    +0.141 C 
BRANCH  22  23
ATOM     23  C   UNL     1       0.673  -0.582   1.123  0.00  0.00    +0.180 C 
BRANCH  23  25
ATOM     24  C   UNL     1      -0.017   1.425   0.010  0.00  0.00    +0.194 C 
ATOM     25  O   UNL     1       0.002  -0.004   0.002  0.00  0.00    -0.381 OA
ENDBRANCH  23  25
ENDBRANCH  22  23
ENDBRANCH   1  22
BRANCH  17  26
ATOM     26  C   UNL     1       5.738  -3.896  -4.907  0.00  0.00    +0.138 C 
BRANCH  26  27
ATOM     27  C   UNL     1       7.219  -3.623  -4.841  0.00  0.00    -0.001 A 
ATOM     28  C   UNL     1       8.213  -4.419  -4.378  0.00  0.00    +0.011 A 
ATOM     29  C   UNL     1       9.515  -3.955  -4.416  0.00  0.00    +0.008 A 
ATOM     30  C   UNL     1       9.758  -2.719  -4.915  0.00  0.00    +0.045 A 
ATOM     31  S   UNL     1       8.118  -2.171  -5.359  0.00  0.00    -0.101 S 
ENDBRANCH  26  27
ENDBRANCH  17  26
TORSDOF 5
