REMARK  Name = ZINC66886224
REMARK  12 active torsions:
REMARK  status: ('A' for Active; 'I' for Inactive)
REMARK    1  A    between atoms: C_1  and  C_2
REMARK    2  A    between atoms: C_2  and  C_4
REMARK    3  A    between atoms: C_2  and  N_14
REMARK    4  A    between atoms: N_6  and  C_7
REMARK    5  A    between atoms: C_7  and  C_8
REMARK    6  A    between atoms: C_7  and  C_9
REMARK    7  A    between atoms: C_7  and  C_11
REMARK    8  A    between atoms: C_11  and  C_12
REMARK    9  A    between atoms: C_11  and  C_13
REMARK   10  A    between atoms: C_17  and  N_20
REMARK   11  A    between atoms: C_21  and  C_23
REMARK   12  A    between atoms: C_23  and  C_24
REMARK                            x       y       z     vdW  Elec       q    Type
REMARK                         _______ _______ _______ _____ _____    ______ ____
ROOT
ATOM      1  N   UNL     1       1.010  -0.917   0.559  0.00  0.00    +0.387 N 
ATOM      2  C   UNL     1       1.009  -2.169  -0.206  0.00  0.00    -0.076 C 
ATOM      3  C   UNL     1       1.999  -3.154   0.419  0.00  0.00    +0.004 C 
ATOM      4  C   UNL     1       3.402  -2.542   0.397  0.00  0.00    +0.069 C 
ATOM      5  C   UNL     1       3.375  -1.200   1.134  0.00  0.00    +0.004 C 
ATOM      6  C   UNL     1       2.333  -0.287   0.482  0.00  0.00    -0.076 C 
ATOM      7  H   UNL     1       0.787  -1.114   1.523  0.00  0.00    -0.081 HD
ENDROOT
BRANCH   4   8
ATOM      8  N   UNL     1       4.343  -3.447   1.062  0.00  0.00    -0.313 N 
ATOM      9  C   UNL     1       5.653  -3.405   0.751  0.00  0.00    +0.213 C 
ATOM     10  O   UNL     1       6.054  -2.618  -0.080  0.00  0.00    -0.276 OA
ATOM     11  H   UNL     1       4.022  -4.076   1.727  0.00  0.00    +0.149 HD
BRANCH   9  12
ATOM     12  C   UNL     1       6.620  -4.336   1.436  0.00  0.00    +0.099 C 
BRANCH  12  13
ATOM     13  C   UNL     1       8.033  -4.085   0.904  0.00  0.00    -0.002 C 
ATOM     14  C   UNL     1       8.094  -4.457  -0.578  0.00  0.00    +0.004 C 
ATOM     15  C   UNL     1       9.506  -4.206  -1.110  0.00  0.00    +0.000 C 
ATOM     16  C   UNL     1      10.505  -5.062  -0.328  0.00  0.00    +0.000 C 
ATOM     17  C   UNL     1      10.444  -4.690   1.155  0.00  0.00    +0.000 C 
ATOM     18  C   UNL     1       9.032  -4.941   1.686  0.00  0.00    +0.004 C 
ENDBRANCH  12  13
ENDBRANCH   9  12
ENDBRANCH   4   8
BRANCH   1  20
ATOM     19  C   UNL     1       0.020   1.312   0.782  0.00  0.00    -0.004 C 
ATOM     20  C   UNL     1       0.002  -0.004   0.002  0.00  0.00    +0.016 C 
BRANCH  20  21
ATOM     21  C   UNL     1      -1.362  -0.635   0.112  0.00  0.00    +0.200 C 
ATOM     22  O   UNL     1      -1.591  -1.434   0.995  0.00  0.00    -0.278 OA
ATOM     23  N   UNL     1      -2.328  -0.310  -0.771  0.00  0.00    -0.299 N 
ATOM     24  H   UNL     1      -2.144   0.329  -1.477  0.00  0.00    +0.150 HD
BRANCH  23  25
ATOM     25  C   UNL     1      -3.654  -0.923  -0.664  0.00  0.00    +0.121 C 
ATOM     26  C   UNL     1      -4.266  -0.581   0.696  0.00  0.00    +0.048 C 
BRANCH  25  27
ATOM     27  C   UNL     1      -4.555  -0.388  -1.779  0.00  0.00    +0.020 C 
ATOM     28  C   UNL     1      -5.899  -1.118  -1.744  0.00  0.00    +0.010 C 
ATOM     29  C   UNL     1      -4.784   1.111  -1.573  0.00  0.00    +0.010 C 
ENDBRANCH  25  27
BRANCH  25  30
ATOM     30  C   UNL     1      -3.531  -2.385  -0.792  0.00  0.00    +0.088 C 
ATOM     31  N   UNL     1      -3.436  -3.512  -0.891  0.00  0.00    -0.194 NA
ENDBRANCH  25  30
ENDBRANCH  23  25
ENDBRANCH  20  21
ENDBRANCH   1  20
TORSDOF 8
