REMARK  Name = ZINC15777491
REMARK  6 active torsions:
REMARK  status: ('A' for Active; 'I' for Inactive)
REMARK    1  A    between atoms: C_3  and  O_26
REMARK    2  A    between atoms: C_4  and  C_8
REMARK    3  A    between atoms: N_9  and  C_10
REMARK    4  A    between atoms: N_15  and  N_16
REMARK    5  A    between atoms: C_17  and  C_18
REMARK    6  A    between atoms: C_23  and  O_24
REMARK                            x       y       z     vdW  Elec       q    Type
REMARK                         _______ _______ _______ _____ _____    ______ ____
ROOT
ATOM      1  C   UNL     1      -3.260  -2.385   0.021  0.00  0.00    +0.217 A 
ATOM      2  N   UNL     1      -3.423  -1.065   0.029  0.00  0.00    -0.120 NA
ATOM      3  N   UNL     1      -2.441  -0.274   0.024  0.00  0.00    -0.122 NA
ATOM      4  C   UNL     1      -1.187  -0.712   0.010  0.00  0.00    +0.203 A 
ATOM      5  S   UNL     1      -1.472  -2.480  -0.004  0.00  0.00    -0.010 S 
ATOM      6  N   UNL     1       0.002  -0.004   0.002  0.00  0.00    -0.214 N 
ATOM      7  H   UNL     1       0.849  -0.478  -0.009  0.00  0.00    +0.177 HD
ENDROOT
BRANCH   1   9
ATOM      8  C   UNL     1      -5.460  -3.086   0.038  0.00  0.00    +0.125 C 
ATOM      9  N   UNL     1      -4.187  -3.379   0.024  0.00  0.00    -0.228 NA
BRANCH   8  13
ATOM     10  C   UNL     1      -8.353  -6.190   0.051  0.00  0.00    +0.019 A 
ATOM     11  C   UNL     1      -7.009  -6.510   0.035  0.00  0.00    +0.047 A 
ATOM     12  C   UNL     1      -6.056  -5.505   0.031  0.00  0.00    +0.125 A 
ATOM     13  C   UNL     1      -6.461  -4.160   0.042  0.00  0.00    +0.036 A 
ATOM     14  C   UNL     1      -7.825  -3.851   0.063  0.00  0.00    +0.028 A 
ATOM     15  C   UNL     1      -8.760  -4.865   0.061  0.00  0.00    +0.019 A 
ATOM     16 BR   UNL     1     -10.604  -4.447   0.082  0.00  0.00    -0.050 Br
BRANCH  12  17
ATOM     17  O   UNL     1      -4.735  -5.818   0.016  0.00  0.00    -0.506 OA
ATOM     18  H   UNL     1      -4.343  -5.913   0.895  0.00  0.00    +0.292 HD
ENDBRANCH  12  17
ENDBRANCH   8  13
ENDBRANCH   1   9
BRANCH   6  19
ATOM     19  N   UNL     1      -0.017   1.397   0.010  0.00  0.00    -0.188 NA
ATOM     20  C   UNL     1       1.099   2.061   0.003  0.00  0.00    +0.142 C 
BRANCH  20  21
ATOM     21  C   UNL     1       1.079   3.535   0.011  0.00  0.00    +0.037 A 
ATOM     22  C   UNL     1       2.277   4.253   0.003  0.00  0.00    +0.028 A 
ATOM     23  C   UNL     1       2.251   5.633   0.010  0.00  0.00    +0.019 A 
ATOM     24  C   UNL     1       1.041   6.308   0.025  0.00  0.00    +0.019 A 
ATOM     25  C   UNL     1      -0.150   5.608   0.033  0.00  0.00    +0.047 A 
ATOM     26  C   UNL     1      -0.142   4.223   0.020  0.00  0.00    +0.126 A 
ATOM     27 BR   UNL     1       3.872   6.606   0.000  0.00  0.00    -0.050 Br
BRANCH  26  28
ATOM     28  O   UNL     1      -1.313   3.534   0.022  0.00  0.00    -0.506 OA
ATOM     29  H   UNL     1      -1.648   3.330   0.906  0.00  0.00    +0.292 HD
ENDBRANCH  26  28
ENDBRANCH  20  21
ENDBRANCH   6  19
TORSDOF 6
