REMARK  Name = ZINC13565767
REMARK  9 active torsions:
REMARK  status: ('A' for Active; 'I' for Inactive)
REMARK    1  A    between atoms: C_1  and  C_2
REMARK    2  A    between atoms: C_3  and  C_21
REMARK    3  A    between atoms: C_8  and  C_10
REMARK    4  A    between atoms: C_10  and  N_11
REMARK    5  A    between atoms: C_30  and  C_32
REMARK    6  A    between atoms: C_32  and  C_33
REMARK    7  A    between atoms: C_33  and  C_34
REMARK    8  A    between atoms: C_33  and  C_35
REMARK    9  A    between atoms: C_33  and  C_36
REMARK                            x       y       z     vdW  Elec       q    Type
REMARK                         _______ _______ _______ _____ _____    ______ ____
ROOT
ATOM      1  C   UNL     1      -0.028   1.502  -0.085  0.00  0.00    +0.054 C 
ATOM      2  C   UNL     1      -0.002  -0.005  -0.041  0.00  0.00    +0.016 A 
ATOM      3  C   UNL     1      -1.034  -0.891   0.093  0.00  0.00    +0.083 A 
ATOM      4  N   UNL     1      -0.777  -2.191   0.106  0.00  0.00    -0.224 NA
ATOM      5  C   UNL     1       0.457  -2.646  -0.008  0.00  0.00    +0.165 A 
ATOM      6  S   UNL     1       1.385  -1.126  -0.159  0.00  0.00    -0.057 S 
ATOM      7  N   UNL     1       0.912  -3.959  -0.015  0.00  0.00    -0.264 N 
ATOM      8  C   UNL     1       2.229  -4.215  -0.144  0.00  0.00    +0.233 C 
ATOM      9  O   UNL     1       3.017  -3.300  -0.254  0.00  0.00    -0.274 OA
ATOM     10  H   UNL     1       0.282  -4.691   0.073  0.00  0.00    +0.157 HD
ENDROOT
BRANCH   3  11
ATOM     11  C   UNL     1      -2.428  -0.403   0.224  0.00  0.00    +0.002 A 
ATOM     12  C   UNL     1      -2.888   0.633  -0.589  0.00  0.00    +0.012 A 
ATOM     13  C   UNL     1      -4.182   1.083  -0.466  0.00  0.00    +0.024 A 
ATOM     14  C   UNL     1      -5.046   0.510   0.471  0.00  0.00    +0.040 A 
ATOM     15  C   UNL     1      -4.584  -0.519   1.277  0.00  0.00    -0.024 A 
ATOM     16  C   UNL     1      -3.289  -0.980   1.155  0.00  0.00    +0.015 A 
ATOM     17  C   UNL     1      -5.707  -0.955   2.192  0.00  0.00    +0.056 C 
ATOM     18  C   UNL     1      -6.888  -0.045   1.816  0.00  0.00    +0.118 C 
ATOM     19  N   UNL     1      -6.381   0.821   0.748  0.00  0.00    -0.271 N 
ATOM     20  C   UNL     1      -7.098   1.777   0.125  0.00  0.00    +0.220 C 
ATOM     21  O   UNL     1      -8.253   1.971   0.438  0.00  0.00    -0.275 OA
BRANCH  20  22
ATOM     22  C   UNL     1      -6.463   2.606  -0.963  0.00  0.00    +0.102 C 
BRANCH  22  23
ATOM     23  C   UNL     1      -7.484   3.610  -1.501  0.00  0.00    -0.029 C 
ATOM     24  C   UNL     1      -7.945   4.526  -0.365  0.00  0.00    +0.011 C 
ATOM     25  C   UNL     1      -6.839   4.451  -2.604  0.00  0.00    +0.011 C 
ATOM     26  C   UNL     1      -8.688   2.858  -2.070  0.00  0.00    +0.011 C 
ENDBRANCH  22  23
ENDBRANCH  20  22
ENDBRANCH   3  11
BRANCH   8  27
ATOM     27  C   UNL     1       2.723  -5.639  -0.151  0.00  0.00    +0.181 C 
BRANCH  27  28
ATOM     28  N   UNL     1       4.184  -5.650  -0.303  0.00  0.00    -0.289 NA
ATOM     29  C   UNL     1       4.680  -7.016  -0.530  0.00  0.00    +0.090 C 
ATOM     30  C   UNL     1       6.119  -6.932  -1.039  0.00  0.00    +0.051 C 
ATOM     31  C   UNL     1       6.933  -6.040  -0.136  0.00  0.00    -0.042 A 
ATOM     32  C   UNL     1       8.316  -6.112  -0.207  0.00  0.00    +0.004 A 
ATOM     33  C   UNL     1       9.098  -5.311   0.600  0.00  0.00    +0.000 A 
ATOM     34  C   UNL     1       8.499  -4.431   1.482  0.00  0.00    +0.000 A 
ATOM     35  C   UNL     1       7.123  -4.359   1.554  0.00  0.00    +0.005 A 
ATOM     36  C   UNL     1       6.335  -5.166   0.746  0.00  0.00    -0.030 A 
ATOM     37  C   UNL     1       4.838  -5.060   0.869  0.00  0.00    +0.120 C 
ENDBRANCH  27  28
ENDBRANCH   8  27
TORSDOF 5
