REMARK  Name = ZINC16806893
REMARK  4 active torsions:
REMARK  status: ('A' for Active; 'I' for Inactive)
REMARK    1  A    between atoms: C_1  and  O_2
REMARK    2  A    between atoms: O_2  and  C_3
REMARK    3  A    between atoms: C_8  and  N_9
REMARK    4  A    between atoms: C_14  and  C_17
REMARK                            x       y       z     vdW  Elec       q    Type
REMARK                         _______ _______ _______ _____ _____    ______ ____
ROOT
ATOM      1  N   UNL     1      -1.963   2.549   3.434  0.00  0.00    -0.281 N 
ATOM      2  C   UNL     1      -2.500   3.059   4.586  0.00  0.00    +0.217 A 
ATOM      3  N   UNL     1      -2.925   2.211   5.564  0.00  0.00    -0.174 NA
ATOM      4  C   UNL     1      -3.447   2.738   6.696  0.00  0.00    +0.301 A 
ATOM      5  O   UNL     1      -3.837   2.019   7.600  0.00  0.00    -0.263 OA
ATOM      6  C   UNL     1      -3.534   4.154   6.797  0.00  0.00    +0.157 A 
ATOM      7  N   UNL     1      -3.101   4.899   5.795  0.00  0.00    -0.166 NA
ATOM      8  N   UNL     1      -2.605   4.368   4.735  0.00  0.00    -0.247 N 
ATOM      9  H   UNL     1      -1.964   1.463   3.260  0.00  0.00    +0.155 HD
ATOM     10  H   UNL     1      -2.262   5.042   3.936  0.00  0.00    +0.192 HD
ENDROOT
BRANCH   1  16
ATOM     11  C   UNL     1      -1.344   3.019   1.142  0.00  0.00    +0.141 A 
ATOM     12  C   UNL     1      -0.793   3.873   0.200  0.00  0.00    +0.049 A 
ATOM     13  C   UNL     1      -0.322   5.115   0.583  0.00  0.00    +0.024 A 
ATOM     14  C   UNL     1      -0.391   5.505   1.909  0.00  0.00    +0.043 A 
ATOM     15  C   UNL     1      -0.934   4.657   2.856  0.00  0.00    +0.047 A 
ATOM     16  C   UNL     1      -1.413   3.411   2.477  0.00  0.00    +0.077 A 
ATOM     17 CL   UNL     1       0.208   7.064   2.385  0.00  0.00    -0.083 Cl
BRANCH  11  19
ATOM     18  C   UNL     1      -1.709   1.464  -0.621  0.00  0.00    +0.277 C 
ATOM     19  O   UNL     1      -1.812   1.799   0.765  0.00  0.00    -0.493 OA
ENDBRANCH  11  19
ENDBRANCH   1  16
BRANCH   6  20
ATOM     20  C   UNL     1      -4.102   4.786   8.009  0.00  0.00    +0.007 A 
ATOM     21  C   UNL     1      -3.729   6.082   8.364  0.00  0.00    +0.010 A 
ATOM     22  C   UNL     1      -4.266   6.668   9.492  0.00  0.00    +0.001 A 
ATOM     23  C   UNL     1      -5.164   5.967  10.277  0.00  0.00    +0.000 A 
ATOM     24  C   UNL     1      -5.534   4.679   9.934  0.00  0.00    +0.001 A 
ATOM     25  C   UNL     1      -5.008   4.085   8.805  0.00  0.00    +0.010 A 
ENDBRANCH   6  20
TORSDOF 3
