REMARK  Name = ZINC39916389
REMARK  6 active torsions:
REMARK  status: ('A' for Active; 'I' for Inactive)
REMARK    1  A    between atoms: C_1  and  C_2
REMARK    2  A    between atoms: C_3  and  C_29
REMARK    3  A    between atoms: C_4  and  N_8
REMARK    4  A    between atoms: C_11  and  C_18
REMARK    5  A    between atoms: C_13  and  C_16
REMARK    6  A    between atoms: C_14  and  N_15
REMARK                            x       y       z     vdW  Elec       q    Type
REMARK                         _______ _______ _______ _____ _____    ______ ____
ROOT
ATOM      1  N   UNL     1      -0.943  -2.931   1.194  0.00  0.00    -0.263 N 
ATOM      2  C   UNL     1      -1.912  -3.894   1.105  0.00  0.00    +0.022 C 
ATOM      3  C   UNL     1      -2.038  -4.834   2.066  0.00  0.00    +0.025 C 
ATOM      4  C   UNL     1      -1.107  -4.860   3.252  0.00  0.00    +0.097 C 
ATOM      5  C   UNL     1      -0.407  -3.543   3.418  0.00  0.00    +0.077 C 
ATOM      6  C   UNL     1      -0.345  -2.649   2.399  0.00  0.00    +0.104 C 
ATOM      7  C   UNL     1      -3.041  -5.816   1.991  0.00  0.00    +0.162 C 
ATOM      8  O   UNL     1      -3.122  -6.653   2.868  0.00  0.00    -0.292 OA
ATOM      9  C   UNL     1      -4.017  -5.850   0.847  0.00  0.00    +0.080 C 
ATOM     10  C   UNL     1      -4.202  -4.428   0.306  0.00  0.00    +0.014 C 
ATOM     11  C   UNL     1      -2.830  -3.878  -0.092  0.00  0.00    +0.052 C 
ENDROOT
BRANCH   1  15
ATOM     12  C   UNL     1      -0.018   1.503   0.010  0.00  0.00    +0.068 C 
ATOM     13  C   UNL     1       0.002  -0.004   0.002  0.00  0.00    +0.068 C 
ATOM     14  C   UNL     1      -1.100  -0.790   0.003  0.00  0.00    +0.027 C 
ATOM     15  C   UNL     1      -0.534  -2.200  -0.008  0.00  0.00    +0.253 C 
ATOM     16  N   UNL     1       0.920  -1.969  -0.014  0.00  0.00    -0.159 NA
ATOM     17  N   UNL     1       1.113  -0.752  -0.013  0.00  0.00    -0.157 NA
BRANCH  14  18
ATOM     18  C   UNL     1      -2.513  -0.376   0.013  0.00  0.00    -0.016 A 
ATOM     19  C   UNL     1      -3.323  -0.670   1.113  0.00  0.00    +0.008 A 
ATOM     20  C   UNL     1      -4.646  -0.279   1.115  0.00  0.00    +0.001 A 
ATOM     21  C   UNL     1      -5.171   0.402   0.031  0.00  0.00    +0.000 A 
ATOM     22  C   UNL     1      -4.375   0.697  -1.062  0.00  0.00    +0.001 A 
ATOM     23  C   UNL     1      -3.049   0.318  -1.076  0.00  0.00    +0.008 A 
ENDBRANCH  14  18
ENDBRANCH   1  15
BRANCH   4  24
ATOM     24  C   UNL     1      -0.078  -5.942   3.050  0.00  0.00    -0.035 A 
ATOM     25  C   UNL     1       0.770  -5.895   1.959  0.00  0.00    +0.004 A 
ATOM     26  C   UNL     1       1.714  -6.888   1.774  0.00  0.00    +0.000 A 
ATOM     27  C   UNL     1       1.808  -7.929   2.679  0.00  0.00    +0.000 A 
ATOM     28  C   UNL     1       0.960  -7.976   3.770  0.00  0.00    +0.000 A 
ATOM     29  C   UNL     1       0.020  -6.980   3.957  0.00  0.00    +0.004 A 
ENDBRANCH   4  24
BRANCH   6  30
ATOM     30  N   UNL     1       0.314  -1.456   2.575  0.00  0.00    -0.345 N 
ATOM     31  H   UNL     1       0.356  -0.814   1.849  0.00  0.00    +0.144 HD
ATOM     32  H   UNL     1       0.736  -1.256   3.425  0.00  0.00    +0.144 HD
ENDBRANCH   6  30
BRANCH   5  33
ATOM     33  C   UNL     1       0.210  -3.227   4.671  0.00  0.00    +0.099 C 
ATOM     34  N   UNL     1       0.700  -2.977   5.665  0.00  0.00    -0.191 NA
ENDBRANCH   5  33
TORSDOF 5
