REMARK  Name = ZINC06141976
REMARK  9 active torsions:
REMARK  status: ('A' for Active; 'I' for Inactive)
REMARK    1  A    between atoms: C_1  and  O_2
REMARK    2  A    between atoms: O_2  and  C_3
REMARK    3  A    between atoms: C_8  and  N_9
REMARK    4  A    between atoms: N_9  and  S_10
REMARK    5  A    between atoms: S_10  and  C_13
REMARK    6  A    between atoms: C_17  and  C_19
REMARK    7  A    between atoms: N_21  and  N_22
REMARK    8  A    between atoms: C_23  and  C_25
REMARK    9  A    between atoms: C_25  and  C_26
REMARK                            x       y       z     vdW  Elec       q    Type
REMARK                         _______ _______ _______ _____ _____    ______ ____
ROOT
ATOM      1  C   UNL     1      -3.042  -0.507   2.422  0.00  0.00    +0.109 A 
ATOM      2  C   UNL     1      -2.347  -1.551   3.007  0.00  0.00    +0.029 A 
ATOM      3  C   UNL     1      -2.120  -1.559   4.372  0.00  0.00    +0.003 A 
ATOM      4  C   UNL     1      -2.596  -0.532   5.160  0.00  0.00    +0.013 A 
ATOM      5  C   UNL     1      -3.303   0.521   4.577  0.00  0.00    +0.040 A 
ATOM      6  C   UNL     1      -3.523   0.526   3.199  0.00  0.00    +0.042 A 
ENDROOT
BRANCH   5   7
ATOM      7  C   UNL     1      -3.815   1.626   5.415  0.00  0.00    +0.260 C 
ATOM      8  O   UNL     1      -4.430   2.541   4.904  0.00  0.00    -0.269 OA
ATOM      9  N   UNL     1      -3.600   1.617   6.746  0.00  0.00    -0.230 N 
ATOM     10  H   UNL     1      -3.110   0.887   7.153  0.00  0.00    +0.173 HD
BRANCH   9  11
ATOM     11  N   UNL     1      -4.086   2.664   7.540  0.00  0.00    -0.234 N 
ATOM     12  C   UNL     1      -3.872   2.656   8.871  0.00  0.00    +0.229 C 
ATOM     13  O   UNL     1      -3.258   1.742   9.380  0.00  0.00    -0.274 OA
ATOM     14  H   UNL     1      -4.577   3.395   7.133  0.00  0.00    +0.173 HD
BRANCH  12  15
ATOM     15  C   UNL     1      -4.394   3.782   9.725  0.00  0.00    +0.101 C 
BRANCH  15  16
ATOM     16  C   UNL     1      -4.017   3.531  11.187  0.00  0.00    +0.001 C 
ATOM     17  C   UNL     1      -2.496   3.714  11.390  0.00  0.00    +0.007 C 
ATOM     18  C   UNL     1      -2.373   4.882  12.416  0.00  0.00    -0.010 C 
ATOM     19  C   UNL     1      -2.821   6.147  11.622  0.00  0.00    +0.004 C 
ATOM     20  C   UNL     1      -4.342   5.964  11.419  0.00  0.00    +0.004 C 
ATOM     21  C   UNL     1      -4.670   4.605  12.109  0.00  0.00    -0.007 C 
ATOM     22  C   UNL     1      -3.646   4.628  13.298  0.00  0.00    +0.007 C 
ENDBRANCH  15  16
ENDBRANCH  12  15
ENDBRANCH   9  11
ENDBRANCH   5   7
BRANCH   1  23
ATOM     23  S   UNL     1      -3.319  -0.502   0.682  0.00  0.00    +0.072 S 
ATOM     24  O   UNL     1      -4.468   0.302   0.456  0.00  0.00    -0.150 OA
ATOM     25  O   UNL     1      -3.240  -1.855   0.254  0.00  0.00    -0.150 OA
BRANCH  23  26
ATOM     26  N   UNL     1      -2.042   0.290  -0.015  0.00  0.00    -0.213 N 
ATOM     27  H   UNL     1      -2.197   1.089  -0.542  0.00  0.00    +0.174 HD
BRANCH  26  33
ATOM     28  C   UNL     1       0.326   0.694   0.272  0.00  0.00    +0.142 A 
ATOM     29  C   UNL     1       1.613   0.209   0.436  0.00  0.00    +0.047 A 
ATOM     30  C   UNL     1       1.836  -1.154   0.496  0.00  0.00    +0.004 A 
ATOM     31  C   UNL     1       0.778  -2.037   0.381  0.00  0.00    +0.002 A 
ATOM     32  C   UNL     1      -0.508  -1.561   0.212  0.00  0.00    +0.028 A 
ATOM     33  C   UNL     1      -0.741  -0.195   0.157  0.00  0.00    +0.090 A 
BRANCH  28  35
ATOM     34  C   UNL     1       1.245   2.887   0.345  0.00  0.00    +0.277 C 
ATOM     35  O   UNL     1       0.104   2.035   0.219  0.00  0.00    -0.493 OA
ENDBRANCH  28  35
ENDBRANCH  26  33
ENDBRANCH  23  26
ENDBRANCH   1  23
TORSDOF 8
