REMARK  Name = ZINC12768553
REMARK  8 active torsions:
REMARK  status: ('A' for Active; 'I' for Inactive)
REMARK    1  A    between atoms: C_4  and  S_7
REMARK    2  A    between atoms: S_7  and  N_10
REMARK    3  A    between atoms: N_10  and  C_11
REMARK    4  A    between atoms: C_11  and  C_13
REMARK    5  A    between atoms: C_11  and  C_25
REMARK    6  A    between atoms: C_13  and  C_14
REMARK    7  A    between atoms: N_16  and  N_17
REMARK    8  A    between atoms: C_18  and  C_20
REMARK                            x       y       z     vdW  Elec       q    Type
REMARK                         _______ _______ _______ _____ _____    ______ ____
ROOT
ATOM      1  C   UNL     1      -4.856   0.686   0.029  0.00  0.00    +0.115 C 
ENDROOT
BRANCH   1   2
ATOM      2  C   UNL     1      -6.167   1.417   0.163  0.00  0.00    -0.028 A 
ATOM      3  C   UNL     1      -6.737   2.022  -0.942  0.00  0.00    +0.006 A 
ATOM      4  C   UNL     1      -7.942   2.687  -0.821  0.00  0.00    +0.020 A 
ATOM      5  C   UNL     1      -8.573   2.758   0.409  0.00  0.00    +0.041 A 
ATOM      6  C   UNL     1      -7.999   2.157   1.515  0.00  0.00    +0.020 A 
ATOM      7  C   UNL     1      -6.797   1.487   1.392  0.00  0.00    +0.006 A 
ATOM      8 CL   UNL     1     -10.083   3.600   0.563  0.00  0.00    -0.084 Cl
ENDBRANCH   1   2
BRANCH   1   9
ATOM      9  N   UNL     1      -4.844  -0.068  -1.227  0.00  0.00    -0.182 NA
ATOM     10  H   UNL     1      -4.578   0.368  -2.052  0.00  0.00    +0.149 HD
BRANCH   9  11
ATOM     11  S   UNL     1      -5.282  -1.665  -1.239  0.00  0.00    +0.059 S 
ATOM     12  O   UNL     1      -5.194  -2.101  -2.588  0.00  0.00    -0.153 OA
ATOM     13  O   UNL     1      -4.561  -2.292  -0.187  0.00  0.00    -0.153 OA
BRANCH  11  17
ATOM     14  C   UNL     1      -9.659  -1.859  -0.101  0.00  0.00    +0.000 A 
ATOM     15  C   UNL     1      -9.295  -1.738  -1.429  0.00  0.00    +0.002 A 
ATOM     16  C   UNL     1      -7.959  -1.678  -1.776  0.00  0.00    +0.028 A 
ATOM     17  C   UNL     1      -6.986  -1.740  -0.796  0.00  0.00    +0.105 A 
ATOM     18  C   UNL     1      -7.350  -1.867   0.532  0.00  0.00    +0.028 A 
ATOM     19  C   UNL     1      -8.687  -1.921   0.880  0.00  0.00    +0.002 A 
ENDBRANCH  11  17
ENDBRANCH   9  11
ENDBRANCH   1   9
BRANCH   1  20
ATOM     20  C   UNL     1      -3.707   1.696   0.029  0.00  0.00    +0.122 C 
BRANCH  20  21
ATOM     21  C   UNL     1      -2.392   0.960   0.019  0.00  0.00    +0.231 C 
ATOM     22  O   UNL     1      -2.375  -0.253   0.012  0.00  0.00    -0.274 OA
ATOM     23  N   UNL     1      -1.234   1.650   0.017  0.00  0.00    -0.234 N 
ATOM     24  H   UNL     1      -1.247   2.620   0.022  0.00  0.00    +0.173 HD
BRANCH  23  25
ATOM     25  N   UNL     1      -0.011   0.966   0.007  0.00  0.00    -0.228 N 
ATOM     26  C   UNL     1       1.147   1.655   0.000  0.00  0.00    +0.295 C 
ATOM     27  O   UNL     1       1.130   2.872   0.007  0.00  0.00    -0.265 OA
ATOM     28  H   UNL     1       0.002  -0.004   0.002  0.00  0.00    +0.173 HD
BRANCH  26  29
ATOM     29  C   UNL     1       2.427   0.940  -0.016  0.00  0.00    +0.190 A 
ATOM     30  C   UNL     1       3.666   1.512  -0.025  0.00  0.00    +0.054 A 
ATOM     31  C   UNL     1       4.596   0.461  -0.038  0.00  0.00    +0.042 A 
ATOM     32  C   UNL     1       3.893  -0.693  -0.037  0.00  0.00    +0.196 A 
ATOM     33  O   UNL     1       2.586  -0.400  -0.019  0.00  0.00    -0.458 OA
ENDBRANCH  26  29
ENDBRANCH  23  25
ENDBRANCH  20  21
ENDBRANCH   1  20
TORSDOF 8
