REMARK  Name = ZINC06409798
REMARK  12 active torsions:
REMARK  status: ('A' for Active; 'I' for Inactive)
REMARK    1  A    between atoms: C_1  and  C_2
REMARK    2  A    between atoms: C_7  and  C_14
REMARK    3  A    between atoms: C_14  and  C_16
REMARK    4  A    between atoms: C_14  and  N_66
REMARK    5  A    between atoms: N_20  and  C_21
REMARK    6  A    between atoms: C_21  and  C_22
REMARK    7  A    between atoms: C_21  and  C_23
REMARK    8  A    between atoms: C_21  and  C_24
REMARK    9  A    between atoms: C_25  and  C_26
REMARK   10  A    between atoms: C_25  and  N_66
REMARK   11  A    between atoms: C_32  and  C_33
REMARK   12  A    between atoms: C_32  and  N_66
REMARK                            x       y       z     vdW  Elec       q    Type
REMARK                         _______ _______ _______ _____ _____    ______ ____
ROOT
ATOM      1  C   UNL     1       4.263   1.495  -0.344  0.00  0.00    +0.040 C 
ENDROOT
BRANCH   1   8
ATOM      2  C   UNL     1      -3.321   3.967  -0.265  0.00  0.00    +0.044 C 
ATOM      3  C   UNL     1      -1.976   3.286  -0.247  0.00  0.00    -0.048 A 
ATOM      4  C   UNL     1      -1.905   1.910  -0.077  0.00  0.00    +0.004 A 
ATOM      5  C   UNL     1      -0.696   1.274  -0.051  0.00  0.00    +0.010 A 
ATOM      6  C   UNL     1       0.480   2.014  -0.210  0.00  0.00    -0.001 A 
ATOM      7  C   UNL     1       1.792   1.364  -0.194  0.00  0.00    +0.017 A 
ATOM      8  C   UNL     1       2.897   2.133  -0.354  0.00  0.00    +0.011 A 
ATOM      9  C   UNL     1       2.774   3.528  -0.530  0.00  0.00    +0.251 A 
ATOM     10  O   UNL     1       3.781   4.200  -0.671  0.00  0.00    -0.268 OA
ATOM     11  N   UNL     1       1.574   4.134  -0.545  0.00  0.00    -0.322 N 
ATOM     12  H   UNL     1       1.525   5.095  -0.668  0.00  0.00    +0.169 HD
ATOM     13  C   UNL     1       0.412   3.409  -0.389  0.00  0.00    +0.049 A 
ATOM     14  C   UNL     1      -0.830   4.035  -0.405  0.00  0.00    +0.029 A 
ENDBRANCH   1   8
BRANCH   1  15
ATOM     15  C   UNL     1       4.902   1.655  -1.699  0.00  0.00    +0.143 A 
ATOM     16  N   UNL     1       5.405   2.755  -2.203  0.00  0.00    -0.115 NA
ATOM     17  N   UNL     1       5.858   2.484  -3.378  0.00  0.00    -0.023 NA
ATOM     18  N   UNL     1       5.650   1.241  -3.640  0.00  0.00    -0.043 NA
ATOM     19  N   UNL     1       5.062   0.695  -2.630  0.00  0.00    -0.225 N 
BRANCH  19  20
ATOM     20  C   UNL     1       4.648  -0.705  -2.516  0.00  0.00    +0.059 C 
ATOM     21  C   UNL     1       3.147  -0.771  -2.231  0.00  0.00    +0.036 C 
ATOM     22  C   UNL     1       4.951  -1.435  -3.826  0.00  0.00    +0.036 C 
ATOM     23  C   UNL     1       5.415  -1.372  -1.372  0.00  0.00    +0.036 C 
ENDBRANCH  19  20
ENDBRANCH   1  15
BRANCH   1  24
ATOM     24  N   UNL     1       5.105   2.174   0.664  0.00  0.00    +0.395 N 
ATOM     25  H   UNL     1       5.288   3.135   0.352  0.00  0.00    -0.079 HD
BRANCH  24  26
ATOM     26  C   UNL     1       6.393   1.463   0.807  0.00  0.00    -0.041 C 
BRANCH  26  27
ATOM     27  C   UNL     1       7.339   1.964  -0.253  0.00  0.00    -0.064 A 
ATOM     28  C   UNL     1       7.501   1.252  -1.427  0.00  0.00    +0.002 A 
ATOM     29  C   UNL     1       8.365   1.714  -2.402  0.00  0.00    +0.000 A 
ATOM     30  C   UNL     1       9.076   2.883  -2.199  0.00  0.00    +0.000 A 
ATOM     31  C   UNL     1       8.918   3.592  -1.022  0.00  0.00    +0.000 A 
ATOM     32  C   UNL     1       8.050   3.132  -0.050  0.00  0.00    +0.002 A 
ENDBRANCH  26  27
ENDBRANCH  24  26
BRANCH  24  33
ATOM     33  C   UNL     1       4.403   2.216   1.964  0.00  0.00    -0.034 C 
BRANCH  33  34
ATOM     34  C   UNL     1       5.095   3.214   2.856  0.00  0.00    -0.027 A 
ATOM     35  C   UNL     1       4.821   4.529   3.040  0.00  0.00    +0.009 A 
ATOM     36  C   UNL     1       5.598   5.259   3.919  0.00  0.00    +0.008 A 
ATOM     37  C   UNL     1       6.611   4.639   4.572  0.00  0.00    +0.045 A 
ATOM     38  S   UNL     1       6.485   2.971   3.950  0.00  0.00    -0.103 S 
ENDBRANCH  33  34
ENDBRANCH  24  33
ENDBRANCH   1  24
TORSDOF 8
