REMARK  Name = ZINC22201872
REMARK  10 active torsions:
REMARK  status: ('A' for Active; 'I' for Inactive)
REMARK    1  A    between atoms: C_1  and  C_2
REMARK    2  A    between atoms: C_6  and  C_35
REMARK    3  A    between atoms: C_7  and  N_8
REMARK    4  A    between atoms: C_9  and  C_23
REMARK    5  A    between atoms: C_12  and  S_13
REMARK    6  A    between atoms: S_13  and  C_14
REMARK    7  A    between atoms: C_27  and  S_29
REMARK    8  A    between atoms: S_29  and  N_32
REMARK    9  A    between atoms: N_32  and  C_33
REMARK   10  A    between atoms: N_32  and  C_34
REMARK                            x       y       z     vdW  Elec       q    Type
REMARK                         _______ _______ _______ _____ _____    ______ ____
ROOT
ATOM      1  N   UNL     1       0.359   3.379  -3.987  0.00  0.00    -0.270 N 
ATOM      2  C   UNL     1       1.309   2.772  -4.780  0.00  0.00    +0.169 A 
ATOM      3  N   UNL     1       2.220   2.274  -3.976  0.00  0.00    -0.128 NA
ATOM      4  N   UNL     1       1.914   2.527  -2.754  0.00  0.00    -0.122 NA
ATOM      5  C   UNL     1       0.788   3.204  -2.700  0.00  0.00    +0.197 A 
ENDROOT
BRANCH   1  12
ATOM      6  C   UNL     1      -2.028   1.856  -4.273  0.00  0.00    +0.046 C 
ATOM      7  C   UNL     1      -1.988   3.334  -4.563  0.00  0.00    -0.026 A 
ATOM      8  C   UNL     1      -3.131   3.989  -4.976  0.00  0.00    +0.005 A 
ATOM      9  C   UNL     1      -3.094   5.345  -5.248  0.00  0.00    +0.001 A 
ATOM     10  C   UNL     1      -1.913   6.049  -5.102  0.00  0.00    +0.005 A 
ATOM     11  C   UNL     1      -0.767   5.401  -4.684  0.00  0.00    -0.026 A 
ATOM     12  C   UNL     1      -0.802   4.040  -4.411  0.00  0.00    +0.056 A 
ATOM     13  C   UNL     1       0.519   6.169  -4.525  0.00  0.00    +0.046 C 
ENDBRANCH   1  12
BRANCH   2  14
ATOM     14  C   UNL     1       1.300   2.691  -6.255  0.00  0.00    +0.021 A 
ATOM     15  C   UNL     1       0.135   2.982  -6.967  0.00  0.00    +0.012 A 
ATOM     16  C   UNL     1       0.134   2.905  -8.344  0.00  0.00    +0.003 A 
ATOM     17  C   UNL     1       1.284   2.540  -9.020  0.00  0.00    +0.028 A 
ATOM     18  C   UNL     1       2.443   2.250  -8.322  0.00  0.00    +0.106 A 
ATOM     19  C   UNL     1       2.459   2.329  -6.944  0.00  0.00    +0.040 A 
BRANCH  18  20
ATOM     20  S   UNL     1       3.902   1.786  -9.193  0.00  0.00    +0.060 S 
ATOM     21  O   UNL     1       4.697   1.038  -8.284  0.00  0.00    -0.153 OA
ATOM     22  O   UNL     1       3.479   1.262 -10.444  0.00  0.00    -0.153 OA
BRANCH  20  23
ATOM     23  N   UNL     1       4.740   3.177  -9.521  0.00  0.00    -0.183 NA
ATOM     24  C   UNL     1       5.731   3.677  -8.565  0.00  0.00    +0.131 C 
ATOM     25  C   UNL     1       4.489   3.906 -10.766  0.00  0.00    +0.131 C 
ENDBRANCH  20  23
ENDBRANCH  18  20
ENDBRANCH   2  14
BRANCH   5  26
ATOM     26  S   UNL     1      -0.021   3.772  -1.241  0.00  0.00    -0.073 S 
BRANCH  26  27
ATOM     27  C   UNL     1       1.128   3.158   0.015  0.00  0.00    +0.140 C 
ATOM     28  C   UNL     1       0.675   3.627   1.400  0.00  0.00    +0.024 C 
ATOM     29  C   UNL     1      -0.840   3.668   1.484  0.00  0.00    +0.003 C 
ATOM     30  C   UNL     1      -1.496   2.302   1.407  0.00  0.00    +0.019 C 
ATOM     31  C   UNL     1      -1.298   1.680   0.017  0.00  0.00    +0.104 C 
ATOM     32  N   UNL     1      -0.011   0.966   0.007  0.00  0.00    -0.314 N 
ATOM     33  C   UNL     1       1.137   1.644   0.000  0.00  0.00    +0.226 C 
ATOM     34  O   UNL     1       2.192   1.046  -0.018  0.00  0.00    -0.275 OA
ATOM     35  H   UNL     1       0.008  -0.134   0.006  0.00  0.00    +0.149 HD
ENDBRANCH  26  27
ENDBRANCH   5  26
TORSDOF 6
