REMARK  Name = ZINC39975871
REMARK  4 active torsions:
REMARK  status: ('A' for Active; 'I' for Inactive)
REMARK    1  A    between atoms: C_4  and  N_7
REMARK    2  A    between atoms: C_8  and  S_13
REMARK    3  A    between atoms: S_13  and  C_14
REMARK    4  A    between atoms: C_14  and  C_15
REMARK                            x       y       z     vdW  Elec       q    Type
REMARK                         _______ _______ _______ _____ _____    ______ ____
ROOT
ATOM      1  S   UNL     1       3.120  -2.871   1.437  0.00  0.00    -0.109 S 
ENDROOT
BRANCH   1   3
ATOM      2  N   UNL     1       3.619  -0.648  -0.036  0.00  0.00    -0.174 N 
ATOM      3  C   UNL     1       3.822  -2.109  -0.052  0.00  0.00    +0.260 C 
ATOM      4  N   UNL     1       5.292  -2.237  -0.066  0.00  0.00    -0.218 N 
ATOM      5  N   UNL     1       5.790  -0.929  -0.057  0.00  0.00    -0.063 NA
ATOM      6  N   UNL     1       4.900  -0.083  -0.047  0.00  0.00    -0.056 NA
ATOM      7  H   UNL     1       5.807  -3.059  -0.077  0.00  0.00    +0.173 HD
BRANCH   2  11
ATOM      8  C   UNL     1      -0.017   1.379   0.010  0.00  0.00    +0.000 A 
ATOM      9  C   UNL     1       1.169   2.090   0.002  0.00  0.00    +0.002 A 
ATOM     10  C   UNL     1       2.377   1.421  -0.013  0.00  0.00    +0.025 A 
ATOM     11  C   UNL     1       2.400   0.031  -0.021  0.00  0.00    +0.056 A 
ATOM     12  C   UNL     1       1.206  -0.680  -0.013  0.00  0.00    +0.025 A 
ATOM     13  C   UNL     1       0.002  -0.004   0.002  0.00  0.00    +0.002 A 
ENDBRANCH   2  11
ENDBRANCH   1   3
BRANCH   1  14
ATOM     14  C   UNL     1       4.024  -2.086   2.799  0.00  0.00    +0.146 C 
BRANCH  14  15
ATOM     15  C   UNL     1       3.531  -2.637   4.112  0.00  0.00    +0.120 A 
ATOM     16  N   UNL     1       4.087  -2.165   5.259  0.00  0.00    -0.310 N 
ATOM     17  H   UNL     1       4.782  -1.490   5.213  0.00  0.00    +0.170 HD
ATOM     18  C   UNL     1       3.679  -2.627   6.464  0.00  0.00    +0.259 A 
ATOM     19  O   UNL     1       4.168  -2.213   7.498  0.00  0.00    -0.267 OA
ATOM     20  C   UNL     1       2.622  -3.650   6.474  0.00  0.00    +0.065 A 
ATOM     21  C   UNL     1       2.131  -4.191   7.660  0.00  0.00    +0.015 A 
ATOM     22  C   UNL     1       1.141  -5.147   7.612  0.00  0.00    +0.001 A 
ATOM     23  C   UNL     1       0.629  -5.572   6.393  0.00  0.00    +0.002 A 
ATOM     24  C   UNL     1       1.100  -5.051   5.209  0.00  0.00    +0.028 A 
ATOM     25  C   UNL     1       2.104  -4.080   5.232  0.00  0.00    +0.078 A 
ATOM     26  N   UNL     1       2.593  -3.535   4.090  0.00  0.00    -0.233 NA
ENDBRANCH  14  15
ENDBRANCH   1  14
TORSDOF 4
