REMARK  Name = ZINC09693243
REMARK  8 active torsions:
REMARK  status: ('A' for Active; 'I' for Inactive)
REMARK    1  A    between atoms: C_1  and  C_2
REMARK    2  A    between atoms: C_2  and  O_3
REMARK    3  A    between atoms: O_3  and  C_4
REMARK    4  A    between atoms: C_6  and  C_11
REMARK    5  A    between atoms: C_9  and  O_10
REMARK    6  A    between atoms: N_18  and  C_25
REMARK    7  A    between atoms: C_22  and  C_23
REMARK    8  A    between atoms: C_30  and  C_31
REMARK                            x       y       z     vdW  Elec       q    Type
REMARK                         _______ _______ _______ _____ _____    ______ ____
ROOT
ATOM      1  C   UNL     1       1.171   3.163  -0.739  0.00  0.00    +0.071 C 
ATOM      2  C   UNL     1       1.300   1.902   0.120  0.00  0.00    +0.110 C 
ATOM      3  C   UNL     1      -0.007   1.159   0.115  0.00  0.00    +0.222 C 
ATOM      4  O   UNL     1      -0.002  -0.053   0.136  0.00  0.00    -0.275 OA
ATOM      5  N   UNL     1      -1.193   1.819   0.082  0.00  0.00    -0.248 N 
ATOM      6  C   UNL     1      -2.397   1.008   0.065  0.00  0.00    +0.222 C 
ATOM      7  N   UNL     1      -3.647   1.635   0.414  0.00  0.00    -0.304 N 
ATOM      8  C   UNL     1      -3.872   2.958  -0.173  0.00  0.00    +0.182 C 
ATOM      9  S   UNL     1      -2.637   4.087   0.536  0.00  0.00    -0.090 S 
ATOM     10  C   UNL     1      -1.187   3.198   0.053  0.00  0.00    +0.087 C 
ATOM     11  C   UNL     1      -0.083   3.895  -0.329  0.00  0.00    +0.065 C 
ENDROOT
BRANCH   7  12
ATOM     12  C   UNL     1      -4.723   0.783   0.155  0.00  0.00    +0.036 A 
ATOM     13  C   UNL     1      -4.553  -0.322  -0.671  0.00  0.00    +0.023 A 
ATOM     14  C   UNL     1      -5.617  -1.165  -0.921  0.00  0.00    +0.003 A 
ATOM     15  C   UNL     1      -6.854  -0.906  -0.360  0.00  0.00    +0.020 A 
ATOM     16  C   UNL     1      -7.029   0.196   0.458  0.00  0.00    +0.046 A 
ATOM     17  C   UNL     1      -5.966   1.041   0.717  0.00  0.00    -0.011 A 
ATOM     18  C   UNL     1      -6.156   2.241   1.609  0.00  0.00    +0.047 C 
ATOM     19 CL   UNL     1      -8.583   0.517   1.161  0.00  0.00    -0.083 Cl
ENDBRANCH   7  12
BRANCH   1  22
ATOM     20  C   UNL     1       4.293   5.191  -1.383  0.00  0.00    +0.162 A 
ATOM     21  C   UNL     1       3.193   4.371  -1.582  0.00  0.00    +0.053 A 
ATOM     22  C   UNL     1       2.369   4.050  -0.519  0.00  0.00    -0.035 A 
ATOM     23  C   UNL     1       2.645   4.536   0.745  0.00  0.00    +0.008 A 
ATOM     24  C   UNL     1       3.743   5.350   0.952  0.00  0.00    +0.049 A 
ATOM     25  C   UNL     1       4.570   5.680  -0.110  0.00  0.00    +0.158 A 
BRANCH  25  26
ATOM     26  O   UNL     1       5.651   6.480   0.092  0.00  0.00    -0.503 OA
ATOM     27  H   UNL     1       6.460   6.000   0.315  0.00  0.00    +0.292 HD
ENDBRANCH  25  26
BRANCH  20  28
ATOM     28  O   UNL     1       5.101   5.512  -2.428  0.00  0.00    -0.489 OA
BRANCH  28  30
ATOM     29  C   UNL     1       5.772   5.441  -4.748  0.00  0.00    +0.048 C 
ATOM     30  C   UNL     1       4.755   4.974  -3.705  0.00  0.00    +0.226 C 
ENDBRANCH  28  30
ENDBRANCH  20  28
ENDBRANCH   1  22
BRANCH  11  31
ATOM     31  C   UNL     1      -0.111   5.326  -0.343  0.00  0.00    +0.098 C 
ATOM     32  N   UNL     1      -0.133   6.462  -0.354  0.00  0.00    -0.191 NA
ENDBRANCH  11  31
TORSDOF 6
