REMARK  Name = ZINC40914059
REMARK  8 active torsions:
REMARK  status: ('A' for Active; 'I' for Inactive)
REMARK    1  A    between atoms: C_1  and  C_2
REMARK    2  A    between atoms: C_3  and  C_30
REMARK    3  A    between atoms: C_4  and  C_12
REMARK    4  A    between atoms: C_14  and  O_28
REMARK    5  A    between atoms: C_15  and  O_19
REMARK    6  A    between atoms: O_19  and  C_20
REMARK    7  A    between atoms: C_20  and  C_21
REMARK    8  A    between atoms: O_28  and  C_29
REMARK                            x       y       z     vdW  Elec       q    Type
REMARK                         _______ _______ _______ _____ _____    ______ ____
ROOT
ATOM      1  C   UNL     1      -1.729  -2.627  -1.371  0.00  0.00    -0.014 A 
ATOM      2  C   UNL     1      -2.905  -3.347  -1.482  0.00  0.00    +0.055 A 
ATOM      3  C   UNL     1      -3.344  -3.768  -2.726  0.00  0.00    +0.163 A 
ATOM      4  C   UNL     1      -2.601  -3.465  -3.863  0.00  0.00    +0.176 A 
ATOM      5  C   UNL     1      -1.423  -2.743  -3.745  0.00  0.00    +0.063 A 
ATOM      6  C   UNL     1      -0.993  -2.321  -2.499  0.00  0.00    +0.025 A 
ATOM      7 BR   UNL     1      -0.410  -2.328  -5.286  0.00  0.00    -0.046 Br
ENDROOT
BRANCH   1  11
ATOM      8  C   UNL     1      -0.018   1.503   0.010  0.00  0.00    +0.061 C 
ATOM      9  C   UNL     1       0.002  -0.004   0.002  0.00  0.00    +0.018 C 
ATOM     10  C   UNL     1      -1.163  -0.668   0.004  0.00  0.00    +0.060 C 
ATOM     11  C   UNL     1      -1.253  -2.171  -0.016  0.00  0.00    +0.177 C 
ATOM     12  N   UNL     1       0.064  -2.740   0.255  0.00  0.00    -0.221 N 
ATOM     13  C   UNL     1       1.211  -2.016   0.249  0.00  0.00    +0.218 A 
ATOM     14  N   UNL     1       2.199  -2.824   0.520  0.00  0.00    -0.201 NA
ATOM     15  C   UNL     1       1.727  -4.060   0.708  0.00  0.00    +0.247 A 
ATOM     16  N   UNL     1       0.425  -4.052   0.556  0.00  0.00    -0.156 NA
ATOM     17  N   UNL     1       1.213  -0.651  -0.013  0.00  0.00    -0.287 N 
ATOM     18  H   UNL     1       2.038  -0.174  -0.196  0.00  0.00    +0.155 HD
BRANCH  10  19
ATOM     19  C   UNL     1      -2.365   0.079   0.026  0.00  0.00    +0.241 C 
ATOM     20  O   UNL     1      -2.325   1.296   0.043  0.00  0.00    -0.271 OA
ATOM     21  N   UNL     1      -3.553  -0.556   0.029  0.00  0.00    -0.325 N 
ATOM     22  H   UNL     1      -3.585  -1.525   0.016  0.00  0.00    +0.145 HD
ATOM     23  H   UNL     1      -4.377  -0.044   0.044  0.00  0.00    +0.145 HD
ENDBRANCH  10  19
ENDBRANCH   1  11
BRANCH   3  24
ATOM     24  O   UNL     1      -4.500  -4.477  -2.837  0.00  0.00    -0.491 OA
ATOM     25  C   UNL     1      -5.210  -4.752  -1.628  0.00  0.00    +0.277 C 
ENDBRANCH   3  24
BRANCH   4  26
ATOM     26  O   UNL     1      -3.028  -3.877  -5.087  0.00  0.00    -0.483 OA
BRANCH  26  27
ATOM     27  C   UNL     1      -3.884  -2.988  -5.808  0.00  0.00    +0.264 C 
BRANCH  27  28
ATOM     28  C   UNL     1      -4.252  -3.608  -7.131  0.00  0.00    -0.010 A 
ATOM     29  C   UNL     1      -3.461  -3.386  -8.242  0.00  0.00    +0.008 A 
ATOM     30  C   UNL     1      -3.798  -3.955  -9.456  0.00  0.00    +0.020 A 
ATOM     31  C   UNL     1      -4.928  -4.747  -9.559  0.00  0.00    +0.041 A 
ATOM     32  C   UNL     1      -5.719  -4.969  -8.446  0.00  0.00    +0.020 A 
ATOM     33  C   UNL     1      -5.378  -4.404  -7.231  0.00  0.00    +0.008 A 
ATOM     34 CL   UNL     1      -5.352  -5.461 -11.083  0.00  0.00    -0.084 Cl
ENDBRANCH  27  28
ENDBRANCH  26  27
ENDBRANCH   4  26
TORSDOF 6
