REMARK  Name = ZINC13981435
REMARK  10 active torsions:
REMARK  status: ('A' for Active; 'I' for Inactive)
REMARK    1  A    between atoms: C_1  and  C_2
REMARK    2  A    between atoms: C_2  and  C_3
REMARK    3  A    between atoms: C_6  and  O_10
REMARK    4  A    between atoms: O_10  and  C_11
REMARK    5  A    between atoms: C_11  and  C_12
REMARK    6  A    between atoms: N_14  and  N_15
REMARK    7  A    between atoms: N_15  and  C_16
REMARK    8  A    between atoms: C_16  and  N_18
REMARK    9  A    between atoms: C_19  and  C_21
REMARK   10  A    between atoms: C_22  and  C_23
REMARK                            x       y       z     vdW  Elec       q    Type
REMARK                         _______ _______ _______ _____ _____    ______ ____
ROOT
ATOM      1  N   UNL     1       5.213  -2.708  -0.065  0.00  0.00    -0.245 N 
ATOM      2  H   UNL     1       5.973  -2.106  -0.069  0.00  0.00    +0.172 HD
ENDROOT
BRANCH   1   5
ATOM      3  C   UNL     1       3.714  -0.859  -0.040  0.00  0.00    +0.267 C 
ATOM      4  O   UNL     1       4.664  -0.105  -0.044  0.00  0.00    -0.271 OA
ATOM      5  N   UNL     1       3.910  -2.192  -0.049  0.00  0.00    -0.232 N 
ATOM      6  H   UNL     1       3.150  -2.794  -0.045  0.00  0.00    +0.173 HD
BRANCH   3   7
ATOM      7  C   UNL     1       2.313  -0.304  -0.023  0.00  0.00    +0.326 C 
BRANCH   7   8
ATOM      8  O   UNL     1       2.366   1.124  -0.015  0.00  0.00    -0.482 OA
BRANCH   8  12
ATOM      9  C   UNL     1      -1.238   3.133   0.030  0.00  0.00    -0.046 A 
ATOM     10  C   UNL     1      -1.218   1.751   0.017  0.00  0.00    +0.007 A 
ATOM     11  C   UNL     1      -0.013   1.076   0.008  0.00  0.00    +0.047 A 
ATOM     12  C   UNL     1       1.179   1.786   0.000  0.00  0.00    +0.135 A 
ATOM     13  C   UNL     1       1.157   3.174   0.008  0.00  0.00    +0.060 A 
ATOM     14  C   UNL     1      -0.052   3.844   0.023  0.00  0.00    +0.022 A 
ATOM     15 BR   UNL     1       2.778   4.147  -0.003  0.00  0.00    -0.047 Br
BRANCH   9  17
ATOM     16  C   UNL     1      -3.013   4.122  -1.391  0.00  0.00    +0.009 C 
ATOM     17  C   UNL     1      -2.554   3.866   0.046  0.00  0.00    +0.032 C 
ENDBRANCH   9  17
ENDBRANCH   8  12
ENDBRANCH   7   8
ENDBRANCH   3   7
ENDBRANCH   1   5
BRANCH   1  18
ATOM     18  C   UNL     1       5.409  -4.041  -0.074  0.00  0.00    +0.153 C 
ATOM     19  S   UNL     1       7.001  -4.672  -0.093  0.00  0.00    -0.017 S 
BRANCH  18  20
ATOM     20  N   UNL     1       4.353  -4.878  -0.069  0.00  0.00    -0.263 N 
ATOM     21  C   UNL     1       4.549  -6.212  -0.078  0.00  0.00    +0.242 C 
ATOM     22  O   UNL     1       5.681  -6.660  -0.092  0.00  0.00    -0.270 OA
ATOM     23  H   UNL     1       3.451  -4.521  -0.058  0.00  0.00    +0.157 HD
BRANCH  21  24
ATOM     24  C   UNL     1       3.403  -7.120  -0.072  0.00  0.00    +0.068 C 
ATOM     25  C   UNL     1       3.600  -8.455  -0.082  0.00  0.00    +0.014 C 
BRANCH  25  26
ATOM     26  C   UNL     1       2.447  -9.368  -0.076  0.00  0.00    -0.007 A 
ATOM     27  C   UNL     1       1.145  -8.857  -0.060  0.00  0.00    +0.009 A 
ATOM     28  C   UNL     1       0.069  -9.720  -0.055  0.00  0.00    +0.001 A 
ATOM     29  C   UNL     1       0.275 -11.089  -0.065  0.00  0.00    +0.001 A 
ATOM     30  C   UNL     1       1.558 -11.604  -0.080  0.00  0.00    +0.020 A 
ATOM     31  C   UNL     1       2.646 -10.754  -0.092  0.00  0.00    +0.048 A 
ATOM     32 CL   UNL     1       4.257 -11.401  -0.118  0.00  0.00    -0.083 Cl
ENDBRANCH  25  26
ENDBRANCH  21  24
ENDBRANCH  18  20
ENDBRANCH   1  18
TORSDOF 9
