REMARK  Name = ZINC00934339
REMARK  6 active torsions:
REMARK  status: ('A' for Active; 'I' for Inactive)
REMARK    1  A    between atoms: C_1  and  C_2
REMARK    2  A    between atoms: C_3  and  N_15
REMARK    3  A    between atoms: N_6  and  C_9
REMARK    4  A    between atoms: N_7  and  C_8
REMARK    5  A    between atoms: N_15  and  C_16
REMARK    6  A    between atoms: N_20  and  C_23
REMARK                            x       y       z     vdW  Elec       q    Type
REMARK                         _______ _______ _______ _____ _____    ______ ____
ROOT
ATOM      1  N   UNL     1       0.402  -0.286  -2.395  0.00  0.00    -0.304 N 
ATOM      2  H   UNL     1       0.837   0.579  -2.449  0.00  0.00    +0.153 HD
ENDROOT
BRANCH   1   5
ATOM      3  C   UNL     1      -1.097   0.754   0.072  0.00  0.00    +0.067 C 
ATOM      4  C   UNL     1      -0.324  -0.533  -0.056  0.00  0.00    +0.059 A 
ATOM      5  C   UNL     1       0.326  -0.958  -1.165  0.00  0.00    +0.119 A 
ATOM      6  C   UNL     1       0.936  -2.250  -0.841  0.00  0.00    +0.293 A 
ATOM      7  O   UNL     1       1.603  -2.943  -1.586  0.00  0.00    -0.264 OA
ATOM      8  N   UNL     1       0.616  -2.524   0.441  0.00  0.00    -0.216 N 
ATOM      9  N   UNL     1      -0.157  -1.466   0.933  0.00  0.00    -0.282 N 
ATOM     10  C   UNL     1      -0.702  -1.373   2.289  0.00  0.00    +0.171 C 
BRANCH   8  11
ATOM     11  C   UNL     1       0.996  -3.665   1.155  0.00  0.00    +0.067 A 
ATOM     12  C   UNL     1       0.048  -4.385   1.870  0.00  0.00    +0.028 A 
ATOM     13  C   UNL     1       0.426  -5.511   2.575  0.00  0.00    +0.002 A 
ATOM     14  C   UNL     1       1.746  -5.922   2.569  0.00  0.00    +0.000 A 
ATOM     15  C   UNL     1       2.692  -5.207   1.858  0.00  0.00    +0.002 A 
ATOM     16  C   UNL     1       2.320  -4.083   1.146  0.00  0.00    +0.028 A 
ENDBRANCH   8  11
ENDBRANCH   1   5
BRANCH   1  17
ATOM     17  C   UNL     1      -0.141  -0.855  -3.524  0.00  0.00    +0.119 C 
ATOM     18  C   UNL     1      -0.885  -1.993  -3.587  0.00  0.00    +0.130 C 
ATOM     19  C   UNL     1      -1.234  -2.192  -4.995  0.00  0.00    +0.271 C 
ATOM     20  O   UNL     1      -1.896  -3.112  -5.436  0.00  0.00    -0.268 OA
ATOM     21  N   UNL     1      -0.703  -1.193  -5.721  0.00  0.00    -0.199 N 
ATOM     22  C   UNL     1      -0.038  -0.345  -4.916  0.00  0.00    +0.273 C 
ATOM     23  O   UNL     1       0.547   0.659  -5.266  0.00  0.00    -0.268 OA
ATOM     24 CL   UNL     1      -1.333  -3.012  -2.255  0.00  0.00    -0.076 Cl
BRANCH  21  25
ATOM     25  C   UNL     1      -0.830  -1.052  -7.110  0.00  0.00    +0.063 A 
ATOM     26  C   UNL     1      -1.890  -0.331  -7.643  0.00  0.00    +0.025 A 
ATOM     27  C   UNL     1      -2.012  -0.194  -9.011  0.00  0.00    +0.002 A 
ATOM     28  C   UNL     1      -1.080  -0.773  -9.852  0.00  0.00    +0.002 A 
ATOM     29  C   UNL     1      -0.022  -1.492  -9.326  0.00  0.00    +0.022 A 
ATOM     30  C   UNL     1       0.109  -1.628  -7.957  0.00  0.00    +0.063 A 
ATOM     31 CL   UNL     1       1.441  -2.524  -7.296  0.00  0.00    -0.082 Cl
ENDBRANCH  21  25
ENDBRANCH   1  17
TORSDOF 4
