REMARK  Name = ZINC06077608
REMARK  11 active torsions:
REMARK  status: ('A' for Active; 'I' for Inactive)
REMARK    1  A    between atoms: C_1  and  C_2
REMARK    2  A    between atoms: C_2  and  C_3
REMARK    3  A    between atoms: C_3  and  C_4
REMARK    4  A    between atoms: C_3  and  C_5
REMARK    5  A    between atoms: C_3  and  N_6
REMARK    6  A    between atoms: C_7  and  C_11
REMARK    7  A    between atoms: C_11  and  C_13
REMARK    8  A    between atoms: C_11  and  N_71
REMARK    9  A    between atoms: C_18  and  C_26
REMARK   10  A    between atoms: C_19  and  C_25
REMARK   11  A    between atoms: N_29  and  C_32
REMARK                            x       y       z     vdW  Elec       q    Type
REMARK                         _______ _______ _______ _____ _____    ______ ____
ROOT
ATOM      1  C   UNL     1       0.198   0.918  -0.118  0.00  0.00    +0.039 C 
ENDROOT
BRANCH   1   2
ATOM      2  C   UNL     1       1.530   1.542  -0.447  0.00  0.00    +0.011 A 
ATOM      3  C   UNL     1       2.611   0.753  -0.662  0.00  0.00    +0.017 A 
ATOM      4  C   UNL     1       3.889   1.391  -0.983  0.00  0.00    -0.001 A 
ATOM      5  C   UNL     1       5.039   0.630  -1.219  0.00  0.00    +0.010 A 
ATOM      6  C   UNL     1       6.217   1.256  -1.511  0.00  0.00    +0.004 A 
ATOM      7  C   UNL     1       6.285   2.641  -1.575  0.00  0.00    -0.046 A 
ATOM      8  C   UNL     1       5.165   3.411  -1.347  0.00  0.00    -0.024 A 
ATOM      9  C   UNL     1       3.954   2.796  -1.047  0.00  0.00    +0.052 A 
ATOM     10  N   UNL     1       2.818   3.542  -0.813  0.00  0.00    -0.322 N 
ATOM     11  H   UNL     1       2.865   4.539  -0.860  0.00  0.00    +0.169 HD
ATOM     12  C   UNL     1       1.647   2.947  -0.523  0.00  0.00    +0.251 A 
ATOM     13  O   UNL     1       0.664   3.638  -0.323  0.00  0.00    -0.268 OA
ATOM     14  C   UNL     1       5.252   4.914  -1.420  0.00  0.00    +0.046 C 
ATOM     15  C   UNL     1       7.596   3.310  -1.898  0.00  0.00    +0.044 C 
ENDBRANCH   1   2
BRANCH   1  21
ATOM     16  C   UNL     1       0.620   1.215   2.248  0.00  0.00    -0.058 C 
ATOM     17  C   UNL     1       0.096   1.883   3.521  0.00  0.00    +0.086 C 
ATOM     18  N   UNL     1      -1.245   1.364   3.827  0.00  0.00    -0.333 N 
ATOM     19  C   UNL     1      -2.174   1.628   2.720  0.00  0.00    +0.086 C 
ATOM     20  C   UNL     1      -1.650   0.961   1.446  0.00  0.00    -0.058 C 
ATOM     21  N   UNL     1      -0.312   1.507   1.138  0.00  0.00    +0.391 N 
ATOM     22  H   UNL     1      -0.385   2.525   1.023  0.00  0.00    -0.080 HD
BRANCH  18  23
ATOM     23  C   UNL     1      -1.728   1.898   5.025  0.00  0.00    +0.030 A 
ATOM     24  C   UNL     1      -2.939   2.578   5.045  0.00  0.00    +0.026 A 
ATOM     25  C   UNL     1      -3.417   3.101   6.231  0.00  0.00    +0.040 A 
ATOM     26  C   UNL     1      -2.683   2.958   7.397  0.00  0.00    +0.124 A 
ATOM     27  C   UNL     1      -1.473   2.285   7.378  0.00  0.00    +0.040 A 
ATOM     28  C   UNL     1      -0.994   1.756   6.196  0.00  0.00    +0.026 A 
ATOM     29  F   UNL     1      -3.150   3.474   8.555  0.00  0.00    -0.205 F 
ENDBRANCH  18  23
ENDBRANCH   1  21
BRANCH   1  31
ATOM     30  N   UNL     1      -1.290   0.320  -2.102  0.00  0.00    -0.225 N 
ATOM     31  C   UNL     1      -0.780   1.207  -1.228  0.00  0.00    +0.143 A 
ATOM     32  N   UNL     1      -1.304   2.371  -1.526  0.00  0.00    -0.115 NA
ATOM     33  N   UNL     1      -2.088   2.209  -2.535  0.00  0.00    -0.023 NA
ATOM     34  N   UNL     1      -2.084   0.970  -2.884  0.00  0.00    -0.043 NA
BRANCH  30  35
ATOM     35  C   UNL     1      -0.997  -1.115  -2.156  0.00  0.00    +0.061 C 
ATOM     36  C   UNL     1       0.510  -1.322  -2.321  0.00  0.00    +0.036 C 
ATOM     37  C   UNL     1      -1.464  -1.780  -0.859  0.00  0.00    +0.036 C 
BRANCH  35  39
ATOM     38  C   UNL     1      -1.426  -3.239  -3.399  0.00  0.00    +0.006 C 
ATOM     39  C   UNL     1      -1.731  -1.741  -3.343  0.00  0.00    +0.026 C 
ENDBRANCH  35  39
ENDBRANCH  30  35
ENDBRANCH   1  31
TORSDOF 6
