REMARK  Name = ZINC38664420
REMARK  9 active torsions:
REMARK  status: ('A' for Active; 'I' for Inactive)
REMARK    1  A    between atoms: C_1  and  C_2
REMARK    2  A    between atoms: C_4  and  C_10
REMARK    3  A    between atoms: C_5  and  C_9
REMARK    4  A    between atoms: N_7  and  C_8
REMARK    5  A    between atoms: C_10  and  O_12
REMARK    6  A    between atoms: O_12  and  C_13
REMARK    7  A    between atoms: C_13  and  C_14
REMARK    8  A    between atoms: C_14  and  C_16
REMARK    9  A    between atoms: C_24  and  C_26
REMARK                            x       y       z     vdW  Elec       q    Type
REMARK                         _______ _______ _______ _____ _____    ______ ____
ROOT
ATOM      1  C   UNL     1      -2.685   1.742  -5.725  0.00  0.00    +0.034 C 
ATOM      2  C   UNL     1      -2.140   1.355  -6.936  0.00  0.00    +0.007 A 
ATOM      3  C   UNL     1      -1.006   0.581  -7.277  0.00  0.00    +0.010 A 
ATOM      4  C   UNL     1      -0.700   0.356  -8.575  0.00  0.00    +0.001 A 
ATOM      5  C   UNL     1      -1.472   0.866  -9.631  0.00  0.00    +0.002 A 
ATOM      6  C   UNL     1      -2.573   1.617  -9.413  0.00  0.00    +0.026 A 
ATOM      7  C   UNL     1      -2.978   1.909  -8.028  0.00  0.00    +0.044 A 
ATOM      8  N   UNL     1      -3.973   2.591  -7.538  0.00  0.00    -0.373 N 
ATOM      9  C   UNL     1      -3.909   2.560  -6.074  0.00  0.00    +0.144 C 
ATOM     10  H   UNL     1      -4.652   3.046  -8.060  0.00  0.00    +0.161 HD
ENDROOT
BRANCH   9  11
ATOM     11  C   UNL     1      -3.767   3.960  -5.534  0.00  0.00    -0.021 A 
ATOM     12  C   UNL     1      -3.008   4.891  -6.218  0.00  0.00    +0.006 A 
ATOM     13  C   UNL     1      -2.878   6.175  -5.723  0.00  0.00    +0.000 A 
ATOM     14  C   UNL     1      -3.508   6.528  -4.543  0.00  0.00    +0.000 A 
ATOM     15  C   UNL     1      -4.267   5.597  -3.860  0.00  0.00    +0.000 A 
ATOM     16  C   UNL     1      -4.401   4.314  -4.357  0.00  0.00    +0.006 A 
ENDBRANCH   9  11
BRANCH   1  17
ATOM     17  C   UNL     1      -2.204   1.432  -4.435  0.00  0.00    +0.199 C 
ATOM     18  O   UNL     1      -2.793   1.838  -3.454  0.00  0.00    -0.289 OA
BRANCH  17  19
ATOM     19  C   UNL     1      -0.960   0.597  -4.275  0.00  0.00    +0.311 C 
BRANCH  19  20
ATOM     20  O   UNL     1      -0.679   0.423  -2.885  0.00  0.00    -0.453 OA
BRANCH  20  21
ATOM     21  C   UNL     1       0.411  -0.306  -2.566  0.00  0.00    +0.339 C 
ATOM     22  O   UNL     1       1.104  -0.781  -3.447  0.00  0.00    -0.245 OA
BRANCH  21  25
ATOM     23  C   UNL     1      -0.019   1.526   0.010  0.00  0.00    +0.031 C 
ATOM     24  C   UNL     1       0.002  -0.004   0.002  0.00  0.00    +0.111 C 
ATOM     25  C   UNL     1       0.748  -0.518  -1.212  0.00  0.00    +0.072 C 
ATOM     26  C   UNL     1       1.799  -1.220  -0.739  0.00  0.00    +0.027 C 
ATOM     27  N   UNL     1       1.824  -1.224   0.618  0.00  0.00    -0.281 N 
ATOM     28  N   UNL     1       0.780  -0.517   1.147  0.00  0.00    -0.225 NA
ATOM     29  C   UNL     1       1.262   0.583   1.992  0.00  0.00    +0.128 C 
ATOM     30  C   UNL     1       2.816  -1.914  -1.608  0.00  0.00    +0.062 C 
ATOM     31  H   UNL     1       2.501  -1.673   1.148  0.00  0.00    +0.166 HD
ENDBRANCH  21  25
ENDBRANCH  20  21
ENDBRANCH  19  20
ENDBRANCH  17  19
ENDBRANCH   1  17
TORSDOF 6
