REMARK  Name = ZINC52733899
REMARK  3 active torsions:
REMARK  status: ('A' for Active; 'I' for Inactive)
REMARK    1  A    between atoms: N_9  and  C_13
REMARK    2  A    between atoms: C_13  and  C_14
REMARK    3  A    between atoms: C_19  and  N_20
REMARK                            x       y       z     vdW  Elec       q    Type
REMARK                         _______ _______ _______ _____ _____    ______ ____
ROOT
ATOM      1  C   UNL     1      -0.017   1.375   0.010  0.00  0.00    +0.002 A 
ATOM      2  C   UNL     1       1.164   2.096   0.002  0.00  0.00    +0.002 A 
ATOM      3  C   UNL     1       2.381   1.433  -0.013  0.00  0.00    +0.031 A 
ATOM      4  C   UNL     1       2.407   0.063  -0.021  0.00  0.00    +0.134 A 
ATOM      5  C   UNL     1       1.223  -0.684  -0.013  0.00  0.00    +0.092 A 
ATOM      6  C   UNL     1       0.002  -0.004   0.002  0.00  0.00    +0.030 A 
ATOM      7  N   UNL     1       1.257  -2.046  -0.018  0.00  0.00    -0.237 NA
ATOM      8  C   UNL     1       2.264  -2.801   0.244  0.00  0.00    +0.206 C 
ATOM      9  N   UNL     1       3.509  -2.328   0.577  0.00  0.00    -0.188 N 
ATOM     10  S   UNL     1       3.931  -0.834  -0.042  0.00  0.00    +0.078 S 
ATOM     11  O   UNL     1       4.795  -0.217   0.902  0.00  0.00    -0.150 OA
ATOM     12  O   UNL     1       4.286  -1.029  -1.405  0.00  0.00    -0.150 OA
ENDROOT
BRANCH   9  13
ATOM     13  C   UNL     1       4.420  -3.092   1.433  0.00  0.00    +0.171 C 
BRANCH  13  14
ATOM     14  C   UNL     1       5.194  -4.074   0.591  0.00  0.00    +0.011 A 
ATOM     15  C   UNL     1       4.813  -5.403   0.535  0.00  0.00    +0.010 A 
ATOM     16  C   UNL     1       5.555  -6.272  -0.254  0.00  0.00    +0.020 A 
ATOM     17  C   UNL     1       6.643  -5.790  -0.953  0.00  0.00    +0.113 A 
ATOM     18  N   UNL     1       6.984  -4.517  -0.880  0.00  0.00    -0.240 NA
ATOM     19  C   UNL     1       6.298  -3.656  -0.145  0.00  0.00    +0.121 A 
BRANCH  19  20
ATOM     20  N   UNL     1       6.689  -2.322  -0.102  0.00  0.00    -0.343 N 
ATOM     21  H   UNL     1       6.192  -1.688   0.439  0.00  0.00    +0.144 HD
ATOM     22  H   UNL     1       7.458  -2.026  -0.613  0.00  0.00    +0.144 HD
ENDBRANCH  19  20
ENDBRANCH  13  14
ENDBRANCH   9  13
TORSDOF 3
