REMARK  Name = ZINC19581971
REMARK  4 active torsions:
REMARK  status: ('A' for Active; 'I' for Inactive)
REMARK    1  A    between atoms: C_1  and  C_2
REMARK    2  A    between atoms: C_3  and  C_20
REMARK    3  A    between atoms: C_6  and  C_12
REMARK    4  A    between atoms: N_17  and  C_19
REMARK                            x       y       z     vdW  Elec       q    Type
REMARK                         _______ _______ _______ _____ _____    ______ ____
ROOT
ATOM      1  C   UNL     1      -0.018   1.503   0.010  0.00  0.00    +0.068 C 
ATOM      2  C   UNL     1       0.002  -0.004   0.002  0.00  0.00    +0.070 A 
ATOM      3  C   UNL     1       0.008  -0.819  -1.145  0.00  0.00    +0.047 A 
ATOM      4  C   UNL     1       0.028  -2.135  -0.714  0.00  0.00    +0.146 A 
ATOM      5  N   UNL     1       0.042  -3.335  -1.391  0.00  0.00    -0.342 N 
ATOM      6  C   UNL     1       0.062  -4.510  -0.701  0.00  0.00    +0.028 A 
ATOM      7  C   UNL     1       0.068  -4.497   0.652  0.00  0.00    +0.093 A 
ATOM      8  C   UNL     1       0.054  -3.268   1.342  0.00  0.00    +0.275 A 
ATOM      9  N   UNL     1       0.034  -2.111   0.650  0.00  0.00    -0.179 N 
ATOM     10  N   UNL     1       0.023  -0.773   1.059  0.00  0.00    -0.166 NA
ATOM     11  O   UNL     1       0.059  -3.251   2.560  0.00  0.00    -0.266 OA
ATOM     12  H   UNL     1       0.037  -3.344  -2.361  0.00  0.00    +0.167 HD
ENDROOT
BRANCH   6  13
ATOM     13  C   UNL     1       0.077  -5.821  -1.443  0.00  0.00    +0.062 C 
ATOM     14  C   UNL     1      -1.117  -5.917  -2.421  0.00  0.00    +0.107 C 
ATOM     15  C   UNL     1      -0.553  -6.636  -3.627  0.00  0.00    +0.216 C 
ATOM     16  O   UNL     1      -1.216  -7.156  -4.498  0.00  0.00    -0.276 OA
ATOM     17  N   UNL     1       0.791  -6.614  -3.591  0.00  0.00    -0.304 N 
ATOM     18  C   UNL     1       1.282  -5.897  -2.407  0.00  0.00    +0.117 C 
ATOM     19  C   UNL     1       1.655  -7.228  -4.602  0.00  0.00    +0.132 C 
ENDBRANCH   6  13
BRANCH   3  20
ATOM     20  C   UNL     1      -0.006  -0.355  -2.553  0.00  0.00    -0.013 A 
ATOM     21  C   UNL     1      -1.101  -0.630  -3.369  0.00  0.00    +0.010 A 
ATOM     22  C   UNL     1      -1.109  -0.196  -4.679  0.00  0.00    +0.020 A 
ATOM     23  C   UNL     1      -0.031   0.512  -5.183  0.00  0.00    +0.041 A 
ATOM     24  C   UNL     1       1.060   0.788  -4.376  0.00  0.00    +0.020 A 
ATOM     25  C   UNL     1       1.075   0.363  -3.063  0.00  0.00    +0.010 A 
ATOM     26 CL   UNL     1      -0.046   1.055  -6.832  0.00  0.00    -0.084 Cl
ENDBRANCH   3  20
TORSDOF 2
