REMARK  Name = ZINC20885272
REMARK  6 active torsions:
REMARK  status: ('A' for Active; 'I' for Inactive)
REMARK    1  A    between atoms: C_1  and  C_2
REMARK    2  A    between atoms: C_3  and  C_14
REMARK    3  A    between atoms: N_5  and  C_7
REMARK    4  A    between atoms: N_15  and  N_16
REMARK    5  A    between atoms: C_17  and  C_19
REMARK    6  A    between atoms: C_21  and  N_27
REMARK                            x       y       z     vdW  Elec       q    Type
REMARK                         _______ _______ _______ _____ _____    ______ ____
ROOT
ATOM      1  N   UNL     1       1.143   1.901   0.001  0.00  0.00    -0.202 N 
ATOM      2  C   UNL     1      -0.014   1.212   0.009  0.00  0.00    +0.283 C 
ATOM      3  O   UNL     1       0.002  -0.004   0.002  0.00  0.00    -0.267 OA
ATOM      4  H   UNL     1       1.129   3.001   0.007  0.00  0.00    +0.178 HD
ENDROOT
BRANCH   2   5
ATOM      5  C   UNL     1      -1.306   1.934   0.019  0.00  0.00    +0.149 A 
ATOM      6  C   UNL     1      -2.498   1.215   0.015  0.00  0.00    +0.094 A 
ATOM      7  C   UNL     1      -3.707   1.911   0.030  0.00  0.00    +0.067 A 
ATOM      8  C   UNL     1      -3.668   3.305   0.037  0.00  0.00    +0.100 A 
ATOM      9  C   UNL     1      -2.441   3.949   0.035  0.00  0.00    +0.150 A 
ATOM     10  N   UNL     1      -1.317   3.263   0.026  0.00  0.00    -0.228 NA
ATOM     11 CL   UNL     1      -2.386   5.684   0.044  0.00  0.00    -0.060 Cl
ATOM     12 CL   UNL     1      -5.141   4.223   0.048  0.00  0.00    -0.078 Cl
ATOM     13 CL   UNL     1      -2.481  -0.521  -0.001  0.00  0.00    -0.079 Cl
BRANCH   7  14
ATOM     14  N   UNL     1      -4.923   1.231   0.031  0.00  0.00    -0.356 N 
ATOM     15  H   UNL     1      -5.868   1.793   0.043  0.00  0.00    +0.142 HD
ATOM     16  H   UNL     1      -4.938   0.131   0.021  0.00  0.00    +0.142 HD
ENDBRANCH   7  14
ENDBRANCH   2   5
BRANCH   1  18
ATOM     17  C   UNL     1       3.481   1.882  -0.021  0.00  0.00    +0.143 C 
ATOM     18  N   UNL     1       2.366   1.218  -0.014  0.00  0.00    -0.187 NA
BRANCH  17  21
ATOM     19  C   UNL     1       6.355   3.222  -0.054  0.00  0.00    +0.068 C 
ATOM     20  C   UNL     1       6.054   1.745  -0.052  0.00  0.00    +0.070 A 
ATOM     21  C   UNL     1       4.768   1.162  -0.037  0.00  0.00    +0.054 A 
ATOM     22  C   UNL     1       4.940  -0.208  -0.047  0.00  0.00    +0.142 A 
ATOM     23  N   UNL     1       6.270  -0.446  -0.061  0.00  0.00    -0.221 N 
ATOM     24  N   UNL     1       6.938   0.784  -0.060  0.00  0.00    -0.170 NA
ATOM     25 CL   UNL     1       3.681  -1.403  -0.041  0.00  0.00    -0.061 Cl
BRANCH  23  26
ATOM     26  C   UNL     1       6.877  -1.709  -0.074  0.00  0.00    +0.067 A 
ATOM     27  C   UNL     1       6.300  -2.765   0.620  0.00  0.00    +0.028 A 
ATOM     28  C   UNL     1       6.898  -4.010   0.600  0.00  0.00    +0.002 A 
ATOM     29  C   UNL     1       8.075  -4.203  -0.100  0.00  0.00    +0.000 A 
ATOM     30  C   UNL     1       8.654  -3.152  -0.787  0.00  0.00    +0.002 A 
ATOM     31  C   UNL     1       8.058  -1.906  -0.776  0.00  0.00    +0.028 A 
ENDBRANCH  23  26
ENDBRANCH  17  21
ENDBRANCH   1  18
TORSDOF 5
