REMARK  Name = ZINC39838551
REMARK  5 active torsions:
REMARK  status: ('A' for Active; 'I' for Inactive)
REMARK    1  A    between atoms: C_1  and  C_2
REMARK    2  A    between atoms: C_2  and  C_3
REMARK    3  A    between atoms: C_3  and  C_4
REMARK    4  A    between atoms: C_10  and  C_26
REMARK    5  A    between atoms: C_30  and  O_32
REMARK                            x       y       z     vdW  Elec       q    Type
REMARK                         _______ _______ _______ _____ _____    ______ ____
ROOT
ATOM      1  C   UNL     1       0.739  -2.004  -1.265  0.00  0.00    +0.104 A 
ATOM      2  N   UNL     1      -0.127  -2.861  -1.772  0.00  0.00    -0.145 NA
ATOM      3  N   UNL     1       0.039  -4.109  -1.693  0.00  0.00    -0.125 NA
ATOM      4  C   UNL     1       1.098  -4.637  -1.094  0.00  0.00    +0.191 A 
ATOM      5  S   UNL     1       1.949  -3.142  -0.597  0.00  0.00    -0.035 S 
ATOM      6  N   UNL     1       1.449  -5.968  -0.911  0.00  0.00    -0.230 N 
ATOM      7  C   UNL     1       0.681  -7.136  -1.373  0.00  0.00    +0.152 C 
ATOM      8  C   UNL     1       1.461  -8.334  -0.937  0.00  0.00    +0.072 A 
ATOM      9  C   UNL     1       1.200  -9.767  -1.097  0.00  0.00    +0.199 A 
ATOM     10  O   UNL     1       0.315 -10.209  -1.809  0.00  0.00    -0.287 OA
ATOM     11  C   UNL     1       2.115 -10.630  -0.309  0.00  0.00    +0.065 A 
ATOM     12  C   UNL     1       1.873 -11.999  -0.197  0.00  0.00    +0.030 A 
ATOM     13  C   UNL     1       2.731 -12.784   0.543  0.00  0.00    +0.019 A 
ATOM     14  C   UNL     1       3.829 -12.212   1.173  0.00  0.00    +0.019 A 
ATOM     15  C   UNL     1       4.077 -10.862   1.069  0.00  0.00    +0.048 A 
ATOM     16  C   UNL     1       3.226 -10.047   0.323  0.00  0.00    +0.140 A 
ATOM     17  O   UNL     1       3.500  -8.726   0.228  0.00  0.00    -0.450 OA
ATOM     18  C   UNL     1       2.578  -7.889  -0.287  0.00  0.00    +0.199 A 
ATOM     19  C   UNL     1       2.555  -6.417  -0.284  0.00  0.00    +0.289 C 
ATOM     20  O   UNL     1       3.408  -5.709   0.214  0.00  0.00    -0.266 OA
ATOM     21 BR   UNL     1       2.413 -14.641   0.702  0.00  0.00    -0.050 Br
ENDROOT
BRANCH   7  22
ATOM     22  C   UNL     1      -0.686  -7.144  -0.739  0.00  0.00    -0.019 A 
ATOM     23  C   UNL     1      -0.838  -6.753   0.578  0.00  0.00    +0.006 A 
ATOM     24  C   UNL     1      -2.091  -6.760   1.163  0.00  0.00    +0.004 A 
ATOM     25  C   UNL     1      -3.194  -7.157   0.432  0.00  0.00    +0.045 A 
ATOM     26  C   UNL     1      -3.043  -7.550  -0.890  0.00  0.00    +0.117 A 
ATOM     27  C   UNL     1      -1.786  -7.537  -1.476  0.00  0.00    +0.051 A 
BRANCH  26  28
ATOM     28  O   UNL     1      -4.127  -7.942  -1.611  0.00  0.00    -0.507 OA
ATOM     29  H   UNL     1      -4.567  -7.221  -2.082  0.00  0.00    +0.292 HD
ENDBRANCH  26  28
ENDBRANCH   7  22
BRANCH   1  30
ATOM     30  C   UNL     1       0.718  -0.497  -1.257  0.00  0.00    +0.064 C 
BRANCH  30  32
ATOM     31  C   UNL     1      -0.019   1.526   0.010  0.00  0.00    +0.004 C 
ATOM     32  C   UNL     1       0.002  -0.004   0.002  0.00  0.00    +0.003 C 
ENDBRANCH  30  32
ENDBRANCH   1  30
TORSDOF 4
