REMARK  Name = ZINC00671448
REMARK  9 active torsions:
REMARK  status: ('A' for Active; 'I' for Inactive)
REMARK    1  A    between atoms: C_1  and  C_2
REMARK    2  A    between atoms: C_5  and  S_8
REMARK    3  A    between atoms: S_8  and  N_11
REMARK    4  A    between atoms: N_11  and  C_12
REMARK    5  A    between atoms: C_17  and  C_18
REMARK    6  A    between atoms: C_23  and  N_24
REMARK    7  A    between atoms: N_24  and  S_25
REMARK    8  A    between atoms: S_25  and  C_28
REMARK    9  A    between atoms: C_31  and  C_34
REMARK                            x       y       z     vdW  Elec       q    Type
REMARK                         _______ _______ _______ _____ _____    ______ ____
ROOT
ATOM      1  C   UNL     1       4.171  -2.838   1.525  0.00  0.00    +0.056 A 
ATOM      2  C   UNL     1       3.534  -2.536   2.721  0.00  0.00    +0.025 A 
ATOM      3  C   UNL     1       2.665  -3.446   3.291  0.00  0.00    +0.002 A 
ATOM      4  C   UNL     1       2.423  -4.661   2.675  0.00  0.00    +0.001 A 
ATOM      5  C   UNL     1       3.049  -4.976   1.485  0.00  0.00    +0.010 A 
ATOM      6  C   UNL     1       3.923  -4.065   0.898  0.00  0.00    +0.006 A 
ENDROOT
BRANCH   6   7
ATOM      7  C   UNL     1       4.593  -4.395  -0.383  0.00  0.00    +0.006 A 
ATOM      8  C   UNL     1       5.542  -5.414  -0.434  0.00  0.00    +0.010 A 
ATOM      9  C   UNL     1       6.163  -5.718  -1.629  0.00  0.00    +0.001 A 
ATOM     10  C   UNL     1       5.848  -5.013  -2.778  0.00  0.00    +0.002 A 
ATOM     11  C   UNL     1       4.909  -4.000  -2.740  0.00  0.00    +0.025 A 
ATOM     12  C   UNL     1       4.272  -3.688  -1.548  0.00  0.00    +0.056 A 
BRANCH  12  13
ATOM     13  N   UNL     1       3.319  -2.669  -1.508  0.00  0.00    -0.216 N 
ATOM     14  H   UNL     1       3.246  -2.103  -0.724  0.00  0.00    +0.174 HD
BRANCH  13  15
ATOM     15  S   UNL     1       2.312  -2.427  -2.800  0.00  0.00    +0.072 S 
ATOM     16  O   UNL     1       1.385  -1.424  -2.410  0.00  0.00    -0.150 OA
ATOM     17  O   UNL     1       3.145  -2.291  -3.944  0.00  0.00    -0.150 OA
BRANCH  15  18
ATOM     18  C   UNL     1       1.386  -3.909  -3.025  0.00  0.00    +0.109 A 
ATOM     19  C   UNL     1       1.913  -4.947  -3.769  0.00  0.00    +0.029 A 
ATOM     20  C   UNL     1       1.187  -6.110  -3.945  0.00  0.00    +0.005 A 
ATOM     21  C   UNL     1      -0.067  -6.235  -3.376  0.00  0.00    -0.050 A 
ATOM     22  C   UNL     1      -0.594  -5.197  -2.631  0.00  0.00    +0.005 A 
ATOM     23  C   UNL     1       0.135  -4.035  -2.452  0.00  0.00    +0.029 A 
ATOM     24  C   UNL     1      -0.859  -7.502  -3.569  0.00  0.00    +0.044 C 
ENDBRANCH  15  18
ENDBRANCH  13  15
ENDBRANCH  12  13
ENDBRANCH   6   7
BRANCH   1  25
ATOM     25  N   UNL     1       5.050  -1.921   0.948  0.00  0.00    -0.216 N 
ATOM     26  H   UNL     1       5.098  -1.836  -0.017  0.00  0.00    +0.174 HD
BRANCH  25  27
ATOM     27  S   UNL     1       6.012  -0.977   1.911  0.00  0.00    +0.072 S 
ATOM     28  O   UNL     1       5.149  -0.328   2.835  0.00  0.00    -0.150 OA
ATOM     29  O   UNL     1       6.877  -0.259   1.042  0.00  0.00    -0.150 OA
BRANCH  27  34
ATOM     30  C   UNL     1       9.505  -4.692   5.136  0.00  0.00    +0.044 C 
ATOM     31  C   UNL     1       8.633  -3.765   4.330  0.00  0.00    -0.050 A 
ATOM     32  C   UNL     1       9.012  -3.393   3.054  0.00  0.00    +0.005 A 
ATOM     33  C   UNL     1       8.211  -2.542   2.315  0.00  0.00    +0.029 A 
ATOM     34  C   UNL     1       7.032  -2.063   2.852  0.00  0.00    +0.109 A 
ATOM     35  C   UNL     1       6.652  -2.435   4.128  0.00  0.00    +0.029 A 
ATOM     36  C   UNL     1       7.450  -3.289   4.866  0.00  0.00    +0.005 A 
ENDBRANCH  27  34
ENDBRANCH  25  27
ENDBRANCH   1  25
TORSDOF 7
