REMARK  Name = ZINC02647880
REMARK  8 active torsions:
REMARK  status: ('A' for Active; 'I' for Inactive)
REMARK    1  A    between atoms: C_1  and  O_2
REMARK    2  A    between atoms: O_2  and  C_3
REMARK    3  A    between atoms: C_5  and  C_13
REMARK    4  A    between atoms: C_7  and  O_11
REMARK    5  A    between atoms: C_8  and  O_9
REMARK    6  A    between atoms: O_9  and  C_10
REMARK    7  A    between atoms: O_11  and  C_12
REMARK    8  A    between atoms: C_25  and  C_28
REMARK                            x       y       z     vdW  Elec       q    Type
REMARK                         _______ _______ _______ _____ _____    ______ ____
ROOT
ATOM      1  C   UNL     1      -1.306  -0.779  -0.050  0.00  0.00    +0.007 C 
ATOM      2  C   UNL     1      -1.520  -1.340   1.336  0.00  0.00    +0.011 A 
ATOM      3  C   UNL     1      -1.950  -2.603   1.562  0.00  0.00    -0.015 A 
ATOM      4  C   UNL     1      -2.030  -2.776   2.995  0.00  0.00    +0.004 A 
ATOM      5  C   UNL     1      -2.406  -3.854   3.804  0.00  0.00    +0.010 A 
ATOM      6  C   UNL     1      -2.362  -3.657   5.162  0.00  0.00    +0.001 A 
ATOM      7  C   UNL     1      -1.966  -2.452   5.719  0.00  0.00    +0.002 A 
ATOM      8  C   UNL     1      -1.590  -1.369   4.943  0.00  0.00    +0.026 A 
ATOM      9  C   UNL     1      -1.624  -1.540   3.561  0.00  0.00    +0.047 A 
ATOM     10  N   UNL     1      -1.324  -0.698   2.528  0.00  0.00    -0.359 N 
ATOM     11  H   UNL     1      -1.018   0.218   2.625  0.00  0.00    +0.166 HD
ATOM     12  C   UNL     1      -2.266  -3.583   0.461  0.00  0.00    +0.036 C 
ATOM     13  C   UNL     1      -2.399  -2.797  -0.851  0.00  0.00    -0.068 C 
ATOM     14  N   UNL     1      -1.234  -1.902  -1.011  0.00  0.00    +0.388 N 
ATOM     15  H   UNL     1      -0.373  -2.435  -0.844  0.00  0.00    -0.084 HD
ATOM     16  H   UNL     1      -1.224  -1.528  -1.967  0.00  0.00    -0.084 HD
ENDROOT
BRANCH  12  17
ATOM     17  C   UNL     1      -1.151  -4.590   0.340  0.00  0.00    -0.023 A 
ATOM     18  C   UNL     1       0.153  -4.162   0.177  0.00  0.00    +0.007 A 
ATOM     19  C   UNL     1       1.175  -5.085   0.066  0.00  0.00    +0.020 A 
ATOM     20  C   UNL     1       0.894  -6.439   0.119  0.00  0.00    +0.042 A 
ATOM     21  C   UNL     1      -0.410  -6.868   0.282  0.00  0.00    +0.040 A 
ATOM     22  C   UNL     1      -1.433  -5.943   0.398  0.00  0.00    +0.046 A 
ATOM     23 CL   UNL     1      -3.070  -6.481   0.609  0.00  0.00    -0.083 Cl
ATOM     24 CL   UNL     1       2.179  -7.598  -0.021  0.00  0.00    -0.083 Cl
ENDBRANCH  12  17
BRANCH   1  27
ATOM     25  C   UNL     1       1.172   2.071   0.085  0.00  0.00    +0.165 A 
ATOM     26  C   UNL     1      -0.017   1.358   0.121  0.00  0.00    +0.052 A 
ATOM     27  C   UNL     1      -0.012  -0.008  -0.090  0.00  0.00    -0.049 A 
ATOM     28  C   UNL     1       1.177  -0.669  -0.337  0.00  0.00    +0.052 A 
ATOM     29  C   UNL     1       2.370   0.037  -0.375  0.00  0.00    +0.165 A 
ATOM     30  C   UNL     1       2.369   1.410  -0.164  0.00  0.00    +0.204 A 
BRANCH  25  32
ATOM     31  C   UNL     1      -0.100   4.027   0.542  0.00  0.00    +0.277 C 
ATOM     32  O   UNL     1       1.166   3.415   0.293  0.00  0.00    -0.491 OA
ENDBRANCH  25  32
BRANCH  30  33
ATOM     33  O   UNL     1       3.538   2.107  -0.201  0.00  0.00    -0.488 OA
ATOM     34  C   UNL     1       3.941   2.631  -1.468  0.00  0.00    +0.277 C 
ENDBRANCH  30  33
BRANCH  29  35
ATOM     35  O   UNL     1       3.539  -0.614  -0.619  0.00  0.00    -0.491 OA
ATOM     36  C   UNL     1       3.464  -2.026  -0.827  0.00  0.00    +0.277 C 
ENDBRANCH  29  35
ENDBRANCH   1  27
TORSDOF 5
