REMARK  Name = ZINC01134128
REMARK  8 active torsions:
REMARK  status: ('A' for Active; 'I' for Inactive)
REMARK    1  A    between atoms: C_1  and  C_2
REMARK    2  A    between atoms: C_5  and  C_7
REMARK    3  A    between atoms: C_7  and  C_9
REMARK    4  A    between atoms: C_10  and  O_31
REMARK    5  A    between atoms: C_14  and  C_16
REMARK    6  A    between atoms: C_26  and  C_28
REMARK    7  A    between atoms: C_28  and  C_29
REMARK    8  A    between atoms: C_28  and  C_30
REMARK                            x       y       z     vdW  Elec       q    Type
REMARK                         _______ _______ _______ _____ _____    ______ ____
ROOT
ATOM      1  C   UNL     1      -0.222   6.523  -1.373  0.00  0.00    +0.075 C 
ATOM      2  C   UNL     1      -1.262   7.388  -1.341  0.00  0.00    +0.189 C 
ATOM      3  C   UNL     1      -1.937   7.289  -0.032  0.00  0.00    +0.288 C 
ATOM      4  O   UNL     1      -2.907   7.939   0.303  0.00  0.00    -0.266 OA
ATOM      5  N   UNL     1      -1.319   6.373   0.735  0.00  0.00    -0.230 N 
ATOM      6  C   UNL     1      -0.199   5.819  -0.036  0.00  0.00    +0.152 C 
ATOM      7  C   UNL     1      -1.677   6.014   2.028  0.00  0.00    +0.191 A 
ATOM      8  N   UNL     1      -1.130   5.130   2.851  0.00  0.00    -0.125 NA
ATOM      9  N   UNL     1      -1.588   4.926   4.008  0.00  0.00    -0.144 NA
ATOM     10  C   UNL     1      -2.636   5.576   4.473  0.00  0.00    +0.106 A 
ATOM     11  S   UNL     1      -3.006   6.619   3.065  0.00  0.00    -0.035 S 
ENDROOT
BRANCH   6  12
ATOM     12  C   UNL     1      -0.385   4.336  -0.227  0.00  0.00    -0.022 A 
ATOM     13  C   UNL     1       0.691   3.481  -0.078  0.00  0.00    +0.007 A 
ATOM     14  C   UNL     1       0.521   2.120  -0.254  0.00  0.00    +0.020 A 
ATOM     15  C   UNL     1      -0.725   1.615  -0.578  0.00  0.00    +0.041 A 
ATOM     16  C   UNL     1      -1.800   2.472  -0.733  0.00  0.00    +0.020 A 
ATOM     17  C   UNL     1      -1.630   3.832  -0.552  0.00  0.00    +0.007 A 
ATOM     18 CL   UNL     1      -0.939  -0.094  -0.799  0.00  0.00    -0.084 Cl
ENDBRANCH   6  12
BRANCH  10  19
ATOM     19  C   UNL     1      -3.325   5.475   5.810  0.00  0.00    +0.040 C 
ATOM     20  C   UNL     1      -3.837   4.048   6.013  0.00  0.00    +0.014 C 
ATOM     21  C   UNL     1      -2.333   5.823   6.922  0.00  0.00    +0.014 C 
ENDBRANCH  10  19
BRANCH   1  22
ATOM     22  C   UNL     1       0.705   6.309  -2.490  0.00  0.00    +0.230 C 
ATOM     23  O   UNL     1       0.298   5.839  -3.538  0.00  0.00    -0.284 OA
BRANCH  22  28
ATOM     24  C   UNL     1       5.022   7.822  -0.454  0.00  0.00    +0.086 C 
ATOM     25  C   UNL     1       4.017   7.323  -1.460  0.00  0.00    +0.103 A 
ATOM     26  C   UNL     1       4.281   7.026  -2.753  0.00  0.00    +0.045 A 
ATOM     27  C   UNL     1       3.079   6.596  -3.333  0.00  0.00    +0.053 A 
ATOM     28  C   UNL     1       2.121   6.662  -2.345  0.00  0.00    +0.175 A 
ATOM     29  O   UNL     1       2.718   7.103  -1.219  0.00  0.00    -0.457 OA
ENDBRANCH  22  28
ENDBRANCH   1  22
BRANCH   2  30
ATOM     30  O   UNL     1      -1.627   8.213  -2.351  0.00  0.00    -0.502 OA
ATOM     31  H   UNL     1      -2.425   8.747  -2.073  0.00  0.00    +0.292 HD
ENDBRANCH   2  30
TORSDOF 5
