REMARK  Name = ZINC58871056
REMARK  8 active torsions:
REMARK  status: ('A' for Active; 'I' for Inactive)
REMARK    1  A    between atoms: C_1  and  C_2
REMARK    2  A    between atoms: C_5  and  S_8
REMARK    3  A    between atoms: S_8  and  N_11
REMARK    4  A    between atoms: C_17  and  C_28
REMARK    5  A    between atoms: C_18  and  C_27
REMARK    6  A    between atoms: C_21  and  C_26
REMARK    7  A    between atoms: C_23  and  C_24
REMARK    8  A    between atoms: C_23  and  C_25
REMARK                            x       y       z     vdW  Elec       q    Type
REMARK                         _______ _______ _______ _____ _____    ______ ____
ROOT
ATOM      1  N   UNL     1       1.677  -5.156   0.745  0.00  0.00    -0.072 NA
ATOM      2  C   UNL     1       1.988  -6.232   0.085  0.00  0.00    +0.359 C 
ATOM      3  O   UNL     1       1.024  -6.946  -0.537  0.00  0.00    -0.246 OA
ATOM      4  N   UNL     1       3.299  -6.644   0.020  0.00  0.00    -0.241 N 
ATOM      5  C   UNL     1       4.339  -5.714  -0.069  0.00  0.00    +0.047 A 
ATOM      6  C   UNL     1       4.171  -4.491  -0.690  0.00  0.00    +0.027 A 
ATOM      7  C   UNL     1       5.232  -3.605  -0.756  0.00  0.00    -0.046 A 
ATOM      8  C   UNL     1       6.458  -3.936  -0.205  0.00  0.00    -0.047 A 
ATOM      9  C   UNL     1       6.640  -5.154   0.420  0.00  0.00    +0.013 A 
ATOM     10  C   UNL     1       5.580  -6.052   0.495  0.00  0.00    -0.001 A 
ATOM     11  C   UNL     1       5.723  -7.362   1.161  0.00  0.00    -0.043 C 
ATOM     12  C   UNL     1       4.814  -8.306   0.957  0.00  0.00    +0.002 C 
ATOM     13  C   UNL     1       3.641  -8.072   0.048  0.00  0.00    +0.057 C 
ATOM     14  C   UNL     1       2.440  -8.873   0.554  0.00  0.00    +0.036 C 
ATOM     15  C   UNL     1       3.999  -8.537  -1.365  0.00  0.00    +0.036 C 
ATOM     16  C   UNL     1       6.898  -7.625   2.068  0.00  0.00    +0.044 C 
ATOM     17  C   UNL     1       7.603  -2.959  -0.288  0.00  0.00    +0.044 C 
ATOM     18  C   UNL     1       5.051  -2.271  -1.433  0.00  0.00    +0.044 C 
ENDROOT
BRANCH   1  19
ATOM     19  S   UNL     1       0.099  -4.659   0.824  0.00  0.00    +0.103 S 
ATOM     20  O   UNL     1      -0.601  -5.648   1.566  0.00  0.00    -0.146 OA
ATOM     21  O   UNL     1      -0.277  -4.290  -0.496  0.00  0.00    -0.146 OA
BRANCH  19  26
ATOM     22  C   UNL     1      -0.025   0.387   4.129  0.00  0.00    +0.044 C 
ATOM     23  C   UNL     1       0.006  -0.873   3.303  0.00  0.00    -0.050 A 
ATOM     24  C   UNL     1       0.177  -0.798   1.934  0.00  0.00    +0.005 A 
ATOM     25  C   UNL     1       0.206  -1.955   1.177  0.00  0.00    +0.029 A 
ATOM     26  C   UNL     1       0.064  -3.186   1.789  0.00  0.00    +0.113 A 
ATOM     27  C   UNL     1      -0.107  -3.261   3.159  0.00  0.00    +0.029 A 
ATOM     28  C   UNL     1      -0.131  -2.105   3.917  0.00  0.00    +0.005 A 
ENDBRANCH  19  26
ENDBRANCH   1  19
TORSDOF 2
