REMARK  Name = ZINC14275218
REMARK  7 active torsions:
REMARK  status: ('A' for Active; 'I' for Inactive)
REMARK    1  A    between atoms: C_3  and  C_23
REMARK    2  A    between atoms: C_5  and  C_6
REMARK    3  A    between atoms: C_7  and  C_8
REMARK    4  A    between atoms: N_10  and  C_11
REMARK    5  A    between atoms: C_11  and  N_13
REMARK    6  A    between atoms: N_13  and  C_14
REMARK    7  A    between atoms: C_19  and  O_20
REMARK                            x       y       z     vdW  Elec       q    Type
REMARK                         _______ _______ _______ _____ _____    ______ ____
ROOT
ATOM      1  C   UNL     1      -4.697  -0.114   0.353  0.00  0.00    +0.242 C 
ATOM      2  O   UNL     1      -4.720   1.103   0.360  0.00  0.00    -0.270 OA
ATOM      3  N   UNL     1      -3.524  -0.766   0.236  0.00  0.00    -0.264 N 
ATOM      4  H   UNL     1      -3.506  -1.736   0.231  0.00  0.00    +0.157 HD
ENDROOT
BRANCH   1   6
ATOM      5  C   UNL     1      -7.085  -0.186   0.586  0.00  0.00    +0.051 C 
ATOM      6  C   UNL     1      -5.902  -0.843   0.468  0.00  0.00    +0.071 C 
BRANCH   5  11
ATOM      7  C   UNL     1      -9.556  -0.374   0.831  0.00  0.00    +0.050 A 
ATOM      8  C   UNL     1     -10.448  -1.447   0.909  0.00  0.00    +0.050 A 
ATOM      9  C   UNL     1      -9.699  -2.599   0.832  0.00  0.00    +0.136 A 
ATOM     10  O   UNL     1      -8.404  -2.260   0.706  0.00  0.00    -0.455 OA
ATOM     11  C   UNL     1      -8.291  -0.915   0.700  0.00  0.00    +0.129 A 
BRANCH   9  12
ATOM     12  C   UNL     1     -10.229  -3.976   0.878  0.00  0.00    +0.020 A 
ATOM     13  C   UNL     1     -11.601  -4.195   1.017  0.00  0.00    +0.031 A 
ATOM     14  C   UNL     1     -12.091  -5.485   1.054  0.00  0.00    +0.043 A 
ATOM     15  C   UNL     1     -11.224  -6.561   0.965  0.00  0.00    +0.040 A 
ATOM     16  C   UNL     1      -9.861  -6.351   0.833  0.00  0.00    +0.043 A 
ATOM     17  C   UNL     1      -9.359  -5.065   0.789  0.00  0.00    +0.031 A 
ATOM     18 CL   UNL     1      -8.783  -7.706   0.723  0.00  0.00    -0.083 Cl
ATOM     19 CL   UNL     1     -13.797  -5.760   1.221  0.00  0.00    -0.083 Cl
ENDBRANCH   9  12
ENDBRANCH   5  11
ENDBRANCH   1   6
BRANCH   3  20
ATOM     20  C   UNL     1      -2.374  -0.071   0.127  0.00  0.00    +0.141 C 
ATOM     21  S   UNL     1      -2.405   1.641   0.137  0.00  0.00    -0.018 S 
BRANCH  20  22
ATOM     22  N   UNL     1      -1.201  -0.723   0.010  0.00  0.00    -0.294 N 
ATOM     23  H   UNL     1      -1.189  -1.689  -0.075  0.00  0.00    +0.154 HD
BRANCH  22  24
ATOM     24  C   UNL     1       0.003  -0.005   0.012  0.00  0.00    +0.077 A 
ATOM     25  C   UNL     1       0.204   1.012   0.934  0.00  0.00    +0.047 A 
ATOM     26  C   UNL     1       1.393   1.719   0.934  0.00  0.00    +0.044 A 
ATOM     27  C   UNL     1       2.383   1.415   0.017  0.00  0.00    +0.043 A 
ATOM     28  C   UNL     1       2.188   0.402  -0.905  0.00  0.00    +0.086 A 
ATOM     29  C   UNL     1       0.999  -0.311  -0.911  0.00  0.00    +0.156 A 
ATOM     30 CL   UNL     1       3.433   0.024  -2.055  0.00  0.00    -0.080 Cl
ATOM     31 CL   UNL     1       1.643   2.991   2.089  0.00  0.00    -0.083 Cl
BRANCH  29  32
ATOM     32  O   UNL     1       0.806  -1.307  -1.817  0.00  0.00    -0.504 OA
ATOM     33  H   UNL     1       0.404  -1.013  -2.646  0.00  0.00    +0.292 HD
ENDBRANCH  29  32
ENDBRANCH  22  24
ENDBRANCH  20  22
ENDBRANCH   3  20
TORSDOF 7
