REMARK  Name = ZINC09354857
REMARK  13 active torsions:
REMARK  status: ('A' for Active; 'I' for Inactive)
REMARK    1  A    between atoms: C_1  and  C_2
REMARK    2  A    between atoms: C_4  and  O_12
REMARK    3  A    between atoms: C_5  and  C_9
REMARK    4  A    between atoms: C_9  and  C_10
REMARK    5  A    between atoms: C_9  and  C_11
REMARK    6  A    between atoms: O_12  and  C_13
REMARK    7  A    between atoms: C_13  and  C_14
REMARK    8  A    between atoms: N_16  and  C_17
REMARK    9  A    between atoms: C_18  and  C_30
REMARK   10  A    between atoms: C_22  and  C_28
REMARK   11  A    between atoms: C_22  and  C_29
REMARK   12  A    between atoms: C_24  and  C_26
REMARK   13  A    between atoms: C_24  and  C_27
REMARK                            x       y       z     vdW  Elec       q    Type
REMARK                         _______ _______ _______ _____ _____    ______ ____
ROOT
ATOM      1  C   UNL     1       0.017  -2.879  -4.780  0.00  0.00    +0.255 C 
ATOM      2  O   UNL     1       0.034  -4.082  -4.626  0.00  0.00    -0.272 OA
ATOM      3  N   UNL     1       0.004  -2.358  -6.023  0.00  0.00    -0.276 N 
ATOM      4  H   UNL     1      -0.010  -1.396  -6.146  0.00  0.00    +0.155 HD
ENDROOT
BRANCH   3   5
ATOM      5  C   UNL     1       0.010  -3.199  -7.127  0.00  0.00    +0.090 A 
ATOM      6  C   UNL     1      -0.003  -2.842  -8.469  0.00  0.00    +0.084 A 
ATOM      7  C   UNL     1       0.005  -3.918  -9.433  0.00  0.00    -0.021 A 
ATOM      8  C   UNL     1       0.019  -5.160  -8.893  0.00  0.00    -0.015 A 
ATOM      9  S   UNL     1       0.033  -4.878  -7.148  0.00  0.00    -0.078 S 
ATOM     10  C   UNL     1       0.011  -6.451  -9.641  0.00  0.00    -0.041 C 
ATOM     11  N   UNL     1       0.190  -6.259 -11.079  0.00  0.00    +0.389 N 
ATOM     12  C   UNL     1       0.776  -4.995 -11.502  0.00  0.00    -0.069 C 
ATOM     13  C   UNL     1       0.006  -3.789 -10.949  0.00  0.00    +0.024 C 
ATOM     14  C   UNL     1       2.244  -4.899 -11.080  0.00  0.00    -0.010 C 
ATOM     15  C   UNL     1       0.721  -4.924 -13.040  0.00  0.00    -0.010 C 
ATOM     16  C   UNL     1      -1.346  -7.140  -9.400  0.00  0.00    -0.005 C 
ATOM     17  C   UNL     1       1.109  -7.369  -9.087  0.00  0.00    -0.005 C 
ATOM     18  H   UNL     1       0.767  -7.021 -11.440  0.00  0.00    -0.084 HD
ATOM     19  H   UNL     1      -0.719  -6.364 -11.535  0.00  0.00    -0.084 HD
BRANCH   6  20
ATOM     20  C   UNL     1      -0.025  -1.466  -8.866  0.00  0.00    +0.102 C 
ATOM     21  N   UNL     1      -0.043  -0.375  -9.181  0.00  0.00    -0.191 NA
ENDBRANCH   6  20
ENDBRANCH   3   5
BRANCH   1  22
ATOM     22  C   UNL     1       0.011  -1.966  -3.581  0.00  0.00    +0.324 C 
BRANCH  22  23
ATOM     23  O   UNL     1       0.028  -2.749  -2.386  0.00  0.00    -0.482 OA
BRANCH  23  27
ATOM     24  C   UNL     1      -0.018   1.503   0.010  0.00  0.00    +0.045 C 
ATOM     25  C   UNL     1       0.002  -0.004   0.002  0.00  0.00    -0.029 A 
ATOM     26  C   UNL     1       0.006  -0.688  -1.199  0.00  0.00    +0.050 A 
ATOM     27  C   UNL     1       0.025  -2.075  -1.206  0.00  0.00    +0.125 A 
ATOM     28  C   UNL     1       0.040  -2.773  -0.007  0.00  0.00    -0.002 A 
ATOM     29  C   UNL     1       0.036  -2.086   1.192  0.00  0.00    +0.027 A 
ATOM     30  C   UNL     1       0.023  -0.702   1.196  0.00  0.00    +0.044 A 
ATOM     31 CL   UNL     1       0.025   0.160   2.704  0.00  0.00    -0.083 Cl
BRANCH  28  32
ATOM     32  C   UNL     1       0.060  -4.279  -0.012  0.00  0.00    +0.016 C 
ATOM     33  C   UNL     1       1.319  -4.775   0.702  0.00  0.00    +0.012 C 
ATOM     34  C   UNL     1      -1.179  -4.808   0.714  0.00  0.00    +0.012 C 
ENDBRANCH  28  32
ENDBRANCH  23  27
ENDBRANCH  22  23
ENDBRANCH   1  22
TORSDOF 6
