REMARK  Name = ZINC22567253
REMARK  6 active torsions:
REMARK  status: ('A' for Active; 'I' for Inactive)
REMARK    1  A    between atoms: C_1  and  C_2
REMARK    2  A    between atoms: C_2  and  C_3
REMARK    3  A    between atoms: C_2  and  C_4
REMARK    4  A    between atoms: C_7  and  C_10
REMARK    5  A    between atoms: C_15  and  C_27
REMARK    6  A    between atoms: C_28  and  C_29
REMARK                            x       y       z     vdW  Elec       q    Type
REMARK                         _______ _______ _______ _____ _____    ______ ____
ROOT
ATOM      1  C   UNL     1       2.214  -2.491   1.595  0.00  0.00    +0.032 C 
ATOM      2  C   UNL     1       1.115  -2.120   0.597  0.00  0.00    +0.060 C 
ATOM      3  C   UNL     1       1.184  -0.642   0.292  0.00  0.00    +0.020 C 
ATOM      4  C   UNL     1       2.364   0.013   0.304  0.00  0.00    +0.039 C 
ATOM      5  C   UNL     1       2.473   1.484  -0.026  0.00  0.00    +0.148 C 
ATOM      6  N   UNL     1       1.153   2.107   0.002  0.00  0.00    -0.302 N 
ATOM      7  C   UNL     1       0.806   3.428   0.022  0.00  0.00    +0.069 A 
ATOM      8  C   UNL     1       1.552   4.600   0.032  0.00  0.00    +0.028 A 
ATOM      9  C   UNL     1       0.849   5.795   0.049  0.00  0.00    +0.002 A 
ATOM     10  C   UNL     1      -0.534   5.832   0.057  0.00  0.00    +0.002 A 
ATOM     11  C   UNL     1      -1.299   4.680   0.049  0.00  0.00    +0.028 A 
ATOM     12  C   UNL     1      -0.612   3.461   0.032  0.00  0.00    +0.066 A 
ATOM     13  N   UNL     1      -1.044   2.185   0.018  0.00  0.00    -0.327 N 
ATOM     14  C   UNL     1      -0.017   1.380   0.010  0.00  0.00    +0.179 A 
ATOM     15  N   UNL     1       0.002  -0.004   0.002  0.00  0.00    -0.290 N 
ATOM     16  C   UNL     1       3.558  -0.659   0.625  0.00  0.00    +0.164 C 
ATOM     17  O   UNL     1       4.606  -0.043   0.614  0.00  0.00    -0.292 OA
ATOM     18  C   UNL     1       3.568  -2.119   0.980  0.00  0.00    +0.088 C 
ATOM     19  H   UNL     1      -0.898  -0.593  -0.229  0.00  0.00    +0.155 HD
ATOM     20  H   UNL     1      -2.123   1.970   0.016  0.00  0.00    +0.169 HD
ENDROOT
BRANCH   1  24
ATOM     21  C   UNL     1       2.092  -6.689   2.375  0.00  0.00    -0.045 A 
ATOM     22  C   UNL     1       1.942  -5.788   3.413  0.00  0.00    +0.004 A 
ATOM     23  C   UNL     1       1.981  -4.430   3.160  0.00  0.00    +0.004 A 
ATOM     24  C   UNL     1       2.171  -3.972   1.870  0.00  0.00    -0.043 A 
ATOM     25  C   UNL     1       2.317  -4.873   0.831  0.00  0.00    +0.004 A 
ATOM     26  C   UNL     1       2.282  -6.231   1.085  0.00  0.00    +0.004 A 
BRANCH  21  28
ATOM     27  C   UNL     1       0.902  -8.803   1.861  0.00  0.00    +0.012 C 
ATOM     28  C   UNL     1       2.050  -8.170   2.651  0.00  0.00    +0.013 C 
ATOM     29  C   UNL     1       3.374  -8.806   2.224  0.00  0.00    +0.012 C 
ENDBRANCH  21  28
ENDBRANCH   1  24
BRANCH   5  30
ATOM     30  C   UNL     1       3.071   1.644  -1.401  0.00  0.00    +0.003 C 
ATOM     31  C   UNL     1       4.208   2.307  -1.556  0.00  0.00    +0.006 C 
BRANCH  31  32
ATOM     32  C   UNL     1       4.794   2.464  -2.903  0.00  0.00    -0.025 A 
ATOM     33  C   UNL     1       4.156   1.911  -4.014  0.00  0.00    +0.008 A 
ATOM     34  C   UNL     1       4.705   2.066  -5.270  0.00  0.00    +0.001 A 
ATOM     35  C   UNL     1       5.892   2.759  -5.428  0.00  0.00    +0.000 A 
ATOM     36  C   UNL     1       6.533   3.304  -4.331  0.00  0.00    +0.001 A 
ATOM     37  C   UNL     1       5.991   3.162  -3.070  0.00  0.00    +0.008 A 
ENDBRANCH  31  32
ENDBRANCH   5  30
TORSDOF 4
