REMARK  Name = ZINC39687049
REMARK  9 active torsions:
REMARK  status: ('A' for Active; 'I' for Inactive)
REMARK    1  A    between atoms: C_1  and  C_2
REMARK    2  A    between atoms: C_2  and  S_3
REMARK    3  A    between atoms: S_3  and  C_4
REMARK    4  A    between atoms: C_5  and  C_10
REMARK    5  A    between atoms: C_14  and  C_23
REMARK    6  A    between atoms: N_25  and  C_26
REMARK    7  A    between atoms: C_26  and  C_28
REMARK    8  A    between atoms: C_26  and  C_29
REMARK    9  A    between atoms: C_29  and  C_30
REMARK                            x       y       z     vdW  Elec       q    Type
REMARK                         _______ _______ _______ _____ _____    ______ ____
ROOT
ATOM      1  C   UNL     1      -4.038  -2.589   0.034  0.00  0.00    +0.249 C 
ATOM      2  O   UNL     1      -4.200  -1.388   0.137  0.00  0.00    -0.270 OA
ATOM      3  N   UNL     1      -5.104  -3.406  -0.074  0.00  0.00    -0.296 N 
ATOM      4  C   UNL     1      -5.114  -4.888  -0.101  0.00  0.00    +0.121 C 
ATOM      5  C   UNL     1      -6.352  -5.285   0.734  0.00  0.00    +0.100 C 
ATOM      6  C   UNL     1      -7.280  -4.060   0.668  0.00  0.00    -0.004 C 
ATOM      7  C   UNL     1      -6.533  -3.026  -0.186  0.00  0.00    +0.115 C 
ATOM      8  C   UNL     1      -7.520  -3.504   2.069  0.00  0.00    -0.010 C 
ATOM      9  C   UNL     1      -8.490  -2.322   1.984  0.00  0.00    -0.082 C 
ATOM     10  N   UNL     1      -9.755  -2.767   1.389  0.00  0.00    +0.379 N 
ATOM     11  C   UNL     1      -9.530  -3.214   0.009  0.00  0.00    -0.082 C 
ATOM     12  C   UNL     1      -8.604  -4.434   0.010  0.00  0.00    -0.010 C 
ATOM     13  H   UNL     1     -10.130  -3.531   1.931  0.00  0.00    -0.086 HD
ATOM     14  H   UNL     1     -10.414  -2.002   1.390  0.00  0.00    -0.086 HD
ENDROOT
BRANCH   1  16
ATOM     15  C   UNL     1      -1.662  -2.579   0.817  0.00  0.00    +0.109 A 
ATOM     16  C   UNL     1      -2.676  -3.151   0.028  0.00  0.00    +0.069 A 
ATOM     17  C   UNL     1      -2.367  -4.263  -0.763  0.00  0.00    +0.017 A 
ATOM     18  C   UNL     1      -1.073  -4.752  -0.733  0.00  0.00    +0.020 A 
ATOM     19  C   UNL     1      -0.129  -4.136   0.069  0.00  0.00    +0.112 A 
ATOM     20  N   UNL     1      -0.438  -3.086   0.804  0.00  0.00    -0.248 NA
BRANCH  15  21
ATOM     21  S   UNL     1      -2.019  -1.177   1.824  0.00  0.00    -0.105 S 
BRANCH  21  23
ATOM     22  C   UNL     1      -0.609   0.412   3.546  0.00  0.00    +0.015 C 
ATOM     23  C   UNL     1      -0.439  -0.802   2.630  0.00  0.00    +0.072 C 
ENDBRANCH  21  23
ENDBRANCH  15  21
ENDBRANCH   1  16
BRANCH   5  24
ATOM     24  C   UNL     1      -5.954  -5.569   2.159  0.00  0.00    +0.218 C 
ATOM     25  O   UNL     1      -5.054  -4.941   2.674  0.00  0.00    -0.275 OA
ATOM     26  N   UNL     1      -6.599  -6.522   2.862  0.00  0.00    -0.312 N 
ATOM     27  H   UNL     1      -7.319  -7.024   2.450  0.00  0.00    +0.149 HD
BRANCH  26  28
ATOM     28  C   UNL     1      -6.212  -6.798   4.247  0.00  0.00    +0.074 C 
ATOM     29  C   UNL     1      -5.043  -7.785   4.263  0.00  0.00    +0.028 C 
BRANCH  28  30
ATOM     30  C   UNL     1      -7.400  -7.404   4.997  0.00  0.00    +0.060 C 
BRANCH  30  31
ATOM     31  C   UNL     1      -8.508  -6.386   5.088  0.00  0.00    -0.010 A 
ATOM     32  C   UNL     1      -8.623  -5.587   6.210  0.00  0.00    +0.006 A 
ATOM     33  C   UNL     1      -9.639  -4.654   6.294  0.00  0.00    +0.000 A 
ATOM     34  C   UNL     1     -10.541  -4.518   5.255  0.00  0.00    +0.003 A 
ATOM     35  C   UNL     1     -10.428  -5.315   4.133  0.00  0.00    +0.038 A 
ATOM     36  C   UNL     1      -9.408  -6.247   4.045  0.00  0.00    +0.127 A 
ATOM     37  F   UNL     1      -9.294  -7.024   2.946  0.00  0.00    -0.205 F 
ENDBRANCH  30  31
ENDBRANCH  28  30
ENDBRANCH  26  28
ENDBRANCH   5  24
TORSDOF 7
