REMARK  Name = ZINC12547128
REMARK  9 active torsions:
REMARK  status: ('A' for Active; 'I' for Inactive)
REMARK    1  A    between atoms: C_1  and  C_2
REMARK    2  A    between atoms: C_7  and  O_8
REMARK    3  A    between atoms: O_8  and  C_9
REMARK    4  A    between atoms: C_9  and  C_10
REMARK    5  A    between atoms: N_12  and  C_13
REMARK    6  A    between atoms: C_13  and  N_15
REMARK    7  A    between atoms: N_15  and  N_16
REMARK    8  A    between atoms: C_17  and  C_19
REMARK    9  A    between atoms: C_21  and  C_25
REMARK                            x       y       z     vdW  Elec       q    Type
REMARK                         _______ _______ _______ _____ _____    ______ ____
ROOT
ATOM      1  C   UNL     1      -0.742   1.585  -1.213  0.00  0.00    +0.256 C 
ATOM      2  O   UNL     1      -1.736   2.268  -1.089  0.00  0.00    -0.272 OA
ATOM      3  N   UNL     1      -0.288   1.272  -2.443  0.00  0.00    -0.264 N 
ATOM      4  H   UNL     1       0.507   0.726  -2.543  0.00  0.00    +0.157 HD
ENDROOT
BRANCH   3   5
ATOM      5  C   UNL     1      -0.940   1.719  -3.535  0.00  0.00    +0.153 C 
ATOM      6  S   UNL     1      -2.344   2.683  -3.359  0.00  0.00    -0.017 S 
BRANCH   5   7
ATOM      7  N   UNL     1      -0.487   1.406  -4.765  0.00  0.00    -0.245 N 
ATOM      8  H   UNL     1      -0.956   1.727  -5.551  0.00  0.00    +0.172 HD
BRANCH   7   9
ATOM      9  N   UNL     1       0.661   0.617  -4.909  0.00  0.00    -0.230 N 
ATOM     10  C   UNL     1       1.115   0.304  -6.139  0.00  0.00    +0.278 C 
ATOM     11  O   UNL     1       0.526   0.707  -7.124  0.00  0.00    -0.267 OA
ATOM     12  H   UNL     1       1.131   0.296  -4.123  0.00  0.00    +0.173 HD
BRANCH  10  13
ATOM     13  C   UNL     1       2.321  -0.525  -6.290  0.00  0.00    +0.122 A 
ATOM     14  C   UNL     1       2.908  -0.929  -7.476  0.00  0.00    +0.057 A 
ATOM     15  C   UNL     1       4.017  -1.691  -7.100  0.00  0.00    +0.060 A 
ATOM     16  N   UNL     1       4.059  -1.718  -5.792  0.00  0.00    -0.178 NA
ATOM     17  N   UNL     1       3.090  -1.044  -5.287  0.00  0.00    -0.272 N 
ATOM     18  H   UNL     1       2.923  -0.919  -4.309  0.00  0.00    +0.189 HD
ATOM     19  C   UNL     1       4.992  -2.360  -8.034  0.00  0.00    +0.067 C 
ENDBRANCH  10  13
ENDBRANCH   7   9
ENDBRANCH   5   7
ENDBRANCH   3   5
BRANCH   1  20
ATOM     20  C   UNL     1      -0.013   1.086   0.008  0.00  0.00    +0.325 C 
BRANCH  20  21
ATOM     21  O   UNL     1      -0.682   1.547   1.184  0.00  0.00    -0.481 OA
BRANCH  21  28
ATOM     22  C   UNL     1       1.249   3.263   2.326  0.00  0.00    +0.047 C 
ATOM     23  C   UNL     1       0.803   1.985   2.990  0.00  0.00    -0.007 A 
ATOM     24  C   UNL     1       1.343   1.613   4.206  0.00  0.00    +0.022 A 
ATOM     25  C   UNL     1       0.936   0.440   4.816  0.00  0.00    +0.019 A 
ATOM     26  C   UNL     1      -0.014  -0.363   4.210  0.00  0.00    +0.034 A 
ATOM     27  C   UNL     1      -0.561   0.008   2.995  0.00  0.00    +0.061 A 
ATOM     28  C   UNL     1      -0.149   1.182   2.380  0.00  0.00    +0.138 A 
ATOM     29 BR   UNL     1      -1.864  -1.086   2.171  0.00  0.00    -0.046 Br
ATOM     30 BR   UNL     1       1.677  -0.066   6.480  0.00  0.00    -0.050 Br
ENDBRANCH  21  28
ENDBRANCH  20  21
ENDBRANCH   1  20
TORSDOF 7
