REMARK  Name = ZINC27522008
REMARK  9 active torsions:
REMARK  status: ('A' for Active; 'I' for Inactive)
REMARK    1  A    between atoms: C_1  and  C_2
REMARK    2  A    between atoms: C_5  and  N_9
REMARK    3  A    between atoms: C_10  and  C_12
REMARK    4  A    between atoms: C_12  and  N_23
REMARK    5  A    between atoms: C_13  and  C_14
REMARK    6  A    between atoms: C_17  and  N_20
REMARK    7  A    between atoms: C_24  and  C_26
REMARK    8  A    between atoms: C_31  and  O_32
REMARK    9  A    between atoms: O_32  and  C_33
REMARK                            x       y       z     vdW  Elec       q    Type
REMARK                         _______ _______ _______ _____ _____    ______ ____
ROOT
ATOM      1  C   UNL     1      -1.387   3.465   0.092  0.00  0.00    +0.097 C 
ATOM      2  C   UNL     1      -1.360   2.122  -0.075  0.00  0.00    +0.036 C 
ENDROOT
BRANCH   2   3
ATOM      3  C   UNL     1      -0.072   1.424  -0.212  0.00  0.00    -0.023 A 
ATOM      4  C   UNL     1       1.004   2.051  -0.847  0.00  0.00    +0.010 A 
ATOM      5  C   UNL     1       2.206   1.387  -0.977  0.00  0.00    +0.033 A 
ATOM      6  C   UNL     1       2.348   0.103  -0.479  0.00  0.00    +0.126 A 
ATOM      7  C   UNL     1       1.288  -0.524   0.150  0.00  0.00    +0.033 A 
ATOM      8  C   UNL     1       0.080   0.126   0.287  0.00  0.00    +0.010 A 
BRANCH   6   9
ATOM      9  N   UNL     1       3.642  -0.602  -0.623  0.00  0.00    +0.056 N 
ATOM     10  O   UNL     1       3.744  -1.763  -0.270  0.00  0.00    -0.126 OA
ATOM     11  O   UNL     1       4.603  -0.021  -1.093  0.00  0.00    -0.126 OA
ENDBRANCH   6   9
ENDBRANCH   2   3
BRANCH   1  13
ATOM     12  N   UNL     1      -2.692   5.488   0.490  0.00  0.00    -0.280 N 
ATOM     13  C   UNL     1      -2.666   4.151   0.324  0.00  0.00    +0.262 C 
ATOM     14  O   UNL     1      -3.700   3.512   0.366  0.00  0.00    -0.268 OA
ATOM     15  H   UNL     1      -1.765   6.072   0.401  0.00  0.00    +0.155 HD
BRANCH  12  20
ATOM     16  C   UNL     1      -7.591   8.104   1.652  0.00  0.00    +0.044 C 
ATOM     17  C   UNL     1      -6.289   7.410   1.343  0.00  0.00    -0.049 A 
ATOM     18  C   UNL     1      -6.294   6.205   0.664  0.00  0.00    +0.005 A 
ATOM     19  C   UNL     1      -5.104   5.565   0.380  0.00  0.00    +0.025 A 
ATOM     20  C   UNL     1      -3.900   6.133   0.776  0.00  0.00    +0.048 A 
ATOM     21  C   UNL     1      -3.898   7.341   1.464  0.00  0.00    +0.039 A 
ATOM     22  C   UNL     1      -5.093   7.978   1.740  0.00  0.00    +0.020 A 
ATOM     23 BR   UNL     1      -2.263   8.115   2.015  0.00  0.00    -0.048 Br
ENDBRANCH  12  20
ENDBRANCH   1  13
BRANCH   1  24
ATOM     24  N   UNL     1      -0.198   4.199   0.043  0.00  0.00    -0.277 N 
ATOM     25  C   UNL     1      -0.041   5.166  -0.882  0.00  0.00    +0.252 C 
ATOM     26  O   UNL     1      -0.961   5.455  -1.622  0.00  0.00    -0.270 OA
ATOM     27  H   UNL     1       0.608   3.987   0.761  0.00  0.00    +0.155 HD
BRANCH  25  28
ATOM     28  C   UNL     1       1.249   5.873  -0.998  0.00  0.00    +0.079 A 
ATOM     29  C   UNL     1       2.340   5.476  -0.221  0.00  0.00    +0.017 A 
ATOM     30  C   UNL     1       3.543   6.137  -0.338  0.00  0.00    +0.001 A 
ATOM     31  C   UNL     1       3.674   7.201  -1.215  0.00  0.00    +0.004 A 
ATOM     32  C   UNL     1       2.602   7.607  -1.984  0.00  0.00    +0.046 A 
ATOM     33  C   UNL     1       1.385   6.950  -1.884  0.00  0.00    +0.132 A 
BRANCH  33  34
ATOM     34  O   UNL     1       0.331   7.348  -2.639  0.00  0.00    -0.494 OA
ATOM     35  C   UNL     1       0.573   8.380  -3.598  0.00  0.00    +0.277 C 
ENDBRANCH  33  34
ENDBRANCH  25  28
ENDBRANCH   1  24
TORSDOF 7
