REMARK  Name = ZINC19852281
REMARK  6 active torsions:
REMARK  status: ('A' for Active; 'I' for Inactive)
REMARK    1  A    between atoms: C_1  and  C_2
REMARK    2  A    between atoms: C_8  and  C_27
REMARK    3  A    between atoms: C_9  and  C_11
REMARK    4  A    between atoms: N_13  and  C_14
REMARK    5  A    between atoms: C_14  and  C_16
REMARK    6  A    between atoms: C_14  and  C_17
REMARK                            x       y       z     vdW  Elec       q    Type
REMARK                         _______ _______ _______ _____ _____    ______ ____
ROOT
ATOM      1  C   UNL     1       5.974   0.908  -0.050  0.00  0.00    +0.280 C 
ATOM      2  O   UNL     1       6.652  -0.102  -0.061  0.00  0.00    -0.267 OA
ATOM      3  N   UNL     1       6.567   2.118  -0.050  0.00  0.00    -0.299 N 
ATOM      4  H   UNL     1       5.955   3.032  -0.039  0.00  0.00    +0.150 HD
ENDROOT
BRANCH   1  13
ATOM      5  C   UNL     1      -1.296  -0.770   0.011  0.00  0.00    +0.044 C 
ATOM      6  C   UNL     1       0.002  -0.004   0.002  0.00  0.00    -0.050 A 
ATOM      7  C   UNL     1      -0.017   1.384   0.010  0.00  0.00    +0.007 A 
ATOM      8  C   UNL     1       1.158   2.105   0.002  0.00  0.00    +0.047 A 
ATOM      9  C   UNL     1       2.378   1.439  -0.013  0.00  0.00    +0.136 A 
ATOM     10  C   UNL     1       2.391   0.032  -0.021  0.00  0.00    +0.024 A 
ATOM     11  C   UNL     1       1.189  -0.680  -0.013  0.00  0.00    +0.015 A 
ATOM     12  C   UNL     1       3.803  -0.352  -0.036  0.00  0.00    +0.008 A 
ATOM     13  C   UNL     1       4.508   0.809  -0.036  0.00  0.00    +0.193 A 
ATOM     14  O   UNL     1       3.658   1.858  -0.023  0.00  0.00    -0.450 OA
ATOM     15  C   UNL     1       4.362  -1.751  -0.048  0.00  0.00    +0.048 C 
ENDBRANCH   1  13
BRANCH   3  16
ATOM     16  C   UNL     1       8.029   2.217  -0.063  0.00  0.00    +0.136 C 
ATOM     17  C   UNL     1       8.560   2.119   1.369  0.00  0.00    +0.036 C 
BRANCH  16  18
ATOM     18  C   UNL     1       8.438   3.539  -0.661  0.00  0.00    +0.128 A 
ATOM     19  N   UNL     1       9.633   3.786  -1.262  0.00  0.00    -0.340 N 
ATOM     20  H   UNL     1      10.387   2.988  -1.336  0.00  0.00    +0.167 HD
ATOM     21  C   UNL     1       9.620   5.103  -1.677  0.00  0.00    +0.066 A 
ATOM     22  C   UNL     1      10.530   5.918  -2.336  0.00  0.00    +0.028 A 
ATOM     23  C   UNL     1      10.201   7.229  -2.605  0.00  0.00    +0.002 A 
ATOM     24  C   UNL     1       8.969   7.739  -2.220  0.00  0.00    +0.002 A 
ATOM     25  C   UNL     1       8.062   6.952  -1.571  0.00  0.00    +0.030 A 
ATOM     26  C   UNL     1       8.372   5.619  -1.288  0.00  0.00    +0.089 A 
ATOM     27  N   UNL     1       7.701   4.611  -0.673  0.00  0.00    -0.231 NA
ENDBRANCH  16  18
ENDBRANCH   3  16
TORSDOF 3
