REMARK  Name = ZINC35074947
REMARK  7 active torsions:
REMARK  status: ('A' for Active; 'I' for Inactive)
REMARK    1  A    between atoms: C_1  and  C_2
REMARK    2  A    between atoms: C_2  and  C_3
REMARK    3  A    between atoms: C_3  and  C_4
REMARK    4  A    between atoms: C_4  and  O_5
REMARK    5  A    between atoms: O_5  and  C_6
REMARK    6  A    between atoms: C_12  and  C_29
REMARK    7  A    between atoms: C_23  and  C_28
REMARK                            x       y       z     vdW  Elec       q    Type
REMARK                         _______ _______ _______ _____ _____    ______ ____
ROOT
ATOM      1  C   UNL     1       1.483  -3.911  -2.547  0.00  0.00    +0.159 C 
ATOM      2  C   UNL     1       2.380  -4.505  -1.413  0.00  0.00    +0.107 C 
ATOM      3  C   UNL     1       3.764  -4.751  -2.029  0.00  0.00    +0.024 C 
ATOM      4  C   UNL     1       3.713  -4.172  -3.467  0.00  0.00    +0.004 C 
ATOM      5  C   UNL     1       2.215  -4.325  -3.836  0.00  0.00    +0.020 C 
ATOM      6  C   UNL     1       1.816  -3.482  -5.025  0.00  0.00    +0.012 C 
ATOM      7  C   UNL     1       2.238  -2.026  -4.838  0.00  0.00    +0.005 C 
ATOM      8  C   UNL     1       3.761  -1.981  -4.662  0.00  0.00    -0.001 C 
ATOM      9  C   UNL     1       4.131  -2.703  -3.363  0.00  0.00    -0.004 C 
ATOM     10  C   UNL     1       5.643  -2.628  -3.133  0.00  0.00    +0.004 C 
ATOM     11  C   UNL     1       6.066  -1.166  -2.981  0.00  0.00    +0.004 C 
ATOM     12  C   UNL     1       4.838  -0.264  -3.119  0.00  0.00    -0.005 C 
ATOM     13  C   UNL     1       4.203  -0.518  -4.558  0.00  0.00    -0.026 C 
ATOM     14  C   UNL     1       2.982   0.389  -4.718  0.00  0.00    +0.007 C 
ATOM     15  C   UNL     1       3.413   1.853  -4.606  0.00  0.00    +0.001 C 
ATOM     16  C   UNL     1       4.050   2.092  -3.235  0.00  0.00    +0.000 C 
ATOM     17  C   UNL     1       5.261   1.199  -2.972  0.00  0.00    +0.004 C 
ATOM     18  C   UNL     1       5.221  -0.213  -5.659  0.00  0.00    +0.012 C 
ATOM     19  C   UNL     1       1.892  -5.787  -4.147  0.00  0.00    +0.016 C 
ATOM     20  S   UNL     1       1.504  -6.110  -1.192  0.00  0.00    -0.085 S 
ATOM     21  C   UNL     1      -0.062  -5.639  -1.909  0.00  0.00    +0.128 C 
ATOM     22  N   UNL     1       0.154  -4.498  -2.529  0.00  0.00    -0.339 N 
ATOM     23  N   UNL     1      -1.253  -6.323  -1.831  0.00  0.00    -0.339 N 
ATOM     24  H   UNL     1      -1.300  -7.160  -1.343  0.00  0.00    +0.144 HD
ATOM     25  H   UNL     1      -2.045  -5.969  -2.264  0.00  0.00    +0.144 HD
ATOM     26  H   UNL     1      -0.573  -4.039  -2.977  0.00  0.00    +0.164 HD
ENDROOT
BRANCH   1  27
ATOM     27  O   UNL     1       1.408  -2.488  -2.441  0.00  0.00    -0.353 OA
BRANCH  27  28
ATOM     28  C   UNL     1       0.739  -2.027  -1.265  0.00  0.00    +0.163 C 
BRANCH  28  29
ATOM     29  C   UNL     1       0.718  -0.497  -1.257  0.00  0.00    +0.028 C 
BRANCH  29  31
ATOM     30  C   UNL     1      -0.019   1.526   0.010  0.00  0.00    +0.004 C 
ATOM     31  C   UNL     1       0.002  -0.004   0.002  0.00  0.00    -0.001 C 
ENDBRANCH  29  31
ENDBRANCH  28  29
ENDBRANCH  27  28
ENDBRANCH   1  27
TORSDOF 4
