REMARK  Name = ZINC39699324
REMARK  10 active torsions:
REMARK  status: ('A' for Active; 'I' for Inactive)
REMARK    1  A    between atoms: C_1  and  C_2
REMARK    2  A    between atoms: C_4  and  C_42
REMARK    3  A    between atoms: C_7  and  C_14
REMARK    4  A    between atoms: C_14  and  C_16
REMARK    5  A    between atoms: C_14  and  N_28
REMARK    6  A    between atoms: N_21  and  C_22
REMARK    7  A    between atoms: N_28  and  C_29
REMARK    8  A    between atoms: N_28  and  C_35
REMARK    9  A    between atoms: C_29  and  C_30
REMARK   10  A    between atoms: C_35  and  C_36
REMARK                            x       y       z     vdW  Elec       q    Type
REMARK                         _______ _______ _______ _____ _____    ______ ____
ROOT
ATOM      1  C   UNL     1       1.676  -6.646   1.058  0.00  0.00    -0.010 C 
ENDROOT
BRANCH   1   8
ATOM      2  C   UNL     1      -4.829  -3.784   3.446  0.00  0.00    +0.044 C 
ATOM      3  C   UNL     1      -3.489  -4.031   2.801  0.00  0.00    -0.048 A 
ATOM      4  C   UNL     1      -2.533  -3.016   2.835  0.00  0.00    +0.007 A 
ATOM      5  C   UNL     1      -1.308  -3.179   2.271  0.00  0.00    -0.042 A 
ATOM      6  C   UNL     1      -0.995  -4.451   1.619  0.00  0.00    -0.004 A 
ATOM      7  C   UNL     1       0.222  -4.660   1.040  0.00  0.00    -0.006 C 
ATOM      8  C   UNL     1       0.459  -6.007   0.388  0.00  0.00    +0.088 C 
ATOM      9  C   UNL     1      -0.673  -7.009   0.431  0.00  0.00    +0.223 C 
ATOM     10  O   UNL     1      -0.537  -8.106  -0.077  0.00  0.00    -0.275 OA
ATOM     11  N   UNL     1      -1.811  -6.689   1.024  0.00  0.00    -0.285 N 
ATOM     12  C   UNL     1      -2.024  -5.505   1.599  0.00  0.00    +0.041 A 
ATOM     13  C   UNL     1      -3.259  -5.235   2.216  0.00  0.00    +0.027 A 
ATOM     14  C   UNL     1      -0.289  -2.069   2.317  0.00  0.00    +0.044 C 
ATOM     15  H   UNL     1      -2.524  -7.346   1.040  0.00  0.00    +0.155 HD
ENDBRANCH   1   8
BRANCH   1  16
ATOM     16  C   UNL     1       2.820  -5.632   1.111  0.00  0.00    +0.183 C 
ATOM     17  N   UNL     1       3.138  -5.132  -0.240  0.00  0.00    -0.229 N 
ATOM     18  N   UNL     1       4.464  -5.508  -0.486  0.00  0.00    -0.064 NA
ATOM     19  N   UNL     1       4.964  -6.121   0.454  0.00  0.00    -0.061 NA
ATOM     20  N   UNL     1       4.076  -6.282   1.529  0.00  0.00    -0.213 N 
ATOM     21  H   UNL     1       2.549  -4.644  -0.837  0.00  0.00    +0.172 HD
BRANCH  20  22
ATOM     22  C   UNL     1       4.340  -6.957   2.803  0.00  0.00    +0.096 C 
ATOM     23  C   UNL     1       5.480  -6.243   3.532  0.00  0.00    +0.024 C 
ATOM     24  C   UNL     1       5.755  -6.947   4.862  0.00  0.00    +0.002 C 
ATOM     25  C   UNL     1       6.150  -8.401   4.597  0.00  0.00    +0.000 C 
ATOM     26  C   UNL     1       5.010  -9.115   3.869  0.00  0.00    +0.002 C 
ATOM     27  C   UNL     1       4.735  -8.411   2.538  0.00  0.00    +0.024 C 
ENDBRANCH  20  22
ENDBRANCH   1  16
BRANCH   1  28
ATOM     28  N   UNL     1       1.323  -7.058   2.424  0.00  0.00    +0.389 N 
ATOM     29  H   UNL     1       2.143  -7.420   2.888  0.00  0.00    -0.081 HD
BRANCH  28  30
ATOM     30  C   UNL     1       0.811  -5.899   3.167  0.00  0.00    -0.035 C 
BRANCH  30  31
ATOM     31  C   UNL     1       1.962  -5.014   3.573  0.00  0.00    -0.027 A 
ATOM     32  C   UNL     1       2.325  -3.806   3.077  0.00  0.00    +0.009 A 
ATOM     33  C   UNL     1       3.429  -3.167   3.609  0.00  0.00    +0.008 A 
ATOM     34  C   UNL     1       4.117  -3.768   4.611  0.00  0.00    +0.045 A 
ATOM     35  S   UNL     1       3.195  -5.281   4.835  0.00  0.00    -0.103 S 
ENDBRANCH  30  31
ENDBRANCH  28  30
BRANCH  28  36
ATOM     36  C   UNL     1       0.290  -8.100   2.369  0.00  0.00    -0.046 C 
BRANCH  36  37
ATOM     37  C   UNL     1       0.749  -9.225   1.438  0.00  0.00    +0.102 C 
ATOM     38  C   UNL     1      -0.388 -10.254   1.260  0.00  0.00    +0.032 C 
ATOM     39  C   UNL     1       0.383 -11.601   1.264  0.00  0.00    +0.030 C 
ATOM     40  C   UNL     1       1.525 -11.284   2.262  0.00  0.00    +0.160 C 
ATOM     41  O   UNL     1       1.867  -9.908   2.016  0.00  0.00    -0.378 OA
ENDBRANCH  36  37
ENDBRANCH  28  36
ENDBRANCH   1  28
TORSDOF 8
