REMARK  Name = ZINC23894727
REMARK  8 active torsions:
REMARK  status: ('A' for Active; 'I' for Inactive)
REMARK    1  A    between atoms: C_1  and  C_2
REMARK    2  A    between atoms: C_6  and  N_8
REMARK    3  A    between atoms: C_9  and  S_13
REMARK    4  A    between atoms: S_13  and  C_14
REMARK    5  A    between atoms: C_14  and  C_16
REMARK    6  A    between atoms: C_14  and  C_17
REMARK    7  A    between atoms: C_17  and  C_19
REMARK    8  A    between atoms: C_19  and  C_29
REMARK                            x       y       z     vdW  Elec       q    Type
REMARK                         _______ _______ _______ _____ _____    ______ ____
ROOT
ATOM      1  C   UNL     1      -4.203  -4.052   0.019  0.00  0.00    +0.123 C 
ATOM      2  C   UNL     1      -4.442  -4.521   1.456  0.00  0.00    +0.028 C 
ENDROOT
BRANCH   1   3
ATOM      3  C   UNL     1      -3.181  -2.944   0.016  0.00  0.00    +0.189 C 
ATOM      4  O   UNL     1      -3.543  -1.784   0.026  0.00  0.00    -0.290 OA
BRANCH   3   5
ATOM      5  C   UNL     1      -1.811  -3.253   0.001  0.00  0.00    +0.123 C 
ATOM      6  C   UNL     1      -0.857  -2.218  -0.003  0.00  0.00    +0.091 C 
ATOM      7  N   UNL     1      -1.069  -0.876   0.007  0.00  0.00    -0.307 N 
ATOM      8  C   UNL     1       0.002  -0.004   0.002  0.00  0.00    +0.046 A 
ATOM      9  C   UNL     1      -0.017   1.400   0.010  0.00  0.00    +0.024 A 
ATOM     10  C   UNL     1       1.155   2.119   0.002  0.00  0.00    +0.002 A 
ATOM     11  C   UNL     1       2.386   1.485  -0.013  0.00  0.00    +0.001 A 
ATOM     12  C   UNL     1       2.434   0.102  -0.021  0.00  0.00    +0.017 A 
ATOM     13  C   UNL     1       1.263  -0.618  -0.013  0.00  0.00    +0.035 A 
ATOM     14  S   UNL     1       0.872  -2.349  -0.019  0.00  0.00    -0.071 S 
ATOM     15  H   UNL     1      -2.096  -0.482   0.019  0.00  0.00    +0.153 HD
BRANCH   5  16
ATOM     16  C   UNL     1      -1.385  -4.620  -0.012  0.00  0.00    +0.105 C 
ATOM     17  N   UNL     1      -1.047  -5.704  -0.021  0.00  0.00    -0.191 NA
ENDBRANCH   5  16
ENDBRANCH   3   5
ENDBRANCH   1   3
BRANCH   1  18
ATOM     18  S   UNL     1      -5.756  -3.443  -0.684  0.00  0.00    -0.073 S 
BRANCH  18  20
ATOM     19  N   UNL     1      -7.970  -5.083  -1.129  0.00  0.00    -0.187 N 
ATOM     20  C   UNL     1      -6.691  -4.936  -0.699  0.00  0.00    +0.215 A 
ATOM     21  N   UNL     1      -6.284  -6.119  -0.290  0.00  0.00    -0.101 NA
ATOM     22  N   UNL     1      -7.214  -6.991  -0.439  0.00  0.00    -0.022 NA
ATOM     23  N   UNL     1      -8.266  -6.445  -0.944  0.00  0.00    -0.038 NA
BRANCH  19  29
ATOM     24  C   UNL     1     -11.527  -3.760  -4.258  0.00  0.00    +0.044 C 
ATOM     25  C   UNL     1     -10.546  -3.422  -3.165  0.00  0.00    -0.048 A 
ATOM     26  C   UNL     1     -10.477  -2.131  -2.673  0.00  0.00    +0.003 A 
ATOM     27  C   UNL     1      -9.578  -1.818  -1.670  0.00  0.00    +0.002 A 
ATOM     28  C   UNL     1      -8.750  -2.795  -1.153  0.00  0.00    +0.028 A 
ATOM     29  C   UNL     1      -8.813  -4.090  -1.649  0.00  0.00    +0.070 A 
ATOM     30  C   UNL     1      -9.716  -4.402  -2.655  0.00  0.00    +0.031 A 
ENDBRANCH  19  29
ENDBRANCH  18  20
ENDBRANCH   1  18
TORSDOF 6
