REMARK  Name = ZINC08567966
REMARK  9 active torsions:
REMARK  status: ('A' for Active; 'I' for Inactive)
REMARK    1  A    between atoms: C_1  and  O_2
REMARK    2  A    between atoms: O_2  and  C_3
REMARK    3  A    between atoms: C_6  and  C_17
REMARK    4  A    between atoms: C_8  and  O_9
REMARK    5  A    between atoms: O_9  and  C_10
REMARK    6  A    between atoms: C_10  and  C_11
REMARK    7  A    between atoms: C_20  and  C_31
REMARK    8  A    between atoms: C_26  and  N_30
REMARK    9  A    between atoms: C_27  and  C_28
REMARK                            x       y       z     vdW  Elec       q    Type
REMARK                         _______ _______ _______ _____ _____    ______ ____
ROOT
ATOM      1  C   UNL     1       2.507  -2.501  -4.386  0.00  0.00    +0.102 C 
ATOM      2  C   UNL     1       1.827  -2.083  -5.665  0.00  0.00    +0.054 A 
ATOM      3  C   UNL     1       0.612  -2.433  -6.150  0.00  0.00    +0.074 A 
ATOM      4  N   UNL     1       0.452  -1.788  -7.344  0.00  0.00    -0.273 N 
ATOM      5  H   UNL     1      -0.324  -1.846  -7.924  0.00  0.00    +0.189 HD
ATOM      6  N   UNL     1       1.607  -1.028  -7.582  0.00  0.00    -0.135 NA
ATOM      7  C   UNL     1       2.428  -1.201  -6.585  0.00  0.00    +0.245 A 
ATOM      8  O   UNL     1       3.664  -0.674  -6.376  0.00  0.00    -0.421 OA
ATOM      9  C   UNL     1       4.417  -1.223  -5.402  0.00  0.00    +0.201 C 
ATOM     10  C   UNL     1       3.951  -2.071  -4.459  0.00  0.00    +0.098 C 
ENDROOT
BRANCH   1  14
ATOM     11  C   UNL     1       0.606  -0.608  -1.056  0.00  0.00    +0.162 A 
ATOM     12  C   UNL     1       1.173   0.159  -2.062  0.00  0.00    +0.050 A 
ATOM     13  C   UNL     1       1.787  -0.456  -3.137  0.00  0.00    +0.008 A 
ATOM     14  C   UNL     1       1.837  -1.836  -3.212  0.00  0.00    -0.031 A 
ATOM     15  C   UNL     1       1.273  -2.606  -2.212  0.00  0.00    +0.054 A 
ATOM     16  C   UNL     1       0.662  -1.996  -1.129  0.00  0.00    +0.163 A 
BRANCH  11  18
ATOM     17  C   UNL     1      -0.017   1.425   0.010  0.00  0.00    +0.277 C 
ATOM     18  O   UNL     1       0.002  -0.004   0.002  0.00  0.00    -0.491 OA
ENDBRANCH  11  18
BRANCH  16  19
ATOM     19  O   UNL     1       0.112  -2.753  -0.142  0.00  0.00    -0.484 OA
BRANCH  19  20
ATOM     20  C   UNL     1       0.206  -4.171  -0.283  0.00  0.00    +0.264 C 
BRANCH  20  21
ATOM     21  C   UNL     1      -0.453  -4.838   0.897  0.00  0.00    -0.010 A 
ATOM     22  C   UNL     1       0.286  -5.128   2.029  0.00  0.00    +0.007 A 
ATOM     23  C   UNL     1      -0.319  -5.740   3.111  0.00  0.00    +0.000 A 
ATOM     24  C   UNL     1      -1.663  -6.062   3.061  0.00  0.00    +0.000 A 
ATOM     25  C   UNL     1      -2.401  -5.771   1.929  0.00  0.00    +0.000 A 
ATOM     26  C   UNL     1      -1.798  -5.155   0.849  0.00  0.00    +0.007 A 
ENDBRANCH  20  21
ENDBRANCH  19  20
ENDBRANCH  16  19
ENDBRANCH   1  14
BRANCH   3  27
ATOM     27  C   UNL     1      -0.361  -3.345  -5.507  0.00  0.00    +0.000 A 
ATOM     28  C   UNL     1       0.070  -4.549  -4.950  0.00  0.00    +0.010 A 
ATOM     29  C   UNL     1      -0.841  -5.395  -4.352  0.00  0.00    +0.001 A 
ATOM     30  C   UNL     1      -2.180  -5.050  -4.304  0.00  0.00    +0.000 A 
ATOM     31  C   UNL     1      -2.614  -3.858  -4.854  0.00  0.00    +0.001 A 
ATOM     32  C   UNL     1      -1.711  -3.001  -5.450  0.00  0.00    +0.010 A 
ENDBRANCH   3  27
BRANCH   9  33
ATOM     33  N   UNL     1       5.750  -0.899  -5.365  0.00  0.00    -0.328 N 
ATOM     34  H   UNL     1       6.121  -0.294  -6.027  0.00  0.00    +0.145 HD
ATOM     35  H   UNL     1       6.322  -1.276  -4.678  0.00  0.00    +0.145 HD
ENDBRANCH   9  33
BRANCH  10  36
ATOM     36  C   UNL     1       4.867  -2.584  -3.486  0.00  0.00    +0.101 C 
ATOM     37  N   UNL     1       5.594  -2.991  -2.713  0.00  0.00    -0.191 NA
ENDBRANCH  10  36
TORSDOF 8
