REMARK  Name = ZINC38547776
REMARK  8 active torsions:
REMARK  status: ('A' for Active; 'I' for Inactive)
REMARK    1  A    between atoms: C_1  and  C_2
REMARK    2  A    between atoms: C_2  and  C_3
REMARK    3  A    between atoms: C_5  and  C_16
REMARK    4  A    between atoms: C_6  and  N_8
REMARK    5  A    between atoms: C_9  and  C_11
REMARK    6  A    between atoms: C_16  and  C_18
REMARK    7  A    between atoms: C_16  and  N_25
REMARK    8  A    between atoms: C_30  and  C_32
REMARK                            x       y       z     vdW  Elec       q    Type
REMARK                         _______ _______ _______ _____ _____    ______ ____
ROOT
ATOM      1  C   UNL     1      -4.422  -1.629  -1.927  0.00  0.00    +0.135 C 
ENDROOT
BRANCH   1   2
ATOM      2  N   UNL     1      -4.037  -0.862  -3.113  0.00  0.00    -0.320 N 
ATOM      3  C   UNL     1      -5.001  -0.493  -4.045  0.00  0.00    +0.097 A 
ATOM      4  C   UNL     1      -6.330  -0.852  -3.842  0.00  0.00    +0.041 A 
ATOM      5  C   UNL     1      -7.277  -0.479  -4.778  0.00  0.00    +0.005 A 
ATOM      6  C   UNL     1      -6.864   0.243  -5.889  0.00  0.00    +0.021 A 
ATOM      7  C   UNL     1      -5.529   0.565  -6.027  0.00  0.00    +0.014 A 
ATOM      8  N   UNL     1      -4.646   0.201  -5.116  0.00  0.00    -0.347 N 
ATOM      9  C   UNL     1      -5.073   1.348  -7.232  0.00  0.00    +0.063 C 
ATOM     10  H   UNL     1      -3.111  -0.610  -3.249  0.00  0.00    +0.148 HD
ATOM     11  H   UNL     1      -3.715   0.444  -5.235  0.00  0.00    +0.167 HD
ENDBRANCH   1   2
BRANCH   1  12
ATOM     12  C   UNL     1      -4.455  -3.097  -2.267  0.00  0.00    -0.023 A 
ATOM     13  C   UNL     1      -3.478  -3.640  -3.080  0.00  0.00    +0.008 A 
ATOM     14  C   UNL     1      -3.507  -4.986  -3.393  0.00  0.00    +0.038 A 
ATOM     15  C   UNL     1      -4.515  -5.791  -2.891  0.00  0.00    +0.123 A 
ATOM     16  C   UNL     1      -5.494  -5.246  -2.076  0.00  0.00    +0.038 A 
ATOM     17  C   UNL     1      -5.460  -3.901  -1.761  0.00  0.00    +0.008 A 
ATOM     18  F   UNL     1      -4.545  -7.106  -3.196  0.00  0.00    -0.205 F 
ENDBRANCH   1  12
BRANCH   1  21
ATOM     19  C   UNL     1      -1.238  -0.842  -0.115  0.00  0.00    -0.008 A 
ATOM     20  C   UNL     1      -2.114  -1.050  -1.127  0.00  0.00    +0.019 A 
ATOM     21  C   UNL     1      -3.420  -1.391  -0.827  0.00  0.00    +0.006 A 
ATOM     22  C   UNL     1      -3.784  -1.507   0.481  0.00  0.00    +0.078 A 
ATOM     23  S   UNL     1      -2.254  -1.137   1.323  0.00  0.00    -0.078 S 
BRANCH  22  24
ATOM     24  N   UNL     1      -5.028  -1.837   1.022  0.00  0.00    -0.273 N 
ATOM     25  C   UNL     1      -5.186  -1.901   2.358  0.00  0.00    +0.284 C 
ATOM     26  O   UNL     1      -4.245  -1.671   3.095  0.00  0.00    -0.266 OA
ATOM     27  H   UNL     1      -5.779  -2.020   0.435  0.00  0.00    +0.156 HD
BRANCH  25  28
ATOM     28  C   UNL     1      -6.493  -2.247   2.926  0.00  0.00    +0.189 A 
ATOM     29  C   UNL     1      -6.791  -2.340   4.256  0.00  0.00    +0.054 A 
ATOM     30  C   UNL     1      -8.147  -2.692   4.341  0.00  0.00    +0.042 A 
ATOM     31  C   UNL     1      -8.612  -2.796   3.077  0.00  0.00    +0.196 A 
ATOM     32  O   UNL     1      -7.614  -2.522   2.227  0.00  0.00    -0.458 OA
ENDBRANCH  25  28
ENDBRANCH  22  24
BRANCH  19  34
ATOM     33  C   UNL     1       0.354   1.058  -0.176  0.00  0.00    +0.009 C 
ATOM     34  C   UNL     1       0.220  -0.466  -0.184  0.00  0.00    +0.039 C 
ENDBRANCH  19  34
ENDBRANCH   1  21
TORSDOF 6
