REMARK  Name = ZINC35442643
REMARK  9 active torsions:
REMARK  status: ('A' for Active; 'I' for Inactive)
REMARK    1  A    between atoms: C_1  and  C_2
REMARK    2  A    between atoms: C_4  and  C_26
REMARK    3  A    between atoms: C_6  and  C_23
REMARK    4  A    between atoms: C_9  and  C_11
REMARK    5  A    between atoms: C_11  and  C_12
REMARK    6  A    between atoms: C_15  and  C_17
REMARK    7  A    between atoms: C_23  and  C_24
REMARK    8  A    between atoms: C_23  and  C_25
REMARK    9  A    between atoms: C_26  and  N_27
REMARK                            x       y       z     vdW  Elec       q    Type
REMARK                         _______ _______ _______ _____ _____    ______ ____
ROOT
ATOM      1  C   UNL     1      -0.390   1.123  -0.156  0.00  0.00    +0.039 C 
ATOM      2  C   UNL     1      -0.001  -0.332  -0.100  0.00  0.00    -0.073 C 
ATOM      3  C   UNL     1       0.250  -0.937  -1.216  0.00  0.00    -0.026 C 
ATOM      4  C   UNL     1       0.638  -2.383  -1.320  0.00  0.00    -0.002 C 
ATOM      5  C   UNL     1       1.101  -2.904   0.043  0.00  0.00    -0.003 C 
ATOM      6  C   UNL     1       0.055  -2.511   1.093  0.00  0.00    +0.012 C 
ATOM      7  C   UNL     1       0.077  -0.988   1.248  0.00  0.00    +0.024 C 
ENDROOT
BRANCH   5   8
ATOM      8  C   UNL     1       1.240  -4.427  -0.009  0.00  0.00    -0.014 C 
ATOM      9  C   UNL     1       1.857  -4.927   1.299  0.00  0.00    +0.007 C 
ATOM     10  C   UNL     1      -0.142  -5.058  -0.195  0.00  0.00    +0.007 C 
ENDBRANCH   5   8
BRANCH   7  11
ATOM     11  C   UNL     1       1.371  -0.562   1.945  0.00  0.00    +0.105 C 
BRANCH  11  12
ATOM     12  C   UNL     1       1.329   0.919   2.222  0.00  0.00    +0.218 A 
ATOM     13  N   UNL     1       0.870   1.487   3.302  0.00  0.00    -0.112 NA
ATOM     14  N   UNL     1       0.989   2.764   3.200  0.00  0.00    -0.107 NA
ATOM     15  C   UNL     1       1.532   3.057   2.042  0.00  0.00    +0.248 A 
ATOM     16  O   UNL     1       1.762   1.892   1.403  0.00  0.00    -0.420 OA
BRANCH  15  17
ATOM     17  C   UNL     1       1.840   4.411   1.535  0.00  0.00    +0.038 A 
ATOM     18  C   UNL     1       2.416   4.573   0.274  0.00  0.00    +0.013 A 
ATOM     19  C   UNL     1       2.701   5.839  -0.193  0.00  0.00    +0.001 A 
ATOM     20  C   UNL     1       2.417   6.947   0.585  0.00  0.00    +0.000 A 
ATOM     21  C   UNL     1       1.846   6.793   1.836  0.00  0.00    +0.001 A 
ATOM     22  C   UNL     1       1.551   5.533   2.313  0.00  0.00    +0.013 A 
ENDBRANCH  15  17
ENDBRANCH  11  12
ENDBRANCH   7  11
BRANCH   4  23
ATOM     23  C   UNL     1       1.777  -2.531  -2.330  0.00  0.00    -0.071 C 
BRANCH  23  24
ATOM     24  N   UNL     1       1.305  -2.131  -3.663  0.00  0.00    +0.382 N 
ATOM     25  C   UNL     1       0.255  -3.056  -4.107  0.00  0.00    -0.060 C 
ATOM     26  C   UNL     1      -0.318  -2.574  -5.444  0.00  0.00    +0.088 C 
ATOM     27  N   UNL     1       0.792  -2.413  -6.395  0.00  0.00    -0.318 N 
ATOM     28  C   UNL     1       1.964  -1.632  -5.969  0.00  0.00    +0.088 C 
ATOM     29  C   UNL     1       2.429  -2.159  -4.607  0.00  0.00    -0.060 C 
ATOM     30  C   UNL     1       0.736  -2.983  -7.662  0.00  0.00    +0.139 A 
ATOM     31  C   UNL     1      -0.459  -3.525  -8.132  0.00  0.00    +0.154 A 
ATOM     32  N   UNL     1      -0.507  -4.065  -9.334  0.00  0.00    -0.258 NA
ATOM     33  C   UNL     1       0.575  -4.091 -10.094  0.00  0.00    +0.130 A 
ATOM     34  C   UNL     1       1.761  -3.554  -9.632  0.00  0.00    +0.132 A 
ATOM     35  N   UNL     1       1.818  -3.006  -8.429  0.00  0.00    -0.237 NA
ATOM     36  H   UNL     1       0.928  -1.196  -3.618  0.00  0.00    -0.082 HD
ENDBRANCH  23  24
ENDBRANCH   4  23
TORSDOF 6
