REMARK  Name = ZINC58775644
REMARK  12 active torsions:
REMARK  status: ('A' for Active; 'I' for Inactive)
REMARK    1  A    between atoms: C_1  and  C_2
REMARK    2  A    between atoms: C_5  and  C_8
REMARK    3  A    between atoms: N_14  and  C_15
REMARK    4  A    between atoms: C_15  and  C_16
REMARK    5  A    between atoms: C_16  and  C_17
REMARK    6  A    between atoms: N_19  and  C_20
REMARK    7  A    between atoms: C_20  and  C_21
REMARK    8  A    between atoms: C_21  and  C_23
REMARK    9  A    between atoms: C_21  and  N_26
REMARK   10  A    between atoms: C_23  and  C_24
REMARK   11  A    between atoms: C_23  and  C_25
REMARK   12  A    between atoms: C_29  and  C_32
REMARK                            x       y       z     vdW  Elec       q    Type
REMARK                         _______ _______ _______ _____ _____    ______ ____
ROOT
ATOM      1  C   UNL     1      -1.138  -4.604   4.633  0.00  0.00    +0.215 C 
ATOM      2  O   UNL     1      -0.133  -3.930   4.700  0.00  0.00    -0.276 OA
ATOM      3  N   UNL     1      -2.150  -4.395   5.499  0.00  0.00    -0.317 N 
ATOM      4  H   UNL     1      -2.954  -4.934   5.445  0.00  0.00    +0.149 HD
ENDROOT
BRANCH   1   5
ATOM      5  C   UNL     1      -1.258  -5.677   3.581  0.00  0.00    +0.117 C 
BRANCH   5   6
ATOM      6  C   UNL     1       0.017  -5.706   2.736  0.00  0.00    +0.135 C 
BRANCH   6  13
ATOM      7  C   UNL     1      -0.528  -6.350   0.346  0.00  0.00    +0.163 A 
ATOM      8  N   UNL     1      -0.562  -7.450  -0.352  0.00  0.00    -0.153 NA
ATOM      9  N   UNL     1      -0.202  -8.510   0.490  0.00  0.00    -0.254 N 
ATOM     10  H   UNL     1      -0.141  -9.446   0.241  0.00  0.00    +0.191 HD
ATOM     11  C   UNL     1       0.044  -7.992   1.711  0.00  0.00    +0.176 A 
ATOM     12  S   UNL     1       0.521  -8.868   3.103  0.00  0.00    -0.011 S 
ATOM     13  N   UNL     1      -0.147  -6.660   1.636  0.00  0.00    -0.303 N 
BRANCH   7  18
ATOM     14  C   UNL     1      -1.741  -1.079  -1.625  0.00  0.00    +0.044 C 
ATOM     15  C   UNL     1      -1.423  -2.459  -1.109  0.00  0.00    -0.050 A 
ATOM     16  C   UNL     1      -1.081  -3.464  -1.996  0.00  0.00    +0.004 A 
ATOM     17  C   UNL     1      -0.789  -4.730  -1.530  0.00  0.00    +0.012 A 
ATOM     18  C   UNL     1      -0.840  -4.995  -0.161  0.00  0.00    +0.019 A 
ATOM     19  C   UNL     1      -1.186  -3.977   0.728  0.00  0.00    +0.012 A 
ATOM     20  C   UNL     1      -1.470  -2.714   0.250  0.00  0.00    +0.004 A 
ENDBRANCH   7  18
ENDBRANCH   6  13
ENDBRANCH   5   6
ENDBRANCH   1   5
BRANCH   3  21
ATOM     21  C   UNL     1      -2.034  -3.353   6.522  0.00  0.00    +0.089 C 
BRANCH  21  22
ATOM     22  C   UNL     1      -3.366  -3.213   7.261  0.00  0.00    -0.049 C 
BRANCH  22  23
ATOM     23  N   UNL     1      -4.367  -2.629   6.359  0.00  0.00    +0.383 N 
ATOM     24  C   UNL     1      -3.869  -1.351   5.837  0.00  0.00    -0.078 C 
ATOM     25  C   UNL     1      -4.941  -0.700   4.961  0.00  0.00    -0.016 C 
ATOM     26  C   UNL     1      -5.275  -1.634   3.794  0.00  0.00    -0.018 C 
ATOM     27  C   UNL     1      -5.723  -2.989   4.349  0.00  0.00    -0.016 C 
ATOM     28  C   UNL     1      -4.622  -3.555   5.248  0.00  0.00    -0.078 C 
ATOM     29  C   UNL     1      -6.402  -1.026   2.958  0.00  0.00    +0.007 C 
ATOM     30  H   UNL     1      -5.225  -2.471   6.867  0.00  0.00    -0.081 HD
ENDBRANCH  22  23
BRANCH  22  31
ATOM     31  C   UNL     1      -3.182  -2.301   8.476  0.00  0.00    -0.029 C 
ATOM     32  C   UNL     1      -4.518  -2.147   9.205  0.00  0.00    +0.005 C 
ATOM     33  C   UNL     1      -2.151  -2.918   9.425  0.00  0.00    +0.005 C 
ENDBRANCH  22  31
ENDBRANCH  21  22
ENDBRANCH   3  21
TORSDOF 8
