REMARK  Name = ZINC47530570
REMARK  11 active torsions:
REMARK  status: ('A' for Active; 'I' for Inactive)
REMARK    1  A    between atoms: C_1  and  C_2
REMARK    2  A    between atoms: C_4  and  C_14
REMARK    3  A    between atoms: C_6  and  S_9
REMARK    4  A    between atoms: C_7  and  C_8
REMARK    5  A    between atoms: S_9  and  N_12
REMARK    6  A    between atoms: N_12  and  C_13
REMARK    7  A    between atoms: N_16  and  C_17
REMARK    8  A    between atoms: C_17  and  C_18
REMARK    9  A    between atoms: C_18  and  N_24
REMARK   10  A    between atoms: N_24  and  C_25
REMARK   11  A    between atoms: N_24  and  C_26
REMARK                            x       y       z     vdW  Elec       q    Type
REMARK                         _______ _______ _______ _____ _____    ______ ____
ROOT
ATOM      1  C   UNL     1      -0.419  -3.042  -2.527  0.00  0.00    +0.244 C 
ATOM      2  O   UNL     1      -0.450  -4.255  -2.469  0.00  0.00    -0.270 OA
ATOM      3  N   UNL     1      -0.501  -2.422  -3.721  0.00  0.00    -0.313 N 
ATOM      4  H   UNL     1      -0.476  -1.453  -3.767  0.00  0.00    +0.149 HD
ENDROOT
BRANCH   1   8
ATOM      5  C   UNL     1      -0.095   1.391  -0.257  0.00  0.00    +0.044 C 
ATOM      6  C   UNL     1      -0.135  -0.115  -0.191  0.00  0.00    -0.045 A 
ATOM      7  C   UNL     1      -0.254  -0.852  -1.351  0.00  0.00    +0.016 A 
ATOM      8  C   UNL     1      -0.290  -2.245  -1.288  0.00  0.00    +0.039 A 
ATOM      9  C   UNL     1      -0.205  -2.884  -0.049  0.00  0.00    +0.041 A 
ATOM     10  C   UNL     1      -0.086  -2.135   1.103  0.00  0.00    +0.109 A 
ATOM     11  C   UNL     1      -0.045  -0.754   1.033  0.00  0.00    -0.021 A 
ATOM     12  C   UNL     1       0.091   0.058   2.295  0.00  0.00    +0.046 C 
BRANCH  10  13
ATOM     13  S   UNL     1       0.021  -2.940   2.667  0.00  0.00    +0.058 S 
ATOM     14  O   UNL     1      -0.117  -4.332   2.418  0.00  0.00    -0.153 OA
ATOM     15  O   UNL     1       1.154  -2.393   3.328  0.00  0.00    -0.153 OA
BRANCH  13  16
ATOM     16  N   UNL     1      -1.306  -2.482   3.545  0.00  0.00    -0.193 NA
ATOM     17  C   UNL     1      -2.646  -2.880   3.107  0.00  0.00    +0.127 C 
ATOM     18  H   UNL     1      -1.196  -1.951   4.349  0.00  0.00    +0.148 HD
ENDBRANCH  13  16
ENDBRANCH  10  13
ENDBRANCH   1   8
BRANCH   3  19
ATOM     19  C   UNL     1      -0.628  -3.211  -4.948  0.00  0.00    +0.092 C 
BRANCH  19  20
ATOM     20  C   UNL     1      -0.703  -2.271  -6.153  0.00  0.00    -0.050 C 
ATOM     21  C   UNL     1      -0.835  -3.095  -7.436  0.00  0.00    -0.010 C 
ATOM     22  C   UNL     1      -2.109  -3.940  -7.369  0.00  0.00    -0.001 C 
ATOM     23  C   UNL     1      -3.324  -3.021  -7.225  0.00  0.00    -0.000 C 
ATOM     24  C   UNL     1      -3.191  -2.197  -5.943  0.00  0.00    -0.001 C 
ATOM     25  C   UNL     1      -1.917  -1.352  -6.010  0.00  0.00    -0.010 C 
BRANCH  20  26
ATOM     26  N   UNL     1       0.520  -1.460  -6.217  0.00  0.00    +0.381 N 
ATOM     27  C   UNL     1       1.687  -2.342  -6.355  0.00  0.00    -0.096 C 
ATOM     28  C   UNL     1       0.449  -0.557  -7.374  0.00  0.00    -0.096 C 
ATOM     29  H   UNL     1       0.608  -0.916  -5.372  0.00  0.00    -0.082 HD
ENDBRANCH  20  26
ENDBRANCH  19  20
ENDBRANCH   3  19
TORSDOF 6
