REMARK  Name = ZINC46720099
REMARK  6 active torsions:
REMARK  status: ('A' for Active; 'I' for Inactive)
REMARK    1  A    between atoms: C_6  and  C_7
REMARK    2  A    between atoms: C_7  and  C_8
REMARK    3  A    between atoms: N_13  and  C_16
REMARK    4  A    between atoms: C_19  and  S_25
REMARK    5  A    between atoms: C_21  and  N_22
REMARK    6  A    between atoms: S_25  and  N_28
REMARK                            x       y       z     vdW  Elec       q    Type
REMARK                         _______ _______ _______ _____ _____    ______ ____
ROOT
ATOM      1  C   UNL     1      -6.753  -2.607  -2.325  0.00  0.00    +0.060 A 
ATOM      2  C   UNL     1      -7.956  -1.923  -2.448  0.00  0.00    +0.027 A 
ATOM      3  C   UNL     1      -9.123  -2.618  -2.693  0.00  0.00    +0.030 A 
ATOM      4  C   UNL     1      -9.096  -3.996  -2.816  0.00  0.00    +0.108 A 
ATOM      5  C   UNL     1      -7.901  -4.680  -2.694  0.00  0.00    +0.063 A 
ATOM      6  C   UNL     1      -6.729  -3.990  -2.454  0.00  0.00    +0.149 A 
ENDROOT
BRANCH   1  12
ATOM      7  C   UNL     1      -1.738  -1.024  -1.408  0.00  0.00    +0.220 C 
ATOM      8  O   UNL     1      -1.070  -0.616  -2.334  0.00  0.00    -0.275 OA
ATOM      9  N   UNL     1      -2.879  -1.700  -1.647  0.00  0.00    -0.298 N 
ATOM     10  C   UNL     1      -3.703  -2.195  -0.534  0.00  0.00    +0.126 C 
ATOM     11  C   UNL     1      -5.127  -1.651  -0.699  0.00  0.00    +0.124 C 
ATOM     12  N   UNL     1      -5.571  -1.907  -2.077  0.00  0.00    -0.325 N 
ATOM     13  C   UNL     1      -4.747  -1.412  -3.189  0.00  0.00    +0.124 C 
ATOM     14  C   UNL     1      -3.326  -1.951  -3.024  0.00  0.00    +0.126 C 
BRANCH   7  15
ATOM     15  C   UNL     1      -1.293  -0.775   0.010  0.00  0.00    +0.131 C 
BRANCH  15  21
ATOM     16  C   UNL     1      -0.017   1.378   0.010  0.00  0.00    +0.007 A 
ATOM     17  C   UNL     1       1.170   2.086   0.002  0.00  0.00    +0.038 A 
ATOM     18  C   UNL     1       2.379   1.410  -0.013  0.00  0.00    +0.123 A 
ATOM     19  C   UNL     1       2.396   0.026  -0.021  0.00  0.00    +0.038 A 
ATOM     20  C   UNL     1       1.208  -0.680  -0.013  0.00  0.00    +0.007 A 
ATOM     21  C   UNL     1       0.002  -0.004   0.002  0.00  0.00    -0.038 A 
ATOM     22  F   UNL     1       3.540   2.101  -0.021  0.00  0.00    -0.205 F 
ENDBRANCH  15  21
ENDBRANCH   7  15
ENDBRANCH   1  12
BRANCH   6  23
ATOM     23  N   UNL     1      -5.449  -4.723  -2.329  0.00  0.00    +0.058 N 
ATOM     24  O   UNL     1      -5.429  -5.927  -2.442  0.00  0.00    -0.126 OA
ATOM     25  O   UNL     1      -4.425  -4.119  -2.115  0.00  0.00    -0.126 OA
ENDBRANCH   6  23
BRANCH   4  26
ATOM     26  S   UNL     1     -10.588  -4.880  -3.129  0.00  0.00    +0.061 S 
ATOM     27  O   UNL     1     -10.380  -6.205  -2.660  0.00  0.00    -0.153 OA
ATOM     28  O   UNL     1     -11.650  -4.062  -2.659  0.00  0.00    -0.153 OA
BRANCH  26  29
ATOM     29  N   UNL     1     -10.761  -4.981  -4.773  0.00  0.00    -0.177 NA
ATOM     30  C   UNL     1     -11.478  -3.937  -5.516  0.00  0.00    +0.109 C 
ATOM     31  C   UNL     1     -10.575  -3.424  -6.642  0.00  0.00    +0.017 C 
ATOM     32  C   UNL     1     -10.117  -4.604  -7.501  0.00  0.00    +0.003 C 
ATOM     33  C   UNL     1      -9.311  -5.580  -6.642  0.00  0.00    +0.017 C 
ATOM     34  C   UNL     1     -10.194  -6.115  -5.517  0.00  0.00    +0.109 C 
ENDBRANCH  26  29
ENDBRANCH   4  26
TORSDOF 6
