REMARK  Name = ZINC04682239
REMARK  10 active torsions:
REMARK  status: ('A' for Active; 'I' for Inactive)
REMARK    1  A    between atoms: C_1  and  C_2
REMARK    2  A    between atoms: C_4  and  C_10
REMARK    3  A    between atoms: C_7  and  O_8
REMARK    4  A    between atoms: O_8  and  C_9
REMARK    5  A    between atoms: N_14  and  C_21
REMARK    6  A    between atoms: N_16  and  C_17
REMARK    7  A    between atoms: C_17  and  C_18
REMARK    8  A    between atoms: C_17  and  C_19
REMARK    9  A    between atoms: C_21  and  C_22
REMARK   10  A    between atoms: C_21  and  C_23
REMARK                            x       y       z     vdW  Elec       q    Type
REMARK                         _______ _______ _______ _____ _____    ______ ____
ROOT
ATOM      1  C   UNL     1      -6.010  -0.033   1.861  0.00  0.00    +0.028 C 
ATOM      2  C   UNL     1      -6.639  -0.733   0.884  0.00  0.00    +0.078 C 
ATOM      3  C   UNL     1      -6.098  -1.270  -0.380  0.00  0.00    +0.259 C 
ATOM      4  O   UNL     1      -4.930  -1.118  -0.686  0.00  0.00    -0.269 OA
ATOM      5  N   UNL     1      -6.939  -1.923  -1.163  0.00  0.00    -0.244 N 
ATOM      6  C   UNL     1      -8.260  -2.083  -0.796  0.00  0.00    +0.164 C 
ATOM      7  N   UNL     1      -9.214  -2.693  -1.444  0.00  0.00    -0.260 NA
ATOM      8  S   UNL     1      -8.344  -1.260   0.786  0.00  0.00    -0.049 S 
ENDROOT
BRANCH   1  12
ATOM      9  C   UNL     1      -1.427   0.796   3.635  0.00  0.00    +0.047 C 
ATOM     10  C   UNL     1      -2.424   0.845   2.505  0.00  0.00    -0.008 A 
ATOM     11  C   UNL     1      -3.711   0.396   2.704  0.00  0.00    +0.015 A 
ATOM     12  C   UNL     1      -4.636   0.443   1.655  0.00  0.00    -0.023 A 
ATOM     13  C   UNL     1      -4.246   0.945   0.407  0.00  0.00    +0.011 A 
ATOM     14  C   UNL     1      -2.959   1.396   0.221  0.00  0.00    +0.046 A 
ATOM     15  C   UNL     1      -2.043   1.342   1.265  0.00  0.00    +0.123 A 
BRANCH  15  16
ATOM     16  O   UNL     1      -0.773   1.783   1.074  0.00  0.00    -0.495 OA
ATOM     17  C   UNL     1      -0.447   2.282  -0.225  0.00  0.00    +0.277 C 
ENDBRANCH  15  16
ENDBRANCH   1  12
BRANCH   7  18
ATOM     18  C   UNL     1     -10.563  -2.753  -0.877  0.00  0.00    +0.102 C 
ATOM     19  C   UNL     1     -11.549  -2.077  -1.833  0.00  0.00    +0.032 C 
ATOM     20  C   UNL     1     -10.968  -4.215  -0.677  0.00  0.00    +0.032 C 
ENDBRANCH   7  18
BRANCH   5  21
ATOM     21  C   UNL     1      -6.465  -2.481  -2.432  0.00  0.00    +0.078 C 
ATOM     22  C   UNL     1      -5.929  -1.353  -3.316  0.00  0.00    +0.028 C 
ATOM     23  C   UNL     1      -5.348  -3.490  -2.160  0.00  0.00    +0.028 C 
ENDBRANCH   5  21
TORSDOF 4
