REMARK  Name = ZINC59890615
REMARK  13 active torsions:
REMARK  status: ('A' for Active; 'I' for Inactive)
REMARK    1  A    between atoms: C_1  and  C_2
REMARK    2  A    between atoms: C_2  and  O_3
REMARK    3  A    between atoms: O_3  and  C_4
REMARK    4  A    between atoms: C_4  and  C_6
REMARK    5  A    between atoms: C_7  and  C_28
REMARK    6  A    between atoms: C_8  and  C_13
REMARK    7  A    between atoms: C_11  and  C_12
REMARK    8  A    between atoms: N_15  and  C_16
REMARK    9  A    between atoms: C_16  and  C_17
REMARK   10  A    between atoms: C_17  and  N_25
REMARK   11  A    between atoms: C_21  and  C_24
REMARK   12  A    between atoms: N_25  and  C_26
REMARK   13  A    between atoms: N_25  and  C_27
REMARK                            x       y       z     vdW  Elec       q    Type
REMARK                         _______ _______ _______ _____ _____    ______ ____
ROOT
ATOM      1  C   UNL     1       2.217  -2.699   7.318  0.00  0.00    +0.261 C 
ATOM      2  O   UNL     1       1.212  -2.821   7.993  0.00  0.00    -0.269 OA
ATOM      3  N   UNL     1       3.299  -3.461   7.575  0.00  0.00    -0.311 N 
ATOM      4  H   UNL     1       4.100  -3.364   7.037  0.00  0.00    +0.149 HD
ENDROOT
BRANCH   1   7
ATOM      5  C   UNL     1       1.693  -0.125   4.766  0.00  0.00    +0.083 A 
ATOM      6  C   UNL     1       1.232  -0.893   5.859  0.00  0.00    -0.006 A 
ATOM      7  C   UNL     1       2.252  -1.722   6.223  0.00  0.00    +0.106 A 
ATOM      8  N   UNL     1       3.322  -1.484   5.387  0.00  0.00    -0.354 N 
ATOM      9  H   UNL     1       4.178  -1.939   5.427  0.00  0.00    +0.166 HD
ATOM     10  C   UNL     1       2.990  -0.529   4.505  0.00  0.00    +0.028 A 
ATOM     11  C   UNL     1       3.880   0.014   3.417  0.00  0.00    +0.064 C 
ATOM     12  C   UNL     1      -0.129  -0.812   6.502  0.00  0.00    +0.047 C 
BRANCH   5  13
ATOM     13  C   UNL     1       0.934   0.906   4.039  0.00  0.00    +0.341 C 
ATOM     14  O   UNL     1       0.259   0.599   3.077  0.00  0.00    -0.245 OA
BRANCH  13  15
ATOM     15  O   UNL     1       0.988   2.192   4.441  0.00  0.00    -0.461 OA
BRANCH  15  17
ATOM     16  C   UNL     1       0.411   4.534   4.291  0.00  0.00    +0.048 C 
ATOM     17  C   UNL     1       0.227   3.139   3.690  0.00  0.00    +0.229 C 
ENDBRANCH  15  17
ENDBRANCH  13  15
ENDBRANCH   5  13
ENDBRANCH   1   7
BRANCH   3  18
ATOM     18  C   UNL     1       3.264  -4.436   8.668  0.00  0.00    +0.092 C 
BRANCH  18  19
ATOM     19  C   UNL     1       4.543  -5.276   8.643  0.00  0.00    -0.050 C 
ATOM     20  C   UNL     1       5.761  -4.350   8.629  0.00  0.00    -0.010 C 
ATOM     21  C   UNL     1       7.039  -5.189   8.605  0.00  0.00    -0.001 C 
ATOM     22  C   UNL     1       7.090  -6.079   9.848  0.00  0.00    +0.003 C 
ATOM     23  C   UNL     1       5.872  -7.005   9.863  0.00  0.00    -0.015 C 
ATOM     24  C   UNL     1       4.593  -6.166   9.887  0.00  0.00    -0.007 C 
ATOM     25  C   UNL     1       5.922  -7.895  11.106  0.00  0.00    +0.007 C 
BRANCH  19  26
ATOM     26  N   UNL     1       4.553  -6.117   7.439  0.00  0.00    +0.381 N 
ATOM     27  C   UNL     1       3.346  -6.953   7.415  0.00  0.00    -0.096 C 
ATOM     28  C   UNL     1       4.580  -5.262   6.245  0.00  0.00    -0.096 C 
ATOM     29  H   UNL     1       5.371  -6.707   7.448  0.00  0.00    -0.082 HD
ENDBRANCH  19  26
ENDBRANCH  18  19
ENDBRANCH   3  18
TORSDOF 7
