REMARK  Name = ZINC03226565
REMARK  5 active torsions:
REMARK  status: ('A' for Active; 'I' for Inactive)
REMARK    1  A    between atoms: C_1  and  C_2
REMARK    2  A    between atoms: C_9  and  N_14
REMARK    3  A    between atoms: C_10  and  C_11
REMARK    4  A    between atoms: C_15  and  C_17
REMARK    5  A    between atoms: C_21  and  N_26
REMARK                            x       y       z     vdW  Elec       q    Type
REMARK                         _______ _______ _______ _____ _____    ______ ____
ROOT
ATOM      1  N   UNL     1      -1.369   1.234  -4.918  0.00  0.00    -0.275 N 
ATOM      2  C   UNL     1      -2.159   1.905  -5.778  0.00  0.00    +0.255 C 
ATOM      3  O   UNL     1      -2.850   2.825  -5.380  0.00  0.00    -0.269 OA
ATOM      4  H   UNL     1      -0.818   0.501  -5.235  0.00  0.00    +0.156 HD
ENDROOT
BRANCH   1  12
ATOM      5  C   UNL     1      -1.435   3.621   2.530  0.00  0.00    +0.008 C 
ATOM      6  C   UNL     1      -0.938   3.097   1.181  0.00  0.00    -0.009 C 
ATOM      7  C   UNL     1      -0.734   1.582   1.262  0.00  0.00    +0.008 C 
ATOM      8  C   UNL     1      -0.013   1.086   0.008  0.00  0.00    +0.037 C 
ATOM      9  C   UNL     1      -0.755   1.593  -1.222  0.00  0.00    -0.023 A 
ATOM     10  C   UNL     1      -1.621   2.627  -1.135  0.00  0.00    -0.004 A 
ATOM     11  S   UNL     1      -2.225   2.851  -2.784  0.00  0.00    -0.077 S 
ATOM     12  C   UNL     1      -1.341   1.592  -3.580  0.00  0.00    +0.085 A 
ATOM     13  C   UNL     1      -0.600   1.027  -2.551  0.00  0.00    +0.068 A 
ATOM     14  C   UNL     1      -1.980   3.403   0.095  0.00  0.00    +0.046 C 
BRANCH  13  15
ATOM     15  C   UNL     1       0.307  -0.099  -2.796  0.00  0.00    +0.244 C 
ATOM     16  O   UNL     1      -0.102  -1.241  -2.702  0.00  0.00    -0.270 OA
ATOM     17  N   UNL     1       1.593   0.132  -3.126  0.00  0.00    -0.325 N 
ATOM     18  H   UNL     1       1.919   1.042  -3.201  0.00  0.00    +0.145 HD
ATOM     19  H   UNL     1       2.193  -0.613  -3.288  0.00  0.00    +0.145 HD
ENDBRANCH  13  15
ENDBRANCH   1  12
BRANCH   2  20
ATOM     20  C   UNL     1      -2.188   1.526  -7.198  0.00  0.00    +0.075 A 
ATOM     21  C   UNL     1      -2.918   2.074  -8.206  0.00  0.00    +0.029 A 
ATOM     22  C   UNL     1      -2.802   1.565  -9.512  0.00  0.00    -0.008 A 
ATOM     23  C   UNL     1      -3.469   2.000 -10.687  0.00  0.00    +0.041 A 
ATOM     24  C   UNL     1      -3.245   1.390 -11.879  0.00  0.00    +0.127 A 
ATOM     25  C   UNL     1      -2.360   0.325 -11.998  0.00  0.00    +0.034 A 
ATOM     26  C   UNL     1      -1.689  -0.130 -10.881  0.00  0.00    +0.018 A 
ATOM     27  C   UNL     1      -1.907   0.479  -9.663  0.00  0.00    +0.020 A 
ATOM     28  S   UNL     1      -1.281   0.229  -8.021  0.00  0.00    -0.084 S 
BRANCH  24  29
ATOM     29  N   UNL     1      -3.960   1.871 -13.082  0.00  0.00    +0.056 N 
ATOM     30  O   UNL     1      -3.770   1.335 -14.159  0.00  0.00    -0.126 OA
ATOM     31  O   UNL     1      -4.739   2.804 -12.995  0.00  0.00    -0.126 OA
ENDBRANCH  24  29
ENDBRANCH   2  20
TORSDOF 4
