REMARK  Name = ZINC12564774
REMARK  5 active torsions:
REMARK  status: ('A' for Active; 'I' for Inactive)
REMARK    1  A    between atoms: C_4  and  O_26
REMARK    2  A    between atoms: C_5  and  N_7
REMARK    3  A    between atoms: C_8  and  C_10
REMARK    4  A    between atoms: N_13  and  C_16
REMARK    5  A    between atoms: C_21  and  N_22
REMARK                            x       y       z     vdW  Elec       q    Type
REMARK                         _______ _______ _______ _____ _____    ______ ____
ROOT
ATOM      1  C   UNL     1      -2.456   0.883   0.181  0.00  0.00    +0.078 C 
ATOM      2  C   UNL     1      -2.610  -0.099  -0.984  0.00  0.00    +0.031 C 
ATOM      3  C   UNL     1      -3.970  -0.792  -0.885  0.00  0.00    +0.106 C 
ATOM      4  N   UNL     1      -5.038   0.215  -0.926  0.00  0.00    -0.328 N 
ATOM      5  C   UNL     1      -4.940   1.141   0.210  0.00  0.00    +0.106 C 
ATOM      6  C   UNL     1      -3.608   1.892   0.143  0.00  0.00    +0.031 C 
ENDROOT
BRANCH   4   7
ATOM      7  C   UNL     1      -6.297  -0.391  -0.970  0.00  0.00    +0.060 A 
ATOM      8  C   UNL     1      -6.723  -1.187   0.086  0.00  0.00    +0.027 A 
ATOM      9  C   UNL     1      -7.967  -1.784   0.039  0.00  0.00    +0.022 A 
ATOM     10  C   UNL     1      -8.789  -1.590  -1.057  0.00  0.00    +0.043 A 
ATOM     11  C   UNL     1      -8.367  -0.798  -2.110  0.00  0.00    +0.054 A 
ATOM     12  C   UNL     1      -7.125  -0.194  -2.067  0.00  0.00    +0.148 A 
ATOM     13 CL   UNL     1     -10.353  -2.342  -1.112  0.00  0.00    -0.083 Cl
BRANCH  12  14
ATOM     14  N   UNL     1      -6.677   0.657  -3.191  0.00  0.00    +0.058 N 
ATOM     15  O   UNL     1      -7.363   0.756  -4.193  0.00  0.00    -0.126 OA
ATOM     16  O   UNL     1      -5.621   1.260  -3.115  0.00  0.00    -0.126 OA
ENDBRANCH  12  14
ENDBRANCH   4   7
BRANCH   1  18
ATOM     17  N   UNL     1       0.014   0.923   0.065  0.00  0.00    -0.282 N 
ATOM     18  C   UNL     1      -1.144   1.613   0.056  0.00  0.00    +0.220 C 
ATOM     19  O   UNL     1      -1.129   2.821  -0.053  0.00  0.00    -0.275 OA
ATOM     20  H   UNL     1       0.001  -0.047   0.063  0.00  0.00    +0.155 HD
BRANCH  17  25
ATOM     21  C   UNL     1       2.516   3.572   0.574  0.00  0.00    +0.002 A 
ATOM     22  C   UNL     1       3.654   2.959   0.085  0.00  0.00    +0.004 A 
ATOM     23  C   UNL     1       3.591   1.671  -0.413  0.00  0.00    +0.047 A 
ATOM     24  C   UNL     1       2.386   0.988  -0.417  0.00  0.00    +0.138 A 
ATOM     25  C   UNL     1       1.237   1.607   0.071  0.00  0.00    +0.075 A 
ATOM     26  C   UNL     1       1.308   2.900   0.569  0.00  0.00    +0.027 A 
BRANCH  24  27
ATOM     27  O   UNL     1       2.323  -0.281  -0.900  0.00  0.00    -0.505 OA
ATOM     28  H   UNL     1       2.132  -0.332  -1.847  0.00  0.00    +0.292 HD
ENDBRANCH  24  27
ENDBRANCH  17  25
ENDBRANCH   1  18
TORSDOF 5
