REMARK  Name = ZINC56780897
REMARK  6 active torsions:
REMARK  status: ('A' for Active; 'I' for Inactive)
REMARK    1  A    between atoms: C_1  and  C_2
REMARK    2  A    between atoms: C_2  and  C_27
REMARK    3  A    between atoms: C_4  and  N_10
REMARK    4  A    between atoms: C_6  and  C_8
REMARK    5  A    between atoms: C_6  and  C_9
REMARK    6  A    between atoms: C_17  and  C_20
REMARK                            x       y       z     vdW  Elec       q    Type
REMARK                         _______ _______ _______ _____ _____    ______ ____
ROOT
ATOM      1  N   UNL     1       2.618  -0.822  -2.623  0.00  0.00    -0.296 N 
ATOM      2  C   UNL     1       3.770  -0.334  -3.123  0.00  0.00    +0.303 C 
ATOM      3  O   UNL     1       4.327   0.597  -2.573  0.00  0.00    -0.253 OA
ATOM      4  N   UNL     1       4.307  -0.878  -4.234  0.00  0.00    -0.281 N 
ATOM      5  C   UNL     1       5.622  -0.444  -4.731  0.00  0.00    +0.137 C 
ATOM      6  C   UNL     1       5.491  -0.112  -6.221  0.00  0.00    +0.179 C 
ATOM      7  O   UNL     1       4.890  -1.218  -6.899  0.00  0.00    -0.369 OA
ATOM      8  C   UNL     1       3.562  -1.520  -6.464  0.00  0.00    +0.166 C 
ATOM      9  C   UNL     1       3.597  -1.928  -4.982  0.00  0.00    +0.145 C 
ATOM     10  H   UNL     1       2.137  -1.515  -3.101  0.00  0.00    +0.151 HD
ENDROOT
BRANCH   1  14
ATOM     11  C   UNL     1      -0.020   1.521   0.012  0.00  0.00    -0.010 C 
ATOM     12  C   UNL     1       0.005  -0.011   0.007  0.00  0.00    -0.072 C 
ATOM     13  C   UNL     1       0.577  -0.512  -1.316  0.00  0.00    +0.009 C 
ATOM     14  C   UNL     1       2.091  -0.303  -1.355  0.00  0.00    +0.072 C 
ATOM     15  C   UNL     1       2.709  -1.084  -0.195  0.00  0.00    +0.009 C 
ATOM     16  C   UNL     1       2.154  -0.588   1.136  0.00  0.00    -0.072 C 
ATOM     17  N   UNL     1       0.703  -0.531   1.169  0.00  0.00    +0.386 N 
ATOM     18  C   UNL     1       2.772   0.771   1.480  0.00  0.00    -0.010 C 
ATOM     19  C   UNL     1       2.611  -1.583   2.227  0.00  0.00    -0.010 C 
ATOM     20  C   UNL     1      -1.463  -0.489   0.086  0.00  0.00    -0.010 C 
ATOM     21  H   UNL     1       0.422   0.020   1.986  0.00  0.00    -0.084 HD
ATOM     22  H   UNL     1       0.351  -1.475   1.358  0.00  0.00    -0.084 HD
ENDBRANCH   1  14
BRANCH   8  23
ATOM     23  C   UNL     1       3.008  -2.655  -7.285  0.00  0.00    -0.017 A 
ATOM     24  C   UNL     1       3.819  -3.724  -7.621  0.00  0.00    +0.007 A 
ATOM     25  C   UNL     1       3.312  -4.766  -8.374  0.00  0.00    +0.020 A 
ATOM     26  C   UNL     1       1.993  -4.740  -8.792  0.00  0.00    +0.041 A 
ATOM     27  C   UNL     1       1.182  -3.670  -8.455  0.00  0.00    +0.020 A 
ATOM     28  C   UNL     1       1.689  -2.631  -7.697  0.00  0.00    +0.007 A 
ATOM     29 CL   UNL     1       1.356  -6.048  -9.738  0.00  0.00    -0.084 Cl
ENDBRANCH   8  23
TORSDOF 2
