REMARK  Name = ZINC56797273
REMARK  8 active torsions:
REMARK  status: ('A' for Active; 'I' for Inactive)
REMARK    1  A    between atoms: C_1  and  N_2
REMARK    2  A    between atoms: N_2  and  C_3
REMARK    3  A    between atoms: N_2  and  C_4
REMARK    4  A    between atoms: C_4  and  C_6
REMARK    5  A    between atoms: C_4  and  C_22
REMARK    6  A    between atoms: C_6  and  N_7
REMARK    7  A    between atoms: C_13  and  C_16
REMARK    8  A    between atoms: N_18  and  C_19
REMARK                            x       y       z     vdW  Elec       q    Type
REMARK                         _______ _______ _______ _____ _____    ______ ____
ROOT
ATOM      1  N   UNL     1      -1.699   1.301  -1.407  0.00  0.00    -0.300 N 
ATOM      2  C   UNL     1      -2.076   1.923  -2.541  0.00  0.00    +0.302 C 
ATOM      3  O   UNL     1      -2.728   1.325  -3.375  0.00  0.00    -0.253 OA
ATOM      4  N   UNL     1      -1.729   3.208  -2.751  0.00  0.00    -0.286 N 
ATOM      5  C   UNL     1      -0.848   3.910  -1.808  0.00  0.00    +0.110 C 
ATOM      6  C   UNL     1      -1.533   5.207  -1.366  0.00  0.00    +0.032 C 
ATOM      7  C   UNL     1      -1.911   6.027  -2.602  0.00  0.00    +0.078 C 
ATOM      8  C   UNL     1      -2.894   5.231  -3.462  0.00  0.00    +0.032 C 
ATOM      9  C   UNL     1      -2.221   3.933  -3.932  0.00  0.00    +0.110 C 
ATOM     10  H   UNL     1      -1.240   1.796  -0.711  0.00  0.00    +0.150 HD
ENDROOT
BRANCH   7  11
ATOM     11  C   UNL     1      -2.554   7.320  -2.169  0.00  0.00    +0.216 C 
ATOM     12  O   UNL     1      -2.696   7.561  -0.989  0.00  0.00    -0.276 OA
ATOM     13  N   UNL     1      -2.971   8.207  -3.094  0.00  0.00    -0.312 N 
ATOM     14  H   UNL     1      -2.857   8.014  -4.038  0.00  0.00    +0.149 HD
BRANCH  13  15
ATOM     15  C   UNL     1      -3.596   9.464  -2.674  0.00  0.00    +0.073 C 
ATOM     16  C   UNL     1      -4.847   9.917  -3.429  0.00  0.00    +0.024 C 
ATOM     17  C   UNL     1      -3.519  10.648  -3.639  0.00  0.00    +0.024 C 
ENDBRANCH  13  15
ENDBRANCH   7  11
BRANCH   1  18
ATOM     18  C   UNL     1      -1.982  -0.125  -1.225  0.00  0.00    +0.095 C 
BRANCH  18  19
ATOM     19  C   UNL     1      -1.347  -0.609   0.080  0.00  0.00    -0.020 C 
BRANCH  19  20
ATOM     20  C   UNL     1       0.154  -0.533  -0.033  0.00  0.00    -0.041 A 
ATOM     21  C   UNL     1       0.837   0.527   0.533  0.00  0.00    +0.003 A 
ATOM     22  C   UNL     1       2.214   0.597   0.429  0.00  0.00    +0.000 A 
ATOM     23  C   UNL     1       2.908  -0.393  -0.242  0.00  0.00    +0.001 A 
ATOM     24  C   UNL     1       2.226  -1.453  -0.808  0.00  0.00    +0.020 A 
ATOM     25  C   UNL     1       0.848  -1.527  -0.699  0.00  0.00    +0.043 A 
ATOM     26 CL   UNL     1      -0.009  -2.861  -1.405  0.00  0.00    -0.083 Cl
ENDBRANCH  19  20
BRANCH  19  28
ATOM     27  C   UNL     1      -3.266   0.252   1.234  0.00  0.00    -0.096 C 
ATOM     28  N   UNL     1      -1.798   0.242   1.190  0.00  0.00    +0.382 N 
ATOM     29  C   UNL     1      -1.273  -0.285   2.456  0.00  0.00    -0.096 C 
ATOM     30  H   UNL     1      -1.459   1.183   1.051  0.00  0.00    -0.082 HD
ENDBRANCH  19  28
ENDBRANCH  18  19
ENDBRANCH   1  18
TORSDOF 6
