REMARK  Name = ZINC63089116
REMARK  12 active torsions:
REMARK  status: ('A' for Active; 'I' for Inactive)
REMARK    1  A    between atoms: C_1  and  C_2
REMARK    2  A    between atoms: C_2  and  C_19
REMARK    3  A    between atoms: C_5  and  C_10
REMARK    4  A    between atoms: C_7  and  C_8
REMARK    5  A    between atoms: C_7  and  C_9
REMARK    6  A    between atoms: N_21  and  N_22
REMARK    7  A    between atoms: C_23  and  C_24
REMARK    8  A    between atoms: C_27  and  O_35
REMARK    9  A    between atoms: C_28  and  O_33
REMARK   10  A    between atoms: C_29  and  C_30
REMARK   11  A    between atoms: O_33  and  C_34
REMARK   12  A    between atoms: O_35  and  C_36
REMARK                            x       y       z     vdW  Elec       q    Type
REMARK                         _______ _______ _______ _____ _____    ______ ____
ROOT
ATOM      1  C   UNL     1       0.018   1.667   0.049  0.00  0.00    +0.021 C 
ATOM      2  C   UNL     1      -0.034   0.146  -0.114  0.00  0.00    +0.051 C 
ATOM      3  C   UNL     1       0.838  -0.287  -1.310  0.00  0.00    +0.017 C 
ATOM      4  C   UNL     1       2.194  -0.674  -0.672  0.00  0.00    +0.009 C 
ATOM      5  C   UNL     1       1.767  -1.364   0.648  0.00  0.00    +0.038 C 
ATOM      6  C   UNL     1       0.557  -0.538   1.131  0.00  0.00    -0.015 C 
ATOM      7  C   UNL     1      -0.486  -1.460   1.767  0.00  0.00    +0.012 C 
ATOM      8  C   UNL     1       1.012   0.516   2.142  0.00  0.00    +0.012 C 
ENDROOT
BRANCH   5   9
ATOM      9  C   UNL     1       2.901  -1.308   1.673  0.00  0.00    +0.178 C 
ATOM     10  N   UNL     1       2.500  -1.997   2.906  0.00  0.00    -0.363 N 
ATOM     11  C   UNL     1       3.331  -2.982   3.091  0.00  0.00    +0.060 A 
ATOM     12  C   UNL     1       3.443  -4.012   4.133  0.00  0.00    +0.027 A 
ATOM     13  C   UNL     1       4.431  -4.926   4.061  0.00  0.00    +0.002 A 
ATOM     14  C   UNL     1       5.375  -4.941   3.018  0.00  0.00    +0.002 A 
ATOM     15  C   UNL     1       5.362  -4.043   2.013  0.00  0.00    +0.027 A 
ATOM     16  C   UNL     1       4.329  -2.999   1.987  0.00  0.00    +0.060 A 
ATOM     17  N   UNL     1       4.077  -2.023   1.163  0.00  0.00    -0.363 N 
ATOM     18  H   UNL     1       1.753  -1.761   3.478  0.00  0.00    +0.162 HD
ATOM     19  H   UNL     1       4.575  -1.808   0.359  0.00  0.00    +0.162 HD
ENDBRANCH   5   9
BRANCH   2  20
ATOM     20  C   UNL     1      -1.458  -0.301  -0.322  0.00  0.00    +0.239 C 
ATOM     21  O   UNL     1      -1.744  -0.989  -1.280  0.00  0.00    -0.273 OA
ATOM     22  N   UNL     1      -2.414   0.062   0.556  0.00  0.00    -0.207 N 
ATOM     23  H   UNL     1      -2.198   0.663   1.286  0.00  0.00    +0.177 HD
BRANCH  22  24
ATOM     24  N   UNL     1      -3.719  -0.427   0.413  0.00  0.00    -0.188 NA
ATOM     25  C   UNL     1      -4.640  -0.077   1.260  0.00  0.00    +0.139 C 
BRANCH  25  26
ATOM     26  C   UNL     1      -6.010  -0.591   1.110  0.00  0.00    +0.012 A 
ATOM     27  C   UNL     1      -6.359  -1.341  -0.013  0.00  0.00    +0.014 A 
ATOM     28  C   UNL     1      -7.644  -1.823  -0.154  0.00  0.00    +0.050 A 
ATOM     29  C   UNL     1      -8.603  -1.570   0.816  0.00  0.00    +0.162 A 
ATOM     30  C   UNL     1      -8.281  -0.824   1.946  0.00  0.00    +0.176 A 
ATOM     31  C   UNL     1      -6.979  -0.332   2.106  0.00  0.00    +0.117 A 
BRANCH  31  32
ATOM     32  C   UNL     1      -6.625   0.451   3.297  0.00  0.00    +0.391 C 
ATOM     33  O   UNL     1      -5.519   0.967   3.383  0.00  0.00    -0.240 OA
ATOM     34  O   UNL     1      -7.436   0.587   4.203  0.00  0.00    -0.240 OA
ENDBRANCH  31  32
BRANCH  30  35
ATOM     35  O   UNL     1      -9.222  -0.578   2.891  0.00  0.00    -0.491 OA
ATOM     36  C   UNL     1      -9.339  -1.528   3.952  0.00  0.00    +0.277 C 
ENDBRANCH  30  35
BRANCH  29  37
ATOM     37  O   UNL     1      -9.865  -2.052   0.661  0.00  0.00    -0.491 OA
ATOM     38  C   UNL     1     -10.130  -2.809  -0.521  0.00  0.00    +0.277 C 
ENDBRANCH  29  37
ENDBRANCH  25  26
ENDBRANCH  22  24
ENDBRANCH   2  20
TORSDOF 7
