REMARK  Name = ZINC11898479
REMARK  8 active torsions:
REMARK  status: ('A' for Active; 'I' for Inactive)
REMARK    1  A    between atoms: C_1  and  C_2
REMARK    2  A    between atoms: C_3  and  N_9
REMARK    3  A    between atoms: C_10  and  C_12
REMARK    4  A    between atoms: N_14  and  C_15
REMARK    5  A    between atoms: C_15  and  C_16
REMARK    6  A    between atoms: C_16  and  C_18
REMARK    7  A    between atoms: C_16  and  N_59
REMARK    8  A    between atoms: N_22  and  C_23
REMARK                            x       y       z     vdW  Elec       q    Type
REMARK                         _______ _______ _______ _____ _____    ______ ____
ROOT
ATOM      1  C   UNL     1      -2.765   7.929   0.215  0.00  0.00    -0.003 C 
ENDROOT
BRANCH   1  11
ATOM      2  C   UNL     1      -3.022   6.170   1.863  0.00  0.00    -0.073 C 
ATOM      3  C   UNL     1      -3.698   5.880   3.204  0.00  0.00    +0.017 C 
ATOM      4  C   UNL     1      -5.196   5.941   3.049  0.00  0.00    -0.048 A 
ATOM      5  C   UNL     1      -5.986   5.372   4.035  0.00  0.00    +0.004 A 
ATOM      6  C   UNL     1      -7.362   5.413   3.937  0.00  0.00    +0.000 A 
ATOM      7  C   UNL     1      -7.956   6.025   2.848  0.00  0.00    +0.000 A 
ATOM      8  C   UNL     1      -7.170   6.590   1.864  0.00  0.00    +0.002 A 
ATOM      9  C   UNL     1      -5.786   6.548   1.961  0.00  0.00    -0.061 A 
ATOM     10  C   UNL     1      -4.971   7.174   0.861  0.00  0.00    -0.042 C 
ATOM     11  N   UNL     1      -3.597   7.422   1.330  0.00  0.00    +0.389 N 
ATOM     12  H   UNL     1      -3.620   8.126   2.077  0.00  0.00    -0.080 HD
ENDBRANCH   1  11
BRANCH   1  13
ATOM     13  C   UNL     1      -3.232   9.312  -0.155  0.00  0.00    +0.006 A 
ATOM     14  C   UNL     1      -4.192  10.018   0.477  0.00  0.00    +0.021 A 
ATOM     15  C   UNL     1      -4.315  11.254  -0.189  0.00  0.00    +0.019 A 
ATOM     16  C   UNL     1      -3.425  11.256  -1.203  0.00  0.00    +0.085 A 
ATOM     17  N   UNL     1      -2.754  10.069  -1.184  0.00  0.00    -0.355 N 
ATOM     18  C   UNL     1      -1.697   9.671  -2.116  0.00  0.00    +0.148 C 
ENDBRANCH   1  13
BRANCH   1  19
ATOM     19  C   UNL     1      -1.304   7.988   0.667  0.00  0.00    +0.095 C 
BRANCH  19  22
ATOM     20  C   UNL     1      -0.003   9.010   2.455  0.00  0.00    +0.299 C 
ATOM     21  O   UNL     1       1.006   8.627   1.900  0.00  0.00    -0.265 OA
ATOM     22  N   UNL     1      -1.210   8.742   1.919  0.00  0.00    -0.309 N 
ATOM     23  H   UNL     1      -2.017   9.048   2.363  0.00  0.00    +0.149 HD
BRANCH  20  25
ATOM     24  N   UNL     1       1.300  10.047   4.268  0.00  0.00    -0.277 N 
ATOM     25  C   UNL     1       0.093   9.778   3.732  0.00  0.00    +0.303 C 
ATOM     26  O   UNL     1      -0.916  10.162   4.287  0.00  0.00    -0.265 OA
ATOM     27  H   UNL     1       2.108   9.808   3.788  0.00  0.00    +0.155 HD
BRANCH  24  30
ATOM     28  C   UNL     1       3.692  11.451   4.904  0.00  0.00    +0.047 C 
ATOM     29  C   UNL     1       2.537  11.364   5.868  0.00  0.00    -0.011 A 
ATOM     30  C   UNL     1       1.388  10.668   5.517  0.00  0.00    +0.038 A 
ATOM     31  C   UNL     1       0.326  10.591   6.408  0.00  0.00    +0.023 A 
ATOM     32  C   UNL     1       0.415  11.207   7.642  0.00  0.00    +0.003 A 
ATOM     33  C   UNL     1       1.560  11.898   7.990  0.00  0.00    +0.020 A 
ATOM     34  C   UNL     1       2.621  11.978   7.104  0.00  0.00    +0.046 A 
ATOM     35 CL   UNL     1       4.057  12.847   7.546  0.00  0.00    -0.083 Cl
ENDBRANCH  24  30
ENDBRANCH  20  25
ENDBRANCH  19  22
ENDBRANCH   1  19
TORSDOF 6
