REMARK  Name = ZINC16025636
REMARK  15 active torsions:
REMARK  status: ('A' for Active; 'I' for Inactive)
REMARK    1  A    between atoms: C_1  and  C_2
REMARK    2  A    between atoms: C_2  and  C_3
REMARK    3  A    between atoms: C_2  and  C_4
REMARK    4  A    between atoms: C_4  and  C_6
REMARK    5  A    between atoms: C_4  and  N_21
REMARK    6  A    between atoms: N_8  and  C_9
REMARK    7  A    between atoms: C_9  and  C_10
REMARK    8  A    between atoms: C_10  and  C_11
REMARK    9  A    between atoms: C_14  and  O_19
REMARK   10  A    between atoms: C_15  and  O_17
REMARK   11  A    between atoms: O_17  and  C_18
REMARK   12  A    between atoms: O_19  and  C_20
REMARK   13  A    between atoms: C_22  and  C_24
REMARK   14  A    between atoms: C_26  and  C_39
REMARK   15  A    between atoms: C_26  and  C_40
REMARK                            x       y       z     vdW  Elec       q    Type
REMARK                         _______ _______ _______ _____ _____    ______ ____
ROOT
ATOM      1  C   UNL     1       0.100   0.914  -5.820  0.00  0.00    +0.161 C 
ENDROOT
BRANCH   1   2
ATOM      2  C   UNL     1      -0.924   0.435  -4.824  0.00  0.00    +0.234 C 
ATOM      3  O   UNL     1      -1.738   1.211  -4.370  0.00  0.00    -0.274 OA
ATOM      4  N   UNL     1      -0.934  -0.856  -4.436  0.00  0.00    -0.313 N 
ATOM      5  H   UNL     1      -0.337  -1.494  -4.857  0.00  0.00    +0.149 HD
BRANCH   4   6
ATOM      6  C   UNL     1      -1.848  -1.296  -3.378  0.00  0.00    +0.109 C 
BRANCH   6   7
ATOM      7  C   UNL     1      -1.659  -2.794  -3.132  0.00  0.00    +0.054 C 
BRANCH   7   8
ATOM      8  C   UNL     1      -2.599  -3.246  -2.044  0.00  0.00    -0.042 A 
ATOM      9  C   UNL     1      -2.190  -3.218  -0.724  0.00  0.00    +0.007 A 
ATOM     10  C   UNL     1      -3.050  -3.627   0.279  0.00  0.00    +0.049 A 
ATOM     11  C   UNL     1      -4.321  -4.076  -0.040  0.00  0.00    +0.161 A 
ATOM     12  C   UNL     1      -4.731  -4.109  -1.369  0.00  0.00    +0.162 A 
ATOM     13  C   UNL     1      -3.866  -3.693  -2.369  0.00  0.00    +0.053 A 
BRANCH  12  14
ATOM     14  O   UNL     1      -5.978  -4.549  -1.687  0.00  0.00    -0.491 OA
ATOM     15  C   UNL     1      -6.331  -4.555  -3.072  0.00  0.00    +0.277 C 
ENDBRANCH  12  14
BRANCH  11  16
ATOM     16  O   UNL     1      -5.166  -4.484   0.944  0.00  0.00    -0.491 OA
ATOM     17  C   UNL     1      -4.678  -4.422   2.286  0.00  0.00    +0.277 C 
ENDBRANCH  11  16
ENDBRANCH   7   8
ENDBRANCH   6   7
ENDBRANCH   4   6
ENDBRANCH   1   2
BRANCH   1  18
ATOM     18  N   UNL     1      -0.374   2.148  -6.452  0.00  0.00    -0.302 N 
ATOM     19  C   UNL     1      -0.011   2.439  -7.717  0.00  0.00    +0.236 C 
ATOM     20  O   UNL     1       0.691   1.670  -8.339  0.00  0.00    -0.274 OA
ATOM     21  H   UNL     1      -0.949   2.755  -5.961  0.00  0.00    +0.150 HD
BRANCH  19  22
ATOM     22  C   UNL     1      -0.477   3.721  -8.358  0.00  0.00    +0.179 C 
ATOM     23  C   UNL     1       0.467   4.866  -7.922  0.00  0.00    +0.040 C 
ATOM     24  S   UNL     1       0.912   5.618  -9.549  0.00  0.00    -0.125 S 
ATOM     25  C   UNL     1      -0.435   4.831 -10.530  0.00  0.00    +0.167 C 
ATOM     26  N   UNL     1      -0.529   3.528  -9.809  0.00  0.00    -0.269 N 
ATOM     27  C   UNL     1      -0.604   2.577 -10.764  0.00  0.00    +0.249 C 
ATOM     28  O   UNL     1      -1.026   1.449 -10.595  0.00  0.00    -0.270 OA
ATOM     29  C   UNL     1      -0.098   3.110 -12.043  0.00  0.00    +0.043 A 
ATOM     30  C   UNL     1       0.051   4.494 -11.910  0.00  0.00    -0.005 A 
ATOM     31  C   UNL     1       0.539   5.241 -12.957  0.00  0.00    +0.007 A 
ATOM     32  C   UNL     1       0.868   4.626 -14.153  0.00  0.00    +0.000 A 
ATOM     33  C   UNL     1       0.707   3.260 -14.301  0.00  0.00    +0.001 A 
ATOM     34  C   UNL     1       0.227   2.499 -13.255  0.00  0.00    +0.013 A 
ATOM     35  C   UNL     1      -0.266   5.873  -7.035  0.00  0.00    +0.025 C 
ATOM     36  C   UNL     1       1.707   4.315  -7.215  0.00  0.00    +0.025 C 
ENDBRANCH  19  22
ENDBRANCH   1  18
BRANCH   1  38
ATOM     37  C   UNL     1       2.509   1.496  -6.134  0.00  0.00    +0.009 C 
ATOM     38  C   UNL     1       1.424   1.184  -5.102  0.00  0.00    +0.012 C 
ATOM     39  C   UNL     1       1.258   2.378  -4.160  0.00  0.00    +0.009 C 
ENDBRANCH   1  38
TORSDOF 9
