REMARK  Name = ZINC00041760
REMARK  2 active torsions:
REMARK  status: ('A' for Active; 'I' for Inactive)
REMARK    1  A    between atoms: C_4  and  C_7
REMARK    2  A    between atoms: N_15  and  C_16
REMARK                            x       y       z     vdW  Elec       q    Type
REMARK                         _______ _______ _______ _____ _____    ______ ____
ROOT
ATOM      1  C   UNL     1      -5.898   1.404   0.738  0.00  0.00    +0.158 C 
ATOM      2  C   UNL     1      -6.197   2.699   0.835  0.00  0.00    +0.207 C 
ATOM      3  S   UNL     1      -4.991   3.869   0.282  0.00  0.00    +0.100 S 
ATOM      4  O   UNL     1      -5.371   4.268  -1.027  0.00  0.00    -0.147 OA
ATOM      5  O   UNL     1      -4.798   4.796   1.342  0.00  0.00    -0.147 OA
ATOM      6  N   UNL     1      -3.581   3.004   0.139  0.00  0.00    -0.076 NA
ATOM      7  C   UNL     1      -3.623   1.710   0.133  0.00  0.00    +0.311 C 
ATOM      8  O   UNL     1      -4.728   0.973   0.232  0.00  0.00    -0.424 OA
ATOM      9  N   UNL     1      -2.427   1.041   0.020  0.00  0.00    -0.268 N 
ATOM     10  H   UNL     1      -2.404   0.074   0.094  0.00  0.00    +0.157 HD
ENDROOT
BRANCH   1  14
ATOM     11  C   UNL     1      -8.736  -1.462   2.076  0.00  0.00    +0.000 A 
ATOM     12  C   UNL     1      -7.527  -1.883   1.551  0.00  0.00    +0.001 A 
ATOM     13  C   UNL     1      -6.601  -0.957   1.115  0.00  0.00    +0.011 A 
ATOM     14  C   UNL     1      -6.887   0.405   1.204  0.00  0.00    +0.019 A 
ATOM     15  C   UNL     1      -8.105   0.823   1.738  0.00  0.00    +0.011 A 
ATOM     16  C   UNL     1      -9.025  -0.112   2.166  0.00  0.00    +0.001 A 
ENDBRANCH   1  14
BRANCH   9  17
ATOM     17  C   UNL     1      -1.245   1.755  -0.203  0.00  0.00    +0.035 A 
ATOM     18  C   UNL     1      -0.052   1.315   0.355  0.00  0.00    +0.023 A 
ATOM     19  C   UNL     1       1.115   2.019   0.130  0.00  0.00    +0.002 A 
ATOM     20  C   UNL     1       1.095   3.163  -0.647  0.00  0.00    +0.000 A 
ATOM     21  C   UNL     1      -0.093   3.606  -1.200  0.00  0.00    +0.002 A 
ATOM     22  C   UNL     1      -1.263   2.906  -0.979  0.00  0.00    +0.023 A 
ENDBRANCH   9  17
TORSDOF 2
