REMARK  Name = ZINC10042292
REMARK  14 active torsions:
REMARK  status: ('A' for Active; 'I' for Inactive)
REMARK    1  A    between atoms: C_1  and  C_2
REMARK    2  A    between atoms: C_2  and  C_3
REMARK    3  A    between atoms: C_2  and  C_4
REMARK    4  A    between atoms: C_4  and  C_6
REMARK    5  A    between atoms: C_4  and  N_28
REMARK    6  A    between atoms: N_8  and  N_9
REMARK    7  A    between atoms: C_10  and  C_11
REMARK    8  A    between atoms: C_14  and  C_16
REMARK    9  A    between atoms: C_21  and  C_22
REMARK   10  A    between atoms: C_22  and  O_24
REMARK   11  A    between atoms: O_24  and  C_25
REMARK   12  A    between atoms: C_25  and  C_26
REMARK   13  A    between atoms: C_25  and  C_27
REMARK   14  A    between atoms: C_29  and  C_31
REMARK                            x       y       z     vdW  Elec       q    Type
REMARK                         _______ _______ _______ _____ _____    ______ ____
ROOT
ATOM      1  C   UNL     1      -1.374  -2.016  -0.794  0.00  0.00    +0.253 C 
ATOM      2  O   UNL     1      -0.216  -1.673  -0.681  0.00  0.00    -0.272 OA
ATOM      3  N   UNL     1      -2.100  -1.600  -1.851  0.00  0.00    -0.205 N 
ATOM      4  H   UNL     1      -1.682  -1.071  -2.548  0.00  0.00    +0.177 HD
ENDROOT
BRANCH   3   5
ATOM      5  N   UNL     1      -3.458  -1.932  -1.942  0.00  0.00    -0.185 NA
ATOM      6  C   UNL     1      -4.133  -1.623  -3.011  0.00  0.00    +0.176 C 
BRANCH   6   7
ATOM      7  C   UNL     1      -3.438  -1.103  -4.191  0.00  0.00    +0.148 A 
ATOM      8  C   UNL     1      -4.019  -0.802  -5.405  0.00  0.00    +0.051 A 
ATOM      9  C   UNL     1      -2.996  -0.334  -6.238  0.00  0.00    +0.050 A 
ATOM     10  C   UNL     1      -1.839  -0.375  -5.513  0.00  0.00    +0.137 A 
ATOM     11  O   UNL     1      -2.119  -0.840  -4.280  0.00  0.00    -0.454 OA
BRANCH  10  12
ATOM     12  C   UNL     1      -0.508   0.023  -5.999  0.00  0.00    +0.031 A 
ATOM     13  C   UNL     1       0.038  -0.583  -7.133  0.00  0.00    +0.012 A 
ATOM     14  C   UNL     1       1.285  -0.205  -7.583  0.00  0.00    +0.001 A 
ATOM     15  C   UNL     1       2.006   0.774  -6.918  0.00  0.00    +0.001 A 
ATOM     16  C   UNL     1       1.488   1.385  -5.797  0.00  0.00    +0.016 A 
ATOM     17  C   UNL     1       0.225   1.024  -5.326  0.00  0.00    +0.070 A 
BRANCH  17  18
ATOM     18  C   UNL     1      -0.337   1.677  -4.131  0.00  0.00    +0.340 C 
ATOM     19  O   UNL     1      -1.419   1.330  -3.700  0.00  0.00    -0.245 OA
BRANCH  18  20
ATOM     20  O   UNL     1       0.349   2.661  -3.516  0.00  0.00    -0.458 OA
BRANCH  20  21
ATOM     21  C   UNL     1      -0.208   3.179  -2.279  0.00  0.00    +0.171 C 
ATOM     22  C   UNL     1       0.322   2.362  -1.099  0.00  0.00    +0.052 C 
ATOM     23  C   UNL     1       0.201   4.644  -2.110  0.00  0.00    +0.052 C 
ENDBRANCH  20  21
ENDBRANCH  18  20
ENDBRANCH  17  18
ENDBRANCH  10  12
ENDBRANCH   6   7
ENDBRANCH   3   5
BRANCH   1  24
ATOM     24  C   UNL     1      -2.001  -2.907   0.247  0.00  0.00    +0.163 C 
BRANCH  24  25
ATOM     25  N   UNL     1      -1.218  -2.839   1.483  0.00  0.00    -0.300 N 
ATOM     26  C   UNL     1      -1.803  -3.112   2.667  0.00  0.00    +0.245 C 
ATOM     27  O   UNL     1      -2.980  -3.415   2.708  0.00  0.00    -0.270 OA
ATOM     28  H   UNL     1      -0.280  -2.597   1.451  0.00  0.00    +0.150 HD
BRANCH  26  29
ATOM     29  C   UNL     1      -1.014  -3.043   3.915  0.00  0.00    +0.038 A 
ATOM     30  C   UNL     1      -1.617  -3.325   5.142  0.00  0.00    +0.013 A 
ATOM     31  C   UNL     1      -0.875  -3.259   6.303  0.00  0.00    +0.002 A 
ATOM     32  C   UNL     1       0.464  -2.915   6.254  0.00  0.00    +0.020 A 
ATOM     33  C   UNL     1       1.069  -2.634   5.040  0.00  0.00    +0.042 A 
ATOM     34  C   UNL     1       0.338  -2.701   3.870  0.00  0.00    +0.033 A 
ATOM     35 CL   UNL     1       2.750  -2.205   4.989  0.00  0.00    -0.084 Cl
ENDBRANCH  26  29
ENDBRANCH  24  25
BRANCH  24  37
ATOM     36  C   UNL     1      -2.518  -5.276   0.849  0.00  0.00    +0.009 C 
ATOM     37  C   UNL     1      -2.023  -4.350  -0.264  0.00  0.00    +0.012 C 
ATOM     38  C   UNL     1      -2.963  -4.450  -1.467  0.00  0.00    +0.009 C 
ENDBRANCH  24  37
ENDBRANCH   1  24
TORSDOF 10
