REMARK  Name = ZINC33626771
REMARK  13 active torsions:
REMARK  status: ('A' for Active; 'I' for Inactive)
REMARK    1  A    between atoms: C_1  and  C_2
REMARK    2  A    between atoms: C_2  and  C_3
REMARK    3  A    between atoms: C_2  and  C_4
REMARK    4  A    between atoms: C_14  and  C_40
REMARK    5  A    between atoms: C_18  and  C_19
REMARK    6  A    between atoms: C_18  and  C_20
REMARK    7  A    between atoms: C_20  and  N_21
REMARK    8  A    between atoms: C_22  and  C_24
REMARK    9  A    between atoms: C_27  and  C_29
REMARK   10  A    between atoms: C_29  and  C_31
REMARK   11  A    between atoms: C_29  and  N_39
REMARK   12  A    between atoms: C_31  and  C_32
REMARK   13  A    between atoms: C_35  and  O_38
REMARK                            x       y       z     vdW  Elec       q    Type
REMARK                         _______ _______ _______ _____ _____    ______ ____
ROOT
ATOM      1  N   UNL     1       7.089  -3.001  -1.400  0.00  0.00    -0.309 N 
ATOM      2  C   UNL     1       8.134  -2.617  -2.158  0.00  0.00    +0.266 C 
ATOM      3  O   UNL     1       8.068  -1.594  -2.813  0.00  0.00    -0.268 OA
ATOM      4  H   UNL     1       7.149  -3.926  -0.808  0.00  0.00    +0.149 HD
ENDROOT
BRANCH   2   5
ATOM      5  C   UNL     1       9.359  -3.436  -2.194  0.00  0.00    +0.163 A 
ATOM      6  C   UNL     1      10.487  -3.174  -2.910  0.00  0.00    +0.230 A 
ATOM      7  O   UNL     1      11.352  -4.169  -2.656  0.00  0.00    -0.449 OA
ATOM      8  C   UNL     1      10.769  -5.024  -1.804  0.00  0.00    +0.182 A 
ATOM      9  N   UNL     1       9.578  -4.594  -1.514  0.00  0.00    -0.210 NA
BRANCH   8  10
ATOM     10  C   UNL     1      11.399  -6.281  -1.262  0.00  0.00    +0.017 C 
BRANCH  10  11
ATOM     11  N   UNL     1      12.055  -7.011  -2.355  0.00  0.00    +0.386 N 
ATOM     12  H   UNL     1      12.515  -7.928  -1.960  0.00  0.00    -0.089 HD
ATOM     13  H   UNL     1      12.832  -6.375  -2.805  0.00  0.00    -0.089 HD
ATOM     14  H   UNL     1      11.309  -7.274  -3.119  0.00  0.00    -0.089 HD
ENDBRANCH  10  11
BRANCH  10  15
ATOM     15  C   UNL     1      12.437  -5.914  -0.199  0.00  0.00    +0.028 C 
BRANCH  15  16
ATOM     16  C   UNL     1      12.979  -7.172   0.430  0.00  0.00    -0.048 A 
ATOM     17  C   UNL     1      12.366  -7.702   1.550  0.00  0.00    +0.007 A 
ATOM     18  C   UNL     1      12.857  -8.859   2.125  0.00  0.00    +0.045 A 
ATOM     19  C   UNL     1      13.973  -9.481   1.584  0.00  0.00    +0.117 A 
ATOM     20  C   UNL     1      14.589  -8.944   0.463  0.00  0.00    +0.045 A 
ATOM     21  C   UNL     1      14.091  -7.790  -0.111  0.00  0.00    +0.007 A 
BRANCH  19  22
ATOM     22  O   UNL     1      14.461 -10.616   2.151  0.00  0.00    -0.507 OA
ATOM     23  H   UNL     1      15.345 -11.109   1.721  0.00  0.00    +0.292 HD
ENDBRANCH  19  22
ENDBRANCH  15  16
ENDBRANCH  10  15
ENDBRANCH   8  10
ENDBRANCH   2   5
BRANCH   1  24
ATOM     24  C   UNL     1       5.871  -2.187  -1.364  0.00  0.00    +0.111 C 
BRANCH  24  38
ATOM     25  C   UNL     1      -0.093   1.382  -0.052  0.00  0.00    -0.045 A 
ATOM     26  C   UNL     1       1.093   2.092  -0.062  0.00  0.00    +0.004 A 
ATOM     27  C   UNL     1       2.296   1.416  -0.069  0.00  0.00    +0.005 A 
ATOM     28  C   UNL     1       2.323   0.028  -0.066  0.00  0.00    -0.038 A 
ATOM     29  C   UNL     1       1.143  -0.681  -0.060  0.00  0.00    -0.043 A 
ATOM     30  C   UNL     1      -0.067   0.003  -0.053  0.00  0.00    +0.007 A 
ATOM     31  C   UNL     1       1.093  -2.187  -0.070  0.00  0.00    +0.036 C 
ATOM     32  C   UNL     1       2.450  -2.777   0.313  0.00  0.00    +0.009 C 
ATOM     33  C   UNL     1       3.525  -2.092  -0.533  0.00  0.00    +0.007 C 
ATOM     34  C   UNL     1       3.672  -0.649  -0.061  0.00  0.00    -0.003 C 
ATOM     35  C   UNL     1       4.224  -0.619   1.367  0.00  0.00    +0.011 C 
ATOM     36  C   UNL     1       5.569  -1.344   1.422  0.00  0.00    +0.001 C 
ATOM     37  C   UNL     1       5.369  -2.803   1.002  0.00  0.00    +0.008 C 
ATOM     38  C   UNL     1       4.847  -2.841  -0.435  0.00  0.00    -0.013 C 
ATOM     39  C   UNL     1       4.638  -4.296  -0.860  0.00  0.00    +0.013 C 
ATOM     40  C   UNL     1       4.628   0.099  -0.993  0.00  0.00    +0.016 C 
BRANCH  25  42
ATOM     41  C   UNL     1      -1.503   2.990   1.202  0.00  0.00    +0.012 C 
ATOM     42  C   UNL     1      -1.411   2.112  -0.048  0.00  0.00    +0.013 C 
ATOM     43  C   UNL     1      -1.512   2.991  -1.296  0.00  0.00    +0.012 C 
ENDBRANCH  25  42
ENDBRANCH  24  38
ENDBRANCH   1  24
TORSDOF 9
