REMARK  Name = ZINC06859060
REMARK  9 active torsions:
REMARK  status: ('A' for Active; 'I' for Inactive)
REMARK    1  A    between atoms: C_1  and  C_2
REMARK    2  A    between atoms: C_4  and  O_24
REMARK    3  A    between atoms: C_5  and  C_21
REMARK    4  A    between atoms: C_7  and  N_8
REMARK    5  A    between atoms: N_8  and  S_9
REMARK    6  A    between atoms: S_9  and  C_12
REMARK    7  A    between atoms: C_17  and  N_18
REMARK    8  A    between atoms: C_21  and  C_22
REMARK    9  A    between atoms: C_21  and  C_23
REMARK                            x       y       z     vdW  Elec       q    Type
REMARK                         _______ _______ _______ _____ _____    ______ ____
ROOT
ATOM      1  N   UNL     1       0.468   0.227   0.277  0.00  0.00    -0.216 N 
ATOM      2  H   UNL     1       0.174  -0.451  -0.351  0.00  0.00    +0.174 HD
ENDROOT
BRANCH   1   9
ATOM      3  C   UNL     1      -0.648   1.312  -2.103  0.00  0.00    +0.046 C 
ATOM      4  C   UNL     1       0.455   2.010  -1.351  0.00  0.00    -0.025 A 
ATOM      5  C   UNL     1       0.949   3.216  -1.810  0.00  0.00    +0.051 A 
ATOM      6  C   UNL     1       1.969   3.856  -1.121  0.00  0.00    +0.121 A 
ATOM      7  C   UNL     1       2.490   3.289   0.033  0.00  0.00    -0.002 A 
ATOM      8  C   UNL     1       1.993   2.087   0.497  0.00  0.00    +0.032 A 
ATOM      9  C   UNL     1       0.972   1.445  -0.192  0.00  0.00    +0.051 A 
BRANCH   7  10
ATOM     10  C   UNL     1       3.598   3.984   0.780  0.00  0.00    +0.016 C 
ATOM     11  C   UNL     1       3.113   4.353   2.184  0.00  0.00    +0.012 C 
ATOM     12  C   UNL     1       4.806   3.051   0.886  0.00  0.00    +0.012 C 
ENDBRANCH   7  10
BRANCH   6  13
ATOM     13  O   UNL     1       2.459   5.040  -1.577  0.00  0.00    -0.506 OA
ATOM     14  H   UNL     1       3.199   4.948  -2.193  0.00  0.00    +0.292 HD
ENDBRANCH   6  13
ENDBRANCH   1   9
BRANCH   1  15
ATOM     15  S   UNL     1       0.374  -0.058   1.906  0.00  0.00    +0.075 S 
ATOM     16  O   UNL     1      -0.301  -1.298   2.063  0.00  0.00    -0.150 OA
ATOM     17  O   UNL     1       1.672   0.175   2.434  0.00  0.00    -0.150 OA
BRANCH  15  18
ATOM     18  C   UNL     1      -0.678   1.179   2.591  0.00  0.00    +0.139 A 
ATOM     19  C   UNL     1      -0.162   2.118   3.465  0.00  0.00    +0.031 A 
ATOM     20  C   UNL     1      -0.986   3.091   3.999  0.00  0.00    +0.002 A 
ATOM     21  C   UNL     1      -2.328   3.119   3.667  0.00  0.00    +0.002 A 
ATOM     22  C   UNL     1      -2.844   2.177   2.797  0.00  0.00    +0.035 A 
ATOM     23  C   UNL     1      -2.019   1.207   2.259  0.00  0.00    +0.153 A 
BRANCH  23  24
ATOM     24  N   UNL     1      -2.572   0.198   1.328  0.00  0.00    +0.058 N 
ATOM     25  O   UNL     1      -3.675  -0.277   1.530  0.00  0.00    -0.126 OA
ATOM     26  O   UNL     1      -1.924  -0.158   0.360  0.00  0.00    -0.126 OA
ENDBRANCH  23  24
ENDBRANCH  15  18
ENDBRANCH   1  15
TORSDOF 6
