REMARK  Name = ZINC36495577
REMARK  19 active torsions:
REMARK  status: ('A' for Active; 'I' for Inactive)
REMARK    1  A    between atoms: C_1  and  C_2
REMARK    2  A    between atoms: C_2  and  C_3
REMARK    3  A    between atoms: C_2  and  C_4
REMARK    4  A    between atoms: C_2  and  C_5
REMARK    5  A    between atoms: C_5  and  C_6
REMARK    6  A    between atoms: C_6  and  C_7
REMARK    7  A    between atoms: C_6  and  C_8
REMARK    8  A    between atoms: C_6  and  N_9
REMARK    9  A    between atoms: C_10  and  C_12
REMARK   10  A    between atoms: C_12  and  C_14
REMARK   11  A    between atoms: C_12  and  N_23
REMARK   12  A    between atoms: C_15  and  O_22
REMARK   13  A    between atoms: C_17  and  O_21
REMARK   14  A    between atoms: C_19  and  O_20
REMARK   15  A    between atoms: N_23  and  C_24
REMARK   16  A    between atoms: C_24  and  C_25
REMARK   17  A    between atoms: C_30  and  C_32
REMARK   18  A    between atoms: C_32  and  C_33
REMARK   19  A    between atoms: C_33  and  C_34
REMARK                            x       y       z     vdW  Elec       q    Type
REMARK                         _______ _______ _______ _____ _____    ______ ____
ROOT
ATOM      1  C   UNL     1       5.211  -0.116  -4.467  0.00  0.00    +0.200 C 
ENDROOT
BRANCH   1   2
ATOM      2  C   UNL     1       4.448   0.587  -5.559  0.00  0.00    +0.065 A 
ATOM      3  C   UNL     1       4.629   1.947  -5.766  0.00  0.00    +0.129 A 
ATOM      4  C   UNL     1       3.926   2.594  -6.771  0.00  0.00    +0.091 A 
ATOM      5  C   UNL     1       3.043   1.883  -7.569  0.00  0.00    +0.124 A 
ATOM      6  C   UNL     1       2.863   0.523  -7.363  0.00  0.00    +0.091 A 
ATOM      7  C   UNL     1       3.569  -0.125  -6.361  0.00  0.00    +0.129 A 
BRANCH   7   8
ATOM      8  O   UNL     1       3.396  -1.458  -6.161  0.00  0.00    -0.506 OA
ATOM      9  H   UNL     1       2.691  -1.674  -5.536  0.00  0.00    +0.292 HD
ENDBRANCH   7   8
BRANCH   5  10
ATOM     10  O   UNL     1       2.354   2.518  -8.554  0.00  0.00    -0.507 OA
ATOM     11  H   UNL     1       2.808   2.529  -9.408  0.00  0.00    +0.292 HD
ENDBRANCH   5  10
BRANCH   3  12
ATOM     12  O   UNL     1       5.494   2.644  -4.984  0.00  0.00    -0.506 OA
ATOM     13  H   UNL     1       6.378   2.738  -5.363  0.00  0.00    +0.292 HD
ENDBRANCH   3  12
ENDBRANCH   1   2
BRANCH   1  15
ATOM     14  N   UNL     1       3.328  -0.239  -2.868  0.00  0.00    -0.308 N 
ATOM     15  C   UNL     1       4.578   0.189  -3.134  0.00  0.00    +0.239 C 
ATOM     16  O   UNL     1       5.192   0.820  -2.301  0.00  0.00    -0.273 OA
ATOM     17  H   UNL     1       2.836  -0.744  -3.535  0.00  0.00    +0.149 HD
BRANCH  14  18
ATOM     18  C   UNL     1       2.712   0.057  -1.573  0.00  0.00    +0.030 C 
ATOM     19  C   UNL     1       2.951   1.526  -1.218  0.00  0.00    +0.031 C 
ATOM     20  C   UNL     1       3.333  -0.835  -0.496  0.00  0.00    +0.031 C 
BRANCH  18  21
ATOM     21  C   UNL     1       1.207  -0.209  -1.650  0.00  0.00    +0.031 C 
BRANCH  21  23
ATOM     22  C   UNL     1       0.903  -0.566  -4.105  0.00  0.00    +0.010 C 
ATOM     23  C   UNL     1       0.648   0.394  -2.941  0.00  0.00    -0.036 C 
ATOM     24  C   UNL     1       1.339   1.730  -3.220  0.00  0.00    +0.010 C 
ATOM     25  C   UNL     1      -0.857   0.621  -2.787  0.00  0.00    +0.010 C 
ENDBRANCH  21  23
ENDBRANCH  18  21
ENDBRANCH  14  18
ENDBRANCH   1  15
BRANCH   1  26
ATOM     26  N   UNL     1       6.601   0.348  -4.465  0.00  0.00    -0.278 N 
ATOM     27  C   UNL     1       7.401   0.083  -5.516  0.00  0.00    +0.217 C 
ATOM     28  O   UNL     1       6.972  -0.540  -6.464  0.00  0.00    -0.276 OA
BRANCH  26  29
ATOM     29  C   UNL     1       7.120   1.101  -3.320  0.00  0.00    +0.183 C 
BRANCH  29  30
ATOM     30  C   UNL     1       7.555   0.140  -2.243  0.00  0.00    +0.122 A 
ATOM     31  C   UNL     1       8.806  -0.318  -2.057  0.00  0.00    +0.046 A 
ATOM     32  C   UNL     1       8.762  -1.188  -0.944  0.00  0.00    +0.041 A 
ATOM     33  C   UNL     1       7.487  -1.209  -0.516  0.00  0.00    +0.195 A 
ATOM     34  O   UNL     1       6.762  -0.398  -1.303  0.00  0.00    -0.466 OA
ENDBRANCH  29  30
ENDBRANCH  26  29
BRANCH  27  35
ATOM     35  C   UNL     1       8.831   0.561  -5.514  0.00  0.00    +0.096 C 
BRANCH  35  36
ATOM     36  C   UNL     1       9.514   0.131  -6.814  0.00  0.00    +0.013 C 
BRANCH  36  37
ATOM     37  C   UNL     1      10.965   0.617  -6.811  0.00  0.00    -0.011 C 
ATOM     38  C   UNL     1      10.991   2.146  -6.827  0.00  0.00    +0.003 C 
ATOM     39  C   UNL     1      12.442   2.631  -6.825  0.00  0.00    +0.000 C 
ATOM     40  C   UNL     1      13.161   2.096  -8.065  0.00  0.00    +0.000 C 
ATOM     41  C   UNL     1      13.135   0.567  -8.050  0.00  0.00    +0.000 C 
ATOM     42  C   UNL     1      11.684   0.082  -8.052  0.00  0.00    +0.003 C 
ENDBRANCH  36  37
ENDBRANCH  35  36
ENDBRANCH  27  35
ENDBRANCH   1  26
TORSDOF 14
