REMARK  Name = ZINC63738910
REMARK  11 active torsions:
REMARK  status: ('A' for Active; 'I' for Inactive)
REMARK    1  A    between atoms: C_1  and  C_2
REMARK    2  A    between atoms: C_2  and  C_4
REMARK    3  A    between atoms: C_2  and  C_24
REMARK    4  A    between atoms: C_10  and  C_12
REMARK    5  A    between atoms: C_18  and  O_22
REMARK    6  A    between atoms: O_22  and  C_23
REMARK    7  A    between atoms: N_26  and  C_27
REMARK    8  A    between atoms: C_27  and  C_28
REMARK    9  A    between atoms: C_28  and  C_29
REMARK   10  A    between atoms: C_29  and  N_30
REMARK   11  A    between atoms: N_33  and  C_36
REMARK                            x       y       z     vdW  Elec       q    Type
REMARK                         _______ _______ _______ _____ _____    ______ ____
ROOT
ATOM      1  C   UNL     1       0.718  -0.497  -1.257  0.00  0.00    +0.004 C 
ATOM      2  C   UNL     1       0.740  -2.028  -1.264  0.00  0.00    +0.023 C 
ATOM      3  C   UNL     1       1.488  -2.518  -2.508  0.00  0.00    +0.108 C 
ATOM      4  N   UNL     1       0.870  -1.917  -3.698  0.00  0.00    -0.300 N 
ATOM      5  C   UNL     1       0.717  -0.457  -3.754  0.00  0.00    +0.108 C 
ATOM      6  C   UNL     1      -0.022   0.010  -2.497  0.00  0.00    +0.023 C 
ATOM      7  C   UNL     1       0.453  -2.692  -4.719  0.00  0.00    +0.242 C 
ATOM      8  O   UNL     1       0.585  -3.896  -4.661  0.00  0.00    -0.273 OA
ENDROOT
BRANCH   7   9
ATOM      9  C   UNL     1      -0.179  -2.061  -5.934  0.00  0.00    +0.190 C 
ATOM     10  C   UNL     1       0.811  -1.149  -6.622  0.00  0.00    +0.016 C 
ATOM     11  C   UNL     1       0.980  -1.649  -7.866  0.00  0.00    -0.003 A 
ATOM     12  C   UNL     1       1.803  -1.220  -9.005  0.00  0.00    +0.013 A 
ATOM     13  C   UNL     1       1.764  -1.935 -10.149  0.00  0.00    +0.046 A 
ATOM     14  C   UNL     1       0.955  -3.081 -10.277  0.00  0.00    +0.122 A 
ATOM     15  C   UNL     1       0.169  -3.535  -9.267  0.00  0.00    +0.071 A 
ATOM     16  C   UNL     1       0.137  -2.856  -8.024  0.00  0.00    +0.047 A 
ATOM     17  N   UNL     1      -0.529  -3.093  -6.915  0.00  0.00    -0.370 N 
ATOM     18  H   UNL     1      -1.147  -3.826  -6.771  0.00  0.00    +0.161 HD
BRANCH  14  19
ATOM     19  O   UNL     1       0.960  -3.756 -11.453  0.00  0.00    -0.495 OA
ATOM     20  C   UNL     1       1.800  -3.245 -12.490  0.00  0.00    +0.277 C 
ENDBRANCH  14  19
ENDBRANCH   7   9
BRANCH   1  22
ATOM     21  C   UNL     1      -0.019   1.526   0.010  0.00  0.00    +0.017 C 
ATOM     22  C   UNL     1       0.002  -0.004   0.002  0.00  0.00    +0.075 C 
BRANCH  22  23
ATOM     23  C   UNL     1       0.731  -0.503   1.223  0.00  0.00    +0.216 C 
ATOM     24  O   UNL     1       1.725  -1.187   1.099  0.00  0.00    -0.276 OA
ATOM     25  N   UNL     1       0.278  -0.191   2.453  0.00  0.00    -0.315 N 
ATOM     26  H   UNL     1      -0.517   0.356   2.553  0.00  0.00    +0.149 HD
BRANCH  25  27
ATOM     27  C   UNL     1       0.986  -0.676   3.640  0.00  0.00    +0.105 C 
BRANCH  27  28
ATOM     28  C   UNL     1       0.270  -0.182   4.899  0.00  0.00    +0.034 C 
BRANCH  28  29
ATOM     29  C   UNL     1       1.010  -0.689   6.138  0.00  0.00    +0.086 C 
BRANCH  29  30
ATOM     30  N   UNL     1       0.323  -0.215   7.347  0.00  0.00    -0.306 NA
ATOM     31  C   UNL     1       0.413   1.247   7.465  0.00  0.00    +0.066 C 
ATOM     32  C   UNL     1      -0.364   1.704   8.702  0.00  0.00    -0.064 C 
ATOM     33  N   UNL     1       0.197   1.063   9.898  0.00  0.00    +0.379 N 
ATOM     34  C   UNL     1       0.077  -0.396   9.776  0.00  0.00    -0.064 C 
ATOM     35  C   UNL     1       0.858  -0.871   8.549  0.00  0.00    +0.066 C 
ATOM     36  C   UNL     1      -0.538   1.516  11.087  0.00  0.00    -0.096 C 
ATOM     37  H   UNL     1       1.170   1.314   9.989  0.00  0.00    -0.082 HD
ENDBRANCH  29  30
ENDBRANCH  28  29
ENDBRANCH  27  28
ENDBRANCH  25  27
ENDBRANCH  22  23
ENDBRANCH   1  22
TORSDOF 8
