REMARK  Name = ZINC21755109
REMARK  10 active torsions:
REMARK  status: ('A' for Active; 'I' for Inactive)
REMARK    1  A    between atoms: C_1  and  N_2
REMARK    2  A    between atoms: N_2  and  C_3
REMARK    3  A    between atoms: N_2  and  C_4
REMARK    4  A    between atoms: C_7  and  C_10
REMARK    5  A    between atoms: C_10  and  C_12
REMARK    6  A    between atoms: C_10  and  N_24
REMARK    7  A    between atoms: C_12  and  N_13
REMARK    8  A    between atoms: N_13  and  S_14
REMARK    9  A    between atoms: S_14  and  C_17
REMARK   10  A    between atoms: N_27  and  C_30
REMARK                            x       y       z     vdW  Elec       q    Type
REMARK                         _______ _______ _______ _____ _____    ______ ____
ROOT
ATOM      1  C   UNL     1       1.668   7.521  -1.025  0.00  0.00    +0.102 C 
ENDROOT
BRANCH   1   5
ATOM      2  C   UNL     1      -0.403   8.923   2.441  0.00  0.00    +0.029 A 
ATOM      3  C   UNL     1       0.980   8.797   2.460  0.00  0.00    +0.023 A 
ATOM      4  C   UNL     1       1.646   8.344   1.339  0.00  0.00    +0.007 A 
ATOM      5  C   UNL     1       0.938   8.016   0.197  0.00  0.00    -0.029 A 
ATOM      6  C   UNL     1      -0.439   8.145   0.172  0.00  0.00    +0.007 A 
ATOM      7  C   UNL     1      -1.112   8.592   1.292  0.00  0.00    +0.023 A 
BRANCH   2   9
ATOM      8  C   UNL     1      -0.326   9.836   4.744  0.00  0.00    +0.129 C 
ATOM      9  N   UNL     1      -1.080   9.381   3.573  0.00  0.00    -0.336 N 
ATOM     10  C   UNL     1      -2.545   9.407   3.591  0.00  0.00    +0.129 C 
ENDBRANCH   2   9
ENDBRANCH   1   5
BRANCH   1  11
ATOM     11  N   UNL     1       1.404   6.088  -1.207  0.00  0.00    -0.291 NA
ATOM     12  C   UNL     1       2.028   5.298  -0.136  0.00  0.00    +0.104 C 
ATOM     13  C   UNL     1       1.798   3.808  -0.405  0.00  0.00    +0.120 C 
ATOM     14  N   UNL     1       0.354   3.544  -0.479  0.00  0.00    -0.327 N 
ATOM     15  C   UNL     1      -0.269   4.334  -1.549  0.00  0.00    +0.120 C 
ATOM     16  C   UNL     1      -0.039   5.823  -1.281  0.00  0.00    +0.104 C 
BRANCH  14  17
ATOM     17  C   UNL     1       0.103   2.179  -0.652  0.00  0.00    +0.030 A 
ATOM     18  C   UNL     1      -1.204   1.719  -0.745  0.00  0.00    +0.026 A 
ATOM     19  C   UNL     1      -1.450   0.371  -0.917  0.00  0.00    +0.040 A 
ATOM     20  C   UNL     1      -0.394  -0.522  -0.996  0.00  0.00    +0.124 A 
ATOM     21  C   UNL     1       0.910  -0.065  -0.902  0.00  0.00    +0.040 A 
ATOM     22  C   UNL     1       1.160   1.282  -0.731  0.00  0.00    +0.026 A 
ATOM     23  F   UNL     1      -0.637  -1.840  -1.163  0.00  0.00    -0.205 F 
ENDBRANCH  14  17
ENDBRANCH   1  11
BRANCH   1  24
ATOM     24  C   UNL     1       1.182   8.290  -2.255  0.00  0.00    +0.129 C 
BRANCH  24  25
ATOM     25  N   UNL     1       1.803   7.730  -3.458  0.00  0.00    -0.188 NA
ATOM     26  H   UNL     1       2.764   7.200  -3.385  0.00  0.00    +0.148 HD
BRANCH  25  27
ATOM     27  S   UNL     1       1.196   8.101  -4.953  0.00  0.00    +0.058 S 
ATOM     28  O   UNL     1       2.018   7.436  -5.902  0.00  0.00    -0.153 OA
ATOM     29  O   UNL     1      -0.208   7.894  -4.884  0.00  0.00    -0.153 OA
BRANCH  27  30
ATOM     30  C   UNL     1       1.438   9.829  -5.200  0.00  0.00    +0.105 A 
ATOM     31  C   UNL     1       0.461  10.726  -4.812  0.00  0.00    +0.030 A 
ATOM     32  C   UNL     1       0.653  12.082  -5.000  0.00  0.00    +0.022 A 
ATOM     33  C   UNL     1       1.819  12.540  -5.586  0.00  0.00    +0.041 A 
ATOM     34  C   UNL     1       2.795  11.641  -5.979  0.00  0.00    +0.022 A 
ATOM     35  C   UNL     1       2.604  10.286  -5.786  0.00  0.00    +0.030 A 
ATOM     36 CL   UNL     1       2.059  14.242  -5.828  0.00  0.00    -0.084 Cl
ENDBRANCH  27  30
ENDBRANCH  25  27
ENDBRANCH  24  25
ENDBRANCH   1  24
TORSDOF 8
