REMARK  Name = ZINC31240267
REMARK  9 active torsions:
REMARK  status: ('A' for Active; 'I' for Inactive)
REMARK    1  A    between atoms: C_4  and  N_7
REMARK    2  A    between atoms: N_10  and  C_13
REMARK    3  A    between atoms: C_13  and  C_14
REMARK    4  A    between atoms: C_14  and  C_15
REMARK    5  A    between atoms: C_15  and  N_16
REMARK    6  A    between atoms: C_17  and  C_19
REMARK    7  A    between atoms: C_19  and  C_20
REMARK    8  A    between atoms: C_20  and  C_21
REMARK    9  A    between atoms: C_21  and  N_22
REMARK                            x       y       z     vdW  Elec       q    Type
REMARK                         _______ _______ _______ _____ _____    ______ ____
ROOT
ATOM      1  N   UNL     1      -4.451   4.267   3.157  0.00  0.00    -0.315 N 
ATOM      2  C   UNL     1      -3.346   3.538   2.901  0.00  0.00    +0.213 C 
ATOM      3  O   UNL     1      -2.684   3.099   3.817  0.00  0.00    -0.276 OA
ATOM      4  H   UNL     1      -5.052   4.665   2.326  0.00  0.00    +0.149 HD
ENDROOT
BRANCH   1   5
ATOM      5  C   UNL     1      -4.852   4.529   4.541  0.00  0.00    +0.102 C 
BRANCH   5   6
ATOM      6  C   UNL     1      -6.129   5.372   4.552  0.00  0.00    +0.000 C 
BRANCH   6   7
ATOM      7  C   UNL     1      -6.547   5.645   5.998  0.00  0.00    -0.077 C 
BRANCH   7  11
ATOM      8  N   UNL     1      -9.403   8.661   6.770  0.00  0.00    -0.333 N 
ATOM      9  C   UNL     1      -9.652   7.320   7.318  0.00  0.00    +0.086 C 
ATOM     10  C   UNL     1      -8.337   6.538   7.363  0.00  0.00    -0.060 C 
ATOM     11  N   UNL     1      -7.773   6.454   6.009  0.00  0.00    +0.382 N 
ATOM     12  C   UNL     1      -7.524   7.795   5.461  0.00  0.00    -0.060 C 
ATOM     13  C   UNL     1      -8.838   8.577   5.416  0.00  0.00    +0.086 C 
ATOM     14  H   UNL     1      -8.511   5.955   5.363  0.00  0.00    -0.082 HD
BRANCH   8  18
ATOM     15  C   UNL     1     -12.878  10.954   6.799  0.00  0.00    +0.000 A 
ATOM     16  C   UNL     1     -11.700  11.492   6.313  0.00  0.00    +0.002 A 
ATOM     17  C   UNL     1     -10.546  10.734   6.302  0.00  0.00    +0.023 A 
ATOM     18  C   UNL     1     -10.568   9.430   6.780  0.00  0.00    +0.030 A 
ATOM     19  C   UNL     1     -11.754   8.891   7.263  0.00  0.00    +0.023 A 
ATOM     20  C   UNL     1     -12.904   9.656   7.275  0.00  0.00    +0.002 A 
ENDBRANCH   8  18
ENDBRANCH   7  11
ENDBRANCH   6   7
ENDBRANCH   5   6
ENDBRANCH   1   5
BRANCH   2  21
ATOM     21  C   UNL     1      -2.934   3.269   1.477  0.00  0.00    +0.097 C 
BRANCH  21  22
ATOM     22  C   UNL     1      -1.657   2.426   1.466  0.00  0.00    +0.029 C 
BRANCH  22  23
ATOM     23  C   UNL     1      -1.239   2.153   0.020  0.00  0.00    +0.118 C 
BRANCH  23  24
ATOM     24  N   UNL     1      -0.016   1.346   0.009  0.00  0.00    -0.224 N 
ATOM     25  C   UNL     1       0.002  -0.004   0.002  0.00  0.00    +0.246 C 
ATOM     26  O   UNL     1      -0.952  -0.753   0.007  0.00  0.00    -0.273 OA
ATOM     27  C   UNL     1       1.461  -0.382  -0.014  0.00  0.00    +0.113 C 
ATOM     28  C   UNL     1       1.804  -1.205  -1.263  0.00  0.00    +0.035 C 
ATOM     29  C   UNL     1       2.878  -2.208  -0.767  0.00  0.00    +0.003 C 
ATOM     30  C   UNL     1       2.390  -2.558   0.661  0.00  0.00    +0.003 C 
ATOM     31  C   UNL     1       1.831  -1.226   1.208  0.00  0.00    +0.035 C 
ATOM     32  N   UNL     1       2.171   0.899  -0.014  0.00  0.00    -0.285 N 
ATOM     33  C   UNL     1       1.222   1.856   0.000  0.00  0.00    +0.309 C 
ATOM     34  O   UNL     1       1.463   3.047   0.004  0.00  0.00    -0.252 OA
ATOM     35  H   UNL     1       3.271   0.918  -0.024  0.00  0.00    +0.151 HD
ENDBRANCH  23  24
ENDBRANCH  22  23
ENDBRANCH  21  22
ENDBRANCH   2  21
TORSDOF 9
