REMARK  Name = ZINC12806603
REMARK  7 active torsions:
REMARK  status: ('A' for Active; 'I' for Inactive)
REMARK    1  A    between atoms: C_1  and  C_2
REMARK    2  A    between atoms: C_2  and  C_3
REMARK    3  A    between atoms: C_2  and  C_4
REMARK    4  A    between atoms: C_4  and  C_6
REMARK    5  A    between atoms: C_4  and  N_20
REMARK    6  A    between atoms: C_14  and  N_17
REMARK    7  A    between atoms: C_21  and  C_23
REMARK                            x       y       z     vdW  Elec       q    Type
REMARK                         _______ _______ _______ _____ _____    ______ ____
ROOT
ATOM      1  C   UNL     1      -2.506  -2.845   0.003  0.00  0.00    +0.162 C 
ENDROOT
BRANCH   1   2
ATOM      2  C   UNL     1      -2.254  -4.198  -0.612  0.00  0.00    +0.240 C 
ATOM      3  O   UNL     1      -1.382  -4.914  -0.167  0.00  0.00    -0.273 OA
ATOM      4  N   UNL     1      -2.999  -4.614  -1.656  0.00  0.00    -0.269 N 
ATOM      5  C   UNL     1      -4.001  -3.800  -2.349  0.00  0.00    +0.118 C 
ATOM      6  C   UNL     1      -4.566  -4.710  -3.452  0.00  0.00    +0.056 C 
ATOM      7  C   UNL     1      -3.816  -6.013  -3.293  0.00  0.00    -0.024 A 
ATOM      8  C   UNL     1      -2.924  -5.882  -2.240  0.00  0.00    +0.042 A 
ATOM      9  C   UNL     1      -2.108  -6.964  -1.904  0.00  0.00    +0.056 A 
ATOM     10  C   UNL     1      -2.189  -8.143  -2.614  0.00  0.00    +0.128 A 
ATOM     11  C   UNL     1      -3.080  -8.262  -3.665  0.00  0.00    +0.033 A 
ATOM     12  C   UNL     1      -3.897  -7.198  -3.998  0.00  0.00    +0.008 A 
BRANCH  10  13
ATOM     13  N   UNL     1      -1.320  -9.284  -2.251  0.00  0.00    +0.056 N 
ATOM     14  O   UNL     1      -0.535  -9.181  -1.326  0.00  0.00    -0.126 OA
ATOM     15  O   UNL     1      -1.390 -10.327  -2.877  0.00  0.00    -0.126 OA
ENDBRANCH  10  13
ENDBRANCH   1   2
BRANCH   1  16
ATOM     16  N   UNL     1      -1.233  -2.255   0.423  0.00  0.00    -0.300 N 
ATOM     17  C   UNL     1      -1.111  -0.917   0.523  0.00  0.00    +0.246 C 
ATOM     18  O   UNL     1      -2.057  -0.199   0.264  0.00  0.00    -0.270 OA
ATOM     19  H   UNL     1      -0.477  -2.828   0.629  0.00  0.00    +0.150 HD
BRANCH  17  20
ATOM     20  C   UNL     1       0.174  -0.322   0.947  0.00  0.00    +0.051 A 
ATOM     21  C   UNL     1       1.263  -1.143   1.244  0.00  0.00    +0.014 A 
ATOM     22  C   UNL     1       2.459  -0.581   1.639  0.00  0.00    +0.001 A 
ATOM     23  C   UNL     1       2.582   0.794   1.741  0.00  0.00    +0.001 A 
ATOM     24  C   UNL     1       1.508   1.614   1.448  0.00  0.00    +0.016 A 
ATOM     25  C   UNL     1       0.304   1.065   1.051  0.00  0.00    +0.030 A 
ATOM     26 BR   UNL     1      -1.162   2.188   0.644  0.00  0.00    -0.050 Br
ENDBRANCH  17  20
ENDBRANCH   1  16
BRANCH   1  28
ATOM     27  C   UNL     1      -3.766  -1.617   1.776  0.00  0.00    +0.009 C 
ATOM     28  C   UNL     1      -3.422  -3.000   1.218  0.00  0.00    +0.012 C 
ATOM     29  C   UNL     1      -4.709  -3.715   0.799  0.00  0.00    +0.009 C 
ENDBRANCH   1  28
TORSDOF 5
