REMARK  Name = ZINC44893183
REMARK  4 active torsions:
REMARK  status: ('A' for Active; 'I' for Inactive)
REMARK    1  A    between atoms: C_1  and  C_2
REMARK    2  A    between atoms: C_13  and  C_15
REMARK    3  A    between atoms: C_19  and  O_21
REMARK    4  A    between atoms: O_21  and  C_22
REMARK                            x       y       z     vdW  Elec       q    Type
REMARK                         _______ _______ _______ _____ _____    ______ ____
ROOT
ATOM      1  C   UNL     1      -0.145   1.541  -0.471  0.00  0.00    +0.068 C 
ATOM      2  C   UNL     1      -0.139   0.034  -0.427  0.00  0.00    +0.066 A 
ATOM      3  C   UNL     1      -0.299  -0.822  -1.537  0.00  0.00    +0.032 A 
ATOM      4  C   UNL     1      -0.233  -2.094  -1.089  0.00  0.00    +0.125 A 
ATOM      5  N   UNL     1      -0.039  -2.035   0.266  0.00  0.00    -0.263 N 
ATOM      6  H   UNL     1       0.046  -2.796   0.861  0.00  0.00    +0.190 HD
ATOM      7  N   UNL     1       0.022  -0.693   0.641  0.00  0.00    -0.177 NA
ATOM      8  N   UNL     1      -0.321  -3.302  -1.740  0.00  0.00    -0.270 N 
ATOM      9  C   UNL     1      -0.543  -3.668  -2.966  0.00  0.00    +0.228 C 
ATOM     10  O   UNL     1      -0.649  -4.866  -3.129  0.00  0.00    -0.275 OA
ATOM     11  C   UNL     1      -0.686  -2.859  -4.195  0.00  0.00    +0.166 C 
ATOM     12  S   UNL     1      -1.580  -1.323  -3.923  0.00  0.00    -0.138 S 
ATOM     13  C   UNL     1      -0.503  -0.293  -2.922  0.00  0.00    +0.112 C 
ATOM     14  H   UNL     1      -0.186  -4.056  -1.145  0.00  0.00    +0.156 HD
ENDROOT
BRANCH  13  15
ATOM     15  C   UNL     1      -1.101   1.087  -2.831  0.00  0.00    -0.026 A 
ATOM     16  C   UNL     1      -2.406   1.247  -2.405  0.00  0.00    +0.005 A 
ATOM     17  C   UNL     1      -2.958   2.512  -2.320  0.00  0.00    +0.004 A 
ATOM     18  C   UNL     1      -2.205   3.619  -2.661  0.00  0.00    +0.045 A 
ATOM     19  C   UNL     1      -0.895   3.461  -3.088  0.00  0.00    +0.121 A 
ATOM     20  C   UNL     1      -0.342   2.191  -3.167  0.00  0.00    +0.050 A 
BRANCH  19  21
ATOM     21  O   UNL     1      -0.153   4.549  -3.424  0.00  0.00    -0.489 OA
BRANCH  21  22
ATOM     22  C   UNL     1      -0.738   5.831  -3.189  0.00  0.00    +0.173 C 
ATOM     23  C   UNL     1      -1.607   6.244  -4.395  0.00  0.00    +0.044 C 
ATOM     24  C   UNL     1      -1.379   7.771  -4.523  0.00  0.00    +0.004 C 
ATOM     25  C   UNL     1       0.126   7.920  -4.186  0.00  0.00    +0.004 C 
ATOM     26  C   UNL     1       0.365   6.897  -3.057  0.00  0.00    +0.044 C 
ENDBRANCH  21  22
ENDBRANCH  19  21
ENDBRANCH  13  15
TORSDOF 3
