REMARK  Name = ZINC40730048
REMARK  6 active torsions:
REMARK  status: ('A' for Active; 'I' for Inactive)
REMARK    1  A    between atoms: C_4  and  C_7
REMARK    2  A    between atoms: C_7  and  C_8
REMARK    3  A    between atoms: C_7  and  N_14
REMARK    4  A    between atoms: C_21  and  N_35
REMARK    5  A    between atoms: C_22  and  N_26
REMARK    6  A    between atoms: N_26  and  C_27
REMARK                            x       y       z     vdW  Elec       q    Type
REMARK                         _______ _______ _______ _____ _____    ______ ____
ROOT
ATOM      1  N   UNL     1       3.673  -1.923  -0.881  0.00  0.00    -0.289 NA
ATOM      2  C   UNL     1       3.231  -1.504  -2.218  0.00  0.00    +0.104 C 
ATOM      3  C   UNL     1       2.957  -2.745  -3.075  0.00  0.00    +0.122 C 
ATOM      4  N   UNL     1       4.154  -3.600  -3.055  0.00  0.00    -0.311 N 
ATOM      5  C   UNL     1       4.737  -3.951  -1.751  0.00  0.00    +0.122 C 
ATOM      6  C   UNL     1       4.941  -2.662  -0.947  0.00  0.00    +0.104 C 
ATOM      7  C   UNL     1       4.718  -4.065  -4.237  0.00  0.00    +0.147 A 
ATOM      8  C   UNL     1       4.383  -5.325  -4.735  0.00  0.00    +0.106 A 
ATOM      9  C   UNL     1       4.978  -5.743  -5.926  0.00  0.00    +0.149 A 
ATOM     10  N   UNL     1       5.837  -4.930  -6.537  0.00  0.00    -0.219 NA
ATOM     11  C   UNL     1       6.126  -3.748  -6.033  0.00  0.00    +0.225 A 
ATOM     12  N   UNL     1       5.582  -3.313  -4.914  0.00  0.00    -0.219 NA
ENDROOT
BRANCH   8  13
ATOM     13  N   UNL     1       3.472  -6.150  -4.056  0.00  0.00    -0.353 N 
ATOM     14  H   UNL     1       3.011  -5.819  -3.269  0.00  0.00    +0.143 HD
ATOM     15  H   UNL     1       3.304  -7.051  -4.373  0.00  0.00    +0.143 HD
ENDBRANCH   8  13
BRANCH   9  16
ATOM     16  N   UNL     1       4.680  -6.989  -6.465  0.00  0.00    -0.296 N 
ATOM     17  H   UNL     1       3.990  -7.540  -6.062  0.00  0.00    +0.154 HD
BRANCH  16  18
ATOM     18  C   UNL     1       5.374  -7.449  -7.589  0.00  0.00    +0.071 A 
ATOM     19  C   UNL     1       6.646  -6.966  -7.867  0.00  0.00    +0.064 A 
ATOM     20  C   UNL     1       7.330  -7.423  -8.979  0.00  0.00    +0.125 A 
ATOM     21  C   UNL     1       6.748  -8.362  -9.815  0.00  0.00    +0.041 A 
ATOM     22  C   UNL     1       5.482  -8.846  -9.540  0.00  0.00    +0.043 A 
ATOM     23  C   UNL     1       4.795  -8.396  -8.427  0.00  0.00    +0.145 A 
ATOM     24  F   UNL     1       3.560  -8.873  -8.156  0.00  0.00    -0.204 F 
ATOM     25  F   UNL     1       8.567  -6.953  -9.251  0.00  0.00    -0.205 F 
ENDBRANCH  16  18
ENDBRANCH   9  16
BRANCH   1  26
ATOM     26  C   UNL     1       3.781  -0.771   0.023  0.00  0.00    +0.117 C 
BRANCH  26  30
ATOM     27  C   UNL     1       0.048   1.304   0.136  0.00  0.00    +0.000 A 
ATOM     28  C   UNL     1       1.234   2.014   0.120  0.00  0.00    +0.000 A 
ATOM     29  C   UNL     1       2.442   1.343   0.084  0.00  0.00    +0.005 A 
ATOM     30  C   UNL     1       2.464  -0.039   0.064  0.00  0.00    -0.026 A 
ATOM     31  C   UNL     1       1.279  -0.750   0.081  0.00  0.00    +0.005 A 
ATOM     32  C   UNL     1       0.071  -0.079   0.116  0.00  0.00    +0.000 A 
ENDBRANCH  26  30
BRANCH  26  33
ATOM     33  C   UNL     1       4.132  -1.250   1.408  0.00  0.00    -0.026 A 
ATOM     34  C   UNL     1       3.554  -2.401   1.908  0.00  0.00    +0.005 A 
ATOM     35  C   UNL     1       3.876  -2.841   3.179  0.00  0.00    +0.000 A 
ATOM     36  C   UNL     1       4.777  -2.130   3.948  0.00  0.00    +0.000 A 
ATOM     37  C   UNL     1       5.357  -0.979   3.447  0.00  0.00    +0.000 A 
ATOM     38  C   UNL     1       5.038  -0.542   2.175  0.00  0.00    +0.005 A 
ENDBRANCH  26  33
ENDBRANCH   1  26
TORSDOF 6
