REMARK  Name = ZINC59309977
REMARK  13 active torsions:
REMARK  status: ('A' for Active; 'I' for Inactive)
REMARK    1  A    between atoms: C_1  and  C_2
REMARK    2  A    between atoms: C_2  and  C_3
REMARK    3  A    between atoms: C_3  and  S_4
REMARK    4  A    between atoms: S_4  and  C_5
REMARK    5  A    between atoms: C_10  and  N_14
REMARK    6  A    between atoms: C_15  and  C_17
REMARK    7  A    between atoms: C_17  and  S_18
REMARK    8  A    between atoms: S_18  and  C_19
REMARK    9  A    between atoms: N_24  and  N_25
REMARK   10  A    between atoms: C_26  and  C_27
REMARK   11  A    between atoms: C_28  and  C_34
REMARK   12  A    between atoms: N_30  and  C_33
REMARK   13  A    between atoms: C_31  and  C_32
REMARK                            x       y       z     vdW  Elec       q    Type
REMARK                         _______ _______ _______ _____ _____    ______ ____
ROOT
ATOM      1  S   UNL     1       6.153  -2.880 -11.494  0.00  0.00    -0.075 S 
ENDROOT
BRANCH   1   2
ATOM      2  C   UNL     1       6.784  -3.804 -12.855  0.00  0.00    +0.211 A 
ATOM      3  N   UNL     1       7.296  -3.284 -13.976  0.00  0.00    -0.186 NA
ATOM      4  C   UNL     1       7.673  -4.254 -14.782  0.00  0.00    +0.232 A 
ATOM      5  N   UNL     1       7.401  -5.429 -14.175  0.00  0.00    -0.245 N 
ATOM      6  N   UNL     1       6.834  -5.112 -12.930  0.00  0.00    -0.144 NA
ATOM      7  N   UNL     1       8.245  -4.098 -16.030  0.00  0.00    -0.205 N 
ATOM      8  H   UNL     1       8.490  -4.877 -16.553  0.00  0.00    +0.177 HD
ATOM      9  H   UNL     1       7.569  -6.317 -14.527  0.00  0.00    +0.192 HD
BRANCH   7  10
ATOM     10  N   UNL     1       8.472  -2.813 -16.541  0.00  0.00    -0.187 NA
ATOM     11  C   UNL     1       9.009  -2.666 -17.712  0.00  0.00    +0.141 C 
BRANCH  11  12
ATOM     12  C   UNL     1       9.248  -1.312 -18.250  0.00  0.00    +0.038 A 
ATOM     13  C   UNL     1       8.951  -0.091 -17.606  0.00  0.00    +0.069 A 
ATOM     14  N   UNL     1       9.308   0.883 -18.399  0.00  0.00    -0.176 NA
ATOM     15  N   UNL     1       9.842   0.339 -19.572  0.00  0.00    -0.271 N 
ATOM     16  C   UNL     1       9.807  -1.005 -19.472  0.00  0.00    +0.045 A 
ATOM     17  C   UNL     1      10.288  -1.990 -20.506  0.00  0.00    +0.066 C 
ATOM     18  C   UNL     1      10.357   1.100 -20.713  0.00  0.00    +0.172 C 
ATOM     19  C   UNL     1       8.331   0.060 -16.242  0.00  0.00    +0.068 C 
ENDBRANCH  11  12
ENDBRANCH   7  10
ENDBRANCH   1   2
BRANCH   1  20
ATOM     20  C   UNL     1       5.626  -4.149 -10.309  0.00  0.00    +0.173 C 
BRANCH  20  22
ATOM     21  N   UNL     1       4.601  -4.236  -8.059  0.00  0.00    -0.285 N 
ATOM     22  C   UNL     1       5.058  -3.485  -9.081  0.00  0.00    +0.227 C 
ATOM     23  O   UNL     1       5.013  -2.275  -9.012  0.00  0.00    -0.275 OA
ATOM     24  H   UNL     1       4.698  -5.200  -8.085  0.00  0.00    +0.155 HD
BRANCH  21  30
ATOM     25  C   UNL     1       2.705  -0.535  -3.348  0.00  0.00    +0.136 A 
ATOM     26  N   UNL     1       2.228  -1.706  -3.704  0.00  0.00    -0.233 NA
ATOM     27  C   UNL     1       2.728  -2.407  -4.747  0.00  0.00    +0.080 A 
ATOM     28  C   UNL     1       2.309  -3.669  -5.229  0.00  0.00    +0.031 A 
ATOM     29  C   UNL     1       2.926  -4.249  -6.306  0.00  0.00    +0.025 A 
ATOM     30  C   UNL     1       3.984  -3.623  -6.961  0.00  0.00    +0.035 A 
ATOM     31  C   UNL     1       4.420  -2.383  -6.511  0.00  0.00    +0.040 A 
ATOM     32  C   UNL     1       3.803  -1.799  -5.434  0.00  0.00    +0.042 A 
ATOM     33  S   UNL     1       4.009  -0.275  -4.543  0.00  0.00    -0.061 S 
BRANCH  25  34
ATOM     34  S   UNL     1       2.187   0.516  -2.032  0.00  0.00    -0.099 S 
BRANCH  34  35
ATOM     35  C   UNL     1       0.827  -0.396  -1.252  0.00  0.00    +0.076 C 
BRANCH  35  37
ATOM     36  C   UNL     1      -0.871  -0.354   0.581  0.00  0.00    +0.004 C 
ATOM     37  C   UNL     1       0.277   0.415  -0.077  0.00  0.00    +0.008 C 
ENDBRANCH  35  37
ENDBRANCH  34  35
ENDBRANCH  25  34
ENDBRANCH  21  30
ENDBRANCH  20  22
ENDBRANCH   1  20
TORSDOF 9
