REMARK  Name = ZINC63351266
REMARK  2 active torsions:
REMARK  status: ('A' for Active; 'I' for Inactive)
REMARK    1  A    between atoms: C_8  and  C_32
REMARK    2  A    between atoms: N_19  and  C_22
REMARK                            x       y       z     vdW  Elec       q    Type
REMARK                         _______ _______ _______ _____ _____    ______ ____
ROOT
ATOM      1  C   UNL     1      -0.507   0.918  -0.259  0.00  0.00    +0.001 A 
ATOM      2  C   UNL     1       0.537   1.841  -0.384  0.00  0.00    +0.002 A 
ATOM      3  C   UNL     1       1.853   1.513  -0.401  0.00  0.00    +0.026 A 
ATOM      4  C   UNL     1       2.187   0.132  -0.282  0.00  0.00    +0.043 A 
ATOM      5  N   UNL     1       3.346  -0.454  -0.252  0.00  0.00    -0.375 N 
ATOM      6  C   UNL     1       3.131  -1.902  -0.180  0.00  0.00    +0.131 C 
ATOM      7  C   UNL     1       3.795  -2.502   1.069  0.00  0.00    +0.135 C 
ATOM      8  N   UNL     1       3.149  -3.797   1.317  0.00  0.00    -0.264 N 
ATOM      9  C   UNL     1       1.696  -3.998   1.498  0.00  0.00    +0.169 C 
ATOM     10  C   UNL     1       0.978  -3.398   0.277  0.00  0.00    +0.065 C 
ATOM     11  C   UNL     1       1.627  -2.085  -0.034  0.00  0.00    -0.034 C 
ATOM     12  C   UNL     1       1.091  -0.873  -0.140  0.00  0.00    -0.001 A 
ATOM     13  C   UNL     1      -0.310  -0.421  -0.136  0.00  0.00    +0.010 A 
ATOM     14  C   UNL     1       1.555  -5.505   1.516  0.00  0.00    +0.248 C 
ATOM     15  O   UNL     1       0.525  -6.144   1.555  0.00  0.00    -0.273 OA
ATOM     16  N   UNL     1       2.814  -5.989   1.477  0.00  0.00    -0.192 N 
ATOM     17  C   UNL     1       3.720  -5.005   1.402  0.00  0.00    +0.317 C 
ATOM     18  O   UNL     1       4.922  -5.187   1.410  0.00  0.00    -0.252 OA
ATOM     19  H   UNL     1       4.208  -0.009  -0.274  0.00  0.00    +0.160 HD
ENDROOT
BRANCH  16  20
ATOM     20  C   UNL     1       3.135  -7.355   1.511  0.00  0.00    +0.049 A 
ATOM     21  C   UNL     1       4.461  -7.755   1.596  0.00  0.00    +0.028 A 
ATOM     22  C   UNL     1       4.777  -9.099   1.628  0.00  0.00    +0.051 A 
ATOM     23  C   UNL     1       3.772 -10.053   1.577  0.00  0.00    +0.162 A 
ATOM     24  C   UNL     1       2.442  -9.655   1.495  0.00  0.00    +0.164 A 
ATOM     25  C   UNL     1       2.126  -8.306   1.466  0.00  0.00    +0.073 A 
ATOM     26  O   UNL     1       1.441 -10.577   1.452  0.00  0.00    -0.485 OA
ATOM     27  C   UNL     1       1.814 -11.917   1.113  0.00  0.00    +0.270 C 
ATOM     28  C   UNL     1       3.055 -12.293   1.933  0.00  0.00    +0.270 C 
ATOM     29  O   UNL     1       4.103 -11.374   1.607  0.00  0.00    -0.485 OA
ENDBRANCH  16  20
BRANCH   7  30
ATOM     30  C   UNL     1       5.269  -2.698   0.824  0.00  0.00    -0.023 A 
ATOM     31  C   UNL     1       6.194  -2.090   1.652  0.00  0.00    +0.005 A 
ATOM     32  C   UNL     1       7.546  -2.270   1.428  0.00  0.00    +0.002 A 
ATOM     33  C   UNL     1       7.974  -3.058   0.376  0.00  0.00    +0.020 A 
ATOM     34  C   UNL     1       7.048  -3.666  -0.453  0.00  0.00    +0.041 A 
ATOM     35  C   UNL     1       5.695  -3.491  -0.225  0.00  0.00    +0.025 A 
ATOM     36 CL   UNL     1       7.585  -4.655  -1.775  0.00  0.00    -0.084 Cl
ENDBRANCH   7  30
TORSDOF 2
