REMARK  Name = ZINC12041592
REMARK  13 active torsions:
REMARK  status: ('A' for Active; 'I' for Inactive)
REMARK    1  A    between atoms: C_1  and  C_2
REMARK    2  A    between atoms: C_2  and  C_3
REMARK    3  A    between atoms: C_3  and  C_18
REMARK    4  A    between atoms: N_6  and  C_10
REMARK    5  A    between atoms: C_10  and  C_11
REMARK    6  A    between atoms: C_11  and  C_12
REMARK    7  A    between atoms: C_13  and  C_17
REMARK    8  A    between atoms: C_23  and  C_24
REMARK    9  A    between atoms: C_23  and  N_68
REMARK   10  A    between atoms: C_28  and  O_31
REMARK   11  A    between atoms: C_29  and  O_30
REMARK   12  A    between atoms: O_31  and  C_32
REMARK   13  A    between atoms: C_32  and  C_33
REMARK                            x       y       z     vdW  Elec       q    Type
REMARK                         _______ _______ _______ _____ _____    ______ ____
ROOT
ATOM      1  C   UNL     1       2.038   1.925   1.252  0.00  0.00    +0.018 C 
ATOM      2  C   UNL     1       2.651   0.523   1.216  0.00  0.00    -0.013 C 
ATOM      3  C   UNL     1       3.455   0.291   2.498  0.00  0.00    -0.078 C 
ATOM      4  C   UNL     1       2.013   1.786   3.744  0.00  0.00    -0.078 C 
ATOM      5  C   UNL     1       1.164   2.062   2.501  0.00  0.00    -0.013 C 
ATOM      6  N   UNL     1       2.552   0.412   3.662  0.00  0.00    +0.382 N 
ATOM      7  H   UNL     1       1.772  -0.246   3.548  0.00  0.00    -0.081 HD
ENDROOT
BRANCH   1   8
ATOM      8  C   UNL     1       1.181   2.140   0.002  0.00  0.00    +0.115 C 
ATOM      9  C   UNL     1      -0.014   1.208   0.009  0.00  0.00    +0.247 C 
ATOM     10  O   UNL     1       0.002  -0.004   0.002  0.00  0.00    -0.273 OA
ATOM     11  N   UNL     1      -1.099   2.007   0.017  0.00  0.00    -0.224 N 
ATOM     12  C   UNL     1      -0.759   3.301   0.026  0.00  0.00    +0.309 C 
ATOM     13  O   UNL     1      -1.564   4.212   0.038  0.00  0.00    -0.252 OA
ATOM     14  N   UNL     1       0.574   3.482   0.015  0.00  0.00    -0.285 N 
ATOM     15  H   UNL     1       1.044   4.331   0.014  0.00  0.00    +0.151 HD
BRANCH   8  17
ATOM     16  C   UNL     1       1.190   2.327  -2.489  0.00  0.00    +0.006 C 
ATOM     17  C   UNL     1       2.017   1.935  -1.263  0.00  0.00    +0.032 C 
ENDBRANCH   8  17
BRANCH  11  18
ATOM     18  C   UNL     1      -2.481   1.520   0.020  0.00  0.00    +0.123 C 
BRANCH  18  19
ATOM     19  C   UNL     1      -2.956   1.342   1.463  0.00  0.00    +0.064 C 
BRANCH  19  20
ATOM     20  C   UNL     1      -4.377   0.840   1.466  0.00  0.00    +0.014 A 
ATOM     21  C   UNL     1      -4.847  -0.433   1.461  0.00  0.00    +0.049 A 
ATOM     22  N   UNL     1      -6.151  -0.619   1.465  0.00  0.00    -0.252 NA
ATOM     23  C   UNL     1      -6.987   0.393   1.474  0.00  0.00    +0.156 A 
ATOM     24  S   UNL     1      -5.911   1.757   1.485  0.00  0.00    -0.080 S 
ATOM     25  C   UNL     1      -3.901  -1.605   1.451  0.00  0.00    +0.066 C 
ENDBRANCH  19  20
ENDBRANCH  18  19
ENDBRANCH  11  18
ENDBRANCH   1   8
BRANCH   6  26
ATOM     26  C   UNL     1       3.282   0.081   4.903  0.00  0.00    -0.039 C 
BRANCH  26  27
ATOM     27  C   UNL     1       4.048  -1.201   4.699  0.00  0.00    -0.019 A 
ATOM     28  C   UNL     1       3.530  -2.397   5.161  0.00  0.00    +0.005 A 
ATOM     29  C   UNL     1       4.230  -3.574   4.975  0.00  0.00    +0.004 A 
ATOM     30  C   UNL     1       5.451  -3.561   4.326  0.00  0.00    +0.049 A 
ATOM     31  C   UNL     1       5.975  -2.366   3.860  0.00  0.00    +0.162 A 
ATOM     32  C   UNL     1       5.268  -1.181   4.043  0.00  0.00    +0.160 A 
BRANCH  32  33
ATOM     33  O   UNL     1       5.775  -0.007   3.583  0.00  0.00    -0.503 OA
ATOM     34  H   UNL     1       6.335   0.457   4.221  0.00  0.00    +0.292 HD
ENDBRANCH  32  33
BRANCH  31  35
ATOM     35  O   UNL     1       7.175  -2.352   3.220  0.00  0.00    -0.489 OA
BRANCH  35  36
ATOM     36  C   UNL     1       7.842  -3.606   3.064  0.00  0.00    +0.226 C 
ATOM     37  C   UNL     1       9.166  -3.391   2.328  0.00  0.00    +0.048 C 
ENDBRANCH  35  36
ENDBRANCH  31  35
ENDBRANCH  26  27
ENDBRANCH   6  26
TORSDOF 10
