REMARK  Name = ZINC35870274
REMARK  5 active torsions:
REMARK  status: ('A' for Active; 'I' for Inactive)
REMARK    1  A    between atoms: C_3  and  C_6
REMARK    2  A    between atoms: C_6  and  N_7
REMARK    3  A    between atoms: C_8  and  C_10
REMARK    4  A    between atoms: C_15  and  N_33
REMARK    5  A    between atoms: N_23  and  C_26
REMARK                            x       y       z     vdW  Elec       q    Type
REMARK                         _______ _______ _______ _____ _____    ______ ____
ROOT
ATOM      1  C   UNL     1       5.930   0.543   2.973  0.00  0.00    +0.101 C 
ATOM      2  C   UNL     1       5.444   1.790   3.708  0.00  0.00    +0.051 C 
ATOM      3  C   UNL     1       6.051   3.005   3.055  0.00  0.00    -0.023 A 
ATOM      4  C   UNL     1       5.372   4.209   3.087  0.00  0.00    +0.038 A 
ATOM      5  C   UNL     1       5.916   5.326   2.481  0.00  0.00    +0.127 A 
ATOM      6  C   UNL     1       7.139   5.242   1.841  0.00  0.00    +0.034 A 
ATOM      7  C   UNL     1       7.822   4.043   1.811  0.00  0.00    +0.025 A 
ATOM      8  C   UNL     1       7.279   2.918   2.425  0.00  0.00    +0.033 A 
ATOM      9  N   UNL     1       8.012   1.718   2.400  0.00  0.00    -0.323 N 
ATOM     10  C   UNL     1       7.462   0.504   2.970  0.00  0.00    +0.103 C 
ATOM     11  C   UNL     1       7.907  -0.756   2.245  0.00  0.00    +0.128 C 
ATOM     12  N   UNL     1       9.245  -0.653   1.698  0.00  0.00    -0.327 N 
ATOM     13  C   UNL     1       9.734   0.552   1.049  0.00  0.00    +0.124 C 
ATOM     14  C   UNL     1       9.355   1.788   1.827  0.00  0.00    +0.124 C 
ENDROOT
BRANCH  12  15
ATOM     15  C   UNL     1      10.098  -1.755   1.799  0.00  0.00    +0.030 A 
ATOM     16  C   UNL     1      11.345  -1.728   1.187  0.00  0.00    +0.024 A 
ATOM     17  C   UNL     1      12.186  -2.818   1.288  0.00  0.00    +0.022 A 
ATOM     18  C   UNL     1      11.788  -3.937   1.998  0.00  0.00    +0.041 A 
ATOM     19  C   UNL     1      10.547  -3.967   2.609  0.00  0.00    +0.022 A 
ATOM     20  C   UNL     1       9.704  -2.877   2.516  0.00  0.00    +0.024 A 
ATOM     21 CL   UNL     1      12.848  -5.307   2.123  0.00  0.00    -0.084 Cl
ENDBRANCH  12  15
BRANCH   1  23
ATOM     22  N   UNL     1       4.103   0.605   1.306  0.00  0.00    -0.308 N 
ATOM     23  C   UNL     1       5.428   0.572   1.552  0.00  0.00    +0.219 C 
ATOM     24  O   UNL     1       6.216   0.566   0.630  0.00  0.00    -0.275 OA
ATOM     25  H   UNL     1       3.473   0.609   2.044  0.00  0.00    +0.149 HD
BRANCH  22  26
ATOM     26  C   UNL     1       3.615   0.633  -0.075  0.00  0.00    +0.178 C 
BRANCH  26  29
ATOM     27  C   UNL     1      -0.001   1.346  -0.066  0.00  0.00    +0.041 A 
ATOM     28  C   UNL     1       1.346   1.775  -0.060  0.00  0.00    +0.046 A 
ATOM     29  C   UNL     1       2.108   0.667  -0.074  0.00  0.00    +0.122 A 
ATOM     30  O   UNL     1       1.299  -0.405  -0.088  0.00  0.00    -0.466 OA
ATOM     31  C   UNL     1       0.018   0.001  -0.083  0.00  0.00    +0.195 A 
ENDBRANCH  26  29
ENDBRANCH  22  26
ENDBRANCH   1  23
BRANCH   5  32
ATOM     32  N   UNL     1       5.188   6.614   2.517  0.00  0.00    +0.056 N 
ATOM     33  O   UNL     1       4.118   6.689   3.075  0.00  0.00    -0.126 OA
ATOM     34  O   UNL     1       5.663   7.592   1.987  0.00  0.00    -0.126 OA
ENDBRANCH   5  32
TORSDOF 5
