REMARK  Name = ZINC08830113
REMARK  14 active torsions:
REMARK  status: ('A' for Active; 'I' for Inactive)
REMARK    1  A    between atoms: C_1  and  C_2
REMARK    2  A    between atoms: C_2  and  O_3
REMARK    3  A    between atoms: O_3  and  C_4
REMARK    4  A    between atoms: C_4  and  C_5
REMARK    5  A    between atoms: C_6  and  C_27
REMARK    6  A    between atoms: C_9  and  N_26
REMARK    7  A    between atoms: C_10  and  C_16
REMARK    8  A    between atoms: C_14  and  C_15
REMARK    9  A    between atoms: C_16  and  C_18
REMARK   10  A    between atoms: C_21  and  O_24
REMARK   11  A    between atoms: O_24  and  C_25
REMARK   12  A    between atoms: C_30  and  C_33
REMARK   13  A    between atoms: C_33  and  O_35
REMARK   14  A    between atoms: O_35  and  C_36
REMARK                            x       y       z     vdW  Elec       q    Type
REMARK                         _______ _______ _______ _____ _____    ______ ____
ROOT
ATOM      1  C   UNL     1      -3.085  -2.203  -0.813  0.00  0.00    +0.065 C 
ATOM      2  C   UNL     1      -4.263  -1.331  -0.489  0.00  0.00    +0.091 C 
ATOM      3  C   UNL     1      -5.466  -2.202  -0.151  0.00  0.00    +0.014 A 
ATOM      4  C   UNL     1      -6.634  -1.736   0.423  0.00  0.00    +0.049 A 
ATOM      5  C   UNL     1      -7.671  -2.637   0.682  0.00  0.00    +0.082 A 
ATOM      6  S   UNL     1      -6.981  -4.180   0.102  0.00  0.00    -0.068 S 
ATOM      7  C   UNL     1      -5.411  -3.563  -0.429  0.00  0.00    +0.076 A 
ATOM      8  N   UNL     1      -4.339  -4.210  -0.988  0.00  0.00    -0.312 N 
ATOM      9  C   UNL     1      -3.152  -3.519  -1.051  0.00  0.00    +0.016 C 
ATOM     10  C   UNL     1      -1.888  -4.266  -1.391  0.00  0.00    +0.061 C 
ATOM     11  H   UNL     1      -4.415  -5.116  -1.327  0.00  0.00    +0.152 HD
ENDROOT
BRANCH   2  12
ATOM     12  C   UNL     1      -4.588  -0.466  -1.679  0.00  0.00    -0.035 A 
ATOM     13  C   UNL     1      -4.932  -1.052  -2.884  0.00  0.00    +0.005 A 
ATOM     14  C   UNL     1      -5.231  -0.266  -3.977  0.00  0.00    +0.015 A 
ATOM     15  C   UNL     1      -5.187   1.125  -3.865  0.00  0.00    +0.059 A 
ATOM     16  C   UNL     1      -4.840   1.710  -2.646  0.00  0.00    +0.015 A 
ATOM     17  C   UNL     1      -4.549   0.912  -1.560  0.00  0.00    +0.005 A 
BRANCH  15  18
ATOM     18  C   UNL     1      -5.506   1.973  -5.032  0.00  0.00    +0.339 C 
ATOM     19  O   UNL     1      -5.808   1.461  -6.091  0.00  0.00    -0.245 OA
BRANCH  18  20
ATOM     20  O   UNL     1      -5.463   3.315  -4.921  0.00  0.00    -0.464 OA
ATOM     21  C   UNL     1      -5.784   4.074  -6.089  0.00  0.00    +0.280 C 
ENDBRANCH  18  20
ENDBRANCH  15  18
ENDBRANCH   2  12
BRANCH   4  22
ATOM     22  N   UNL     1      -6.775  -0.389   0.738  0.00  0.00    -0.357 N 
ATOM     23  H   UNL     1      -6.052   0.230   0.555  0.00  0.00    +0.142 HD
ATOM     24  H   UNL     1      -7.598  -0.069   1.141  0.00  0.00    +0.142 HD
ENDBRANCH   4  22
BRANCH   1  25
ATOM     25  C   UNL     1      -1.815  -1.589  -0.878  0.00  0.00    +0.338 C 
ATOM     26  O   UNL     1      -1.196  -1.361   0.146  0.00  0.00    -0.245 OA
BRANCH  25  27
ATOM     27  O   UNL     1      -1.286  -1.256  -2.074  0.00  0.00    -0.462 OA
BRANCH  27  29
ATOM     28  C   UNL     1       0.434  -0.336  -3.501  0.00  0.00    +0.048 C 
ATOM     29  C   UNL     1       0.003  -0.639  -2.065  0.00  0.00    +0.229 C 
ENDBRANCH  27  29
ENDBRANCH  25  27
ENDBRANCH   1  25
BRANCH   5  30
ATOM     30  C   UNL     1      -8.934  -2.392   1.254  0.00  0.00    +0.202 C 
ATOM     31  O   UNL     1      -9.196  -1.290   1.705  0.00  0.00    -0.286 OA
BRANCH  30  32
ATOM     32  C   UNL     1      -9.944  -3.471   1.307  0.00  0.00    +0.023 A 
ATOM     33  C   UNL     1     -10.954  -3.438   2.271  0.00  0.00    +0.015 A 
ATOM     34  C   UNL     1     -11.893  -4.445   2.317  0.00  0.00    +0.046 A 
ATOM     35  C   UNL     1     -11.836  -5.492   1.406  0.00  0.00    +0.120 A 
ATOM     36  C   UNL     1     -10.832  -5.529   0.446  0.00  0.00    +0.046 A 
ATOM     37  C   UNL     1      -9.893  -4.523   0.390  0.00  0.00    +0.015 A 
BRANCH  35  38
ATOM     38  O   UNL     1     -12.763  -6.483   1.454  0.00  0.00    -0.495 OA
ATOM     39  C   UNL     1     -12.645  -7.529   0.488  0.00  0.00    +0.277 C 
ENDBRANCH  35  38
ENDBRANCH  30  32
ENDBRANCH   5  30
TORSDOF 10
