REMARK  Name = ZINC40735381
REMARK  8 active torsions:
REMARK  status: ('A' for Active; 'I' for Inactive)
REMARK    1  A    between atoms: C_1  and  C_2
REMARK    2  A    between atoms: C_7  and  C_9
REMARK    3  A    between atoms: C_7  and  C_10
REMARK    4  A    between atoms: C_14  and  N_28
REMARK    5  A    between atoms: C_15  and  N_19
REMARK    6  A    between atoms: N_19  and  C_20
REMARK    7  A    between atoms: N_19  and  C_21
REMARK    8  A    between atoms: N_24  and  C_27
REMARK                            x       y       z     vdW  Elec       q    Type
REMARK                         _______ _______ _______ _____ _____    ______ ____
ROOT
ATOM      1  C   UNL     1       0.215   0.287   2.027  0.00  0.00    +0.013 C 
ATOM      2  C   UNL     1      -0.106  -1.184   1.719  0.00  0.00    -0.014 C 
ATOM      3  C   UNL     1       0.882  -1.802   0.692  0.00  0.00    +0.030 C 
ATOM      4  C   UNL     1       0.048  -3.024   0.234  0.00  0.00    +0.076 C 
ATOM      5  C   UNL     1       0.116  -4.063   1.351  0.00  0.00    +0.029 C 
ATOM      6  C   UNL     1      -0.327  -3.541   2.705  0.00  0.00    -0.033 C 
ATOM      7  C   UNL     1      -0.077  -2.067   2.965  0.00  0.00    +0.014 C 
ATOM      8  C   UNL     1       0.461  -4.333   3.779  0.00  0.00    +0.011 C 
ATOM      9  C   UNL     1      -1.811  -3.869   2.928  0.00  0.00    +0.011 C 
ATOM     10  N   UNL     1      -1.335  -2.521   0.126  0.00  0.00    -0.310 N 
ATOM     11  C   UNL     1      -1.467  -1.350   1.007  0.00  0.00    +0.113 C 
ATOM     12  C   UNL     1      -2.338  -3.051  -0.677  0.00  0.00    +0.147 A 
ATOM     13  C   UNL     1      -3.643  -2.562  -0.598  0.00  0.00    +0.106 A 
ATOM     14  C   UNL     1      -4.611  -3.130  -1.427  0.00  0.00    +0.147 A 
ATOM     15  N   UNL     1      -4.257  -4.110  -2.256  0.00  0.00    -0.219 NA
ATOM     16  C   UNL     1      -3.013  -4.543  -2.299  0.00  0.00    +0.225 A 
ATOM     17  N   UNL     1      -2.068  -4.030  -1.537  0.00  0.00    -0.219 NA
ENDROOT
BRANCH  13  18
ATOM     18  N   UNL     1      -3.973  -1.526   0.291  0.00  0.00    -0.353 N 
ATOM     19  H   UNL     1      -3.321  -0.837   0.496  0.00  0.00    +0.143 HD
ATOM     20  H   UNL     1      -4.851  -1.500   0.701  0.00  0.00    +0.143 HD
ENDBRANCH  13  18
BRANCH  14  21
ATOM     21  N   UNL     1      -5.926  -2.680  -1.389  0.00  0.00    -0.314 N 
ATOM     22  C   UNL     1      -6.856  -3.221  -0.395  0.00  0.00    +0.131 C 
BRANCH  21  23
ATOM     23  C   UNL     1      -6.381  -1.665  -2.341  0.00  0.00    +0.071 C 
ATOM     24  C   UNL     1      -6.876  -0.432  -1.579  0.00  0.00    +0.004 C 
ATOM     25  C   UNL     1      -7.423   0.592  -2.575  0.00  0.00    -0.077 C 
ATOM     26  N   UNL     1      -8.536   0.001  -3.329  0.00  0.00    +0.378 N 
ATOM     27  C   UNL     1      -8.053  -1.138  -4.118  0.00  0.00    -0.077 C 
ATOM     28  C   UNL     1      -7.530  -2.229  -3.181  0.00  0.00    +0.004 C 
ATOM     29  C   UNL     1      -9.108   1.012  -4.228  0.00  0.00    -0.096 C 
ATOM     30  H   UNL     1      -9.246  -0.314  -2.685  0.00  0.00    -0.082 HD
ENDBRANCH  21  23
ENDBRANCH  14  21
TORSDOF 3
