REMARK  Name = ZINC12250081
REMARK  11 active torsions:
REMARK  status: ('A' for Active; 'I' for Inactive)
REMARK    1  A    between atoms: C_1  and  C_2
REMARK    2  A    between atoms: C_2  and  C_3
REMARK    3  A    between atoms: C_7  and  C_37
REMARK    4  A    between atoms: C_8  and  N_9
REMARK    5  A    between atoms: C_10  and  C_12
REMARK    6  A    between atoms: C_13  and  C_36
REMARK    7  A    between atoms: C_15  and  S_26
REMARK    8  A    between atoms: C_16  and  C_24
REMARK    9  A    between atoms: C_17  and  C_19
REMARK   10  A    between atoms: S_26  and  C_27
REMARK   11  A    between atoms: C_27  and  C_28
REMARK                            x       y       z     vdW  Elec       q    Type
REMARK                         _______ _______ _______ _____ _____    ______ ____
ROOT
ATOM      1  C   UNL     1      -1.009   0.954   1.034  0.00  0.00    +0.047 C 
ATOM      2  C   UNL     1      -2.291   1.245   0.765  0.00  0.00    +0.015 C 
ATOM      3  N   UNL     1      -2.641   1.871  -0.400  0.00  0.00    -0.312 N 
ATOM      4  C   UNL     1      -1.768   1.892  -1.465  0.00  0.00    +0.080 C 
ATOM      5  C   UNL     1      -0.448   1.622  -1.279  0.00  0.00    +0.072 C 
ATOM      6  C   UNL     1       0.099   1.305   0.084  0.00  0.00    +0.134 C 
ATOM      7  C   UNL     1      -3.361   0.878   1.760  0.00  0.00    +0.061 C 
ATOM      8  H   UNL     1      -3.623   2.361  -0.488  0.00  0.00    +0.152 HD
ENDROOT
BRANCH   6   9
ATOM      9  C   UNL     1       0.842   2.505   0.611  0.00  0.00    +0.118 A 
ATOM     10  C   UNL     1       2.145   2.540   0.943  0.00  0.00    +0.045 A 
ATOM     11  C   UNL     1       2.421   3.855   1.385  0.00  0.00    +0.041 A 
ATOM     12  C   UNL     1       1.267   4.543   1.304  0.00  0.00    +0.195 A 
ATOM     13  O   UNL     1       0.315   3.720   0.834  0.00  0.00    -0.467 OA
ENDBRANCH   6   9
BRANCH   1  15
ATOM     14  N   UNL     1       0.588  -0.005   2.537  0.00  0.00    -0.281 N 
ATOM     15  C   UNL     1      -0.693   0.296   2.248  0.00  0.00    +0.247 C 
ATOM     16  O   UNL     1      -1.579   0.004   3.030  0.00  0.00    -0.270 OA
ATOM     17  H   UNL     1       1.381   0.204   1.805  0.00  0.00    +0.155 HD
BRANCH  14  23
ATOM     18  C   UNL     1       1.660  -1.752   3.814  0.00  0.00    -0.026 A 
ATOM     19  C   UNL     1       1.976  -2.322   5.032  0.00  0.00    +0.005 A 
ATOM     20  C   UNL     1       1.543  -1.733   6.205  0.00  0.00    +0.001 A 
ATOM     21  C   UNL     1       0.794  -0.571   6.164  0.00  0.00    +0.005 A 
ATOM     22  C   UNL     1       0.481   0.008   4.950  0.00  0.00    -0.029 A 
ATOM     23  C   UNL     1       0.909  -0.585   3.769  0.00  0.00    +0.040 A 
ATOM     24  C   UNL     1      -0.330   1.278   4.906  0.00  0.00    +0.045 C 
BRANCH  18  26
ATOM     25  C   UNL     1       3.442  -1.743   2.089  0.00  0.00    +0.009 C 
ATOM     26  C   UNL     1       2.132  -2.395   2.535  0.00  0.00    +0.033 C 
ENDBRANCH  18  26
ENDBRANCH  14  23
ENDBRANCH   1  15
BRANCH   5  27
ATOM     27  C   UNL     1       0.438   1.641  -2.405  0.00  0.00    +0.098 C 
ATOM     28  N   UNL     1       1.140   1.655  -3.297  0.00  0.00    -0.191 NA
ENDBRANCH   5  27
BRANCH   4  29
ATOM     29  S   UNL     1      -2.365   2.268  -3.079  0.00  0.00    -0.100 S 
BRANCH  29  30
ATOM     30  C   UNL     1      -4.119   2.524  -2.713  0.00  0.00    +0.171 C 
BRANCH  30  31
ATOM     31  C   UNL     1      -4.853   2.869  -3.984  0.00  0.00    +0.229 C 
ATOM     32  O   UNL     1      -4.248   2.934  -5.034  0.00  0.00    -0.275 OA
ATOM     33  N   UNL     1      -6.179   3.103  -3.954  0.00  0.00    -0.264 N 
ATOM     34  C   UNL     1      -6.856   3.421  -5.127  0.00  0.00    +0.164 A 
ATOM     35  N   UNL     1      -8.137   3.681  -5.300  0.00  0.00    -0.233 NA
ATOM     36  C   UNL     1      -8.621   3.967  -6.492  0.00  0.00    +0.120 A 
ATOM     37  C   UNL     1      -7.769   3.989  -7.547  0.00  0.00    +0.068 A 
ATOM     38  S   UNL     1      -6.229   3.584  -6.738  0.00  0.00    -0.061 S 
ATOM     39  H   UNL     1      -6.727   3.043  -3.002  0.00  0.00    +0.157 HD
ENDBRANCH  30  31
ENDBRANCH  29  30
ENDBRANCH   4  29
TORSDOF 8
