REMARK  Name = ZINC65507564
REMARK  3 active torsions:
REMARK  status: ('A' for Active; 'I' for Inactive)
REMARK    1  A    between atoms: C_4  and  C_7
REMARK    2  A    between atoms: C_11  and  C_13
REMARK    3  A    between atoms: C_13  and  N_14
REMARK                            x       y       z     vdW  Elec       q    Type
REMARK                         _______ _______ _______ _____ _____    ______ ____
ROOT
ATOM      1  C   UNL     1       1.837  -2.664   3.054  0.00  0.00    +0.099 C 
ENDROOT
BRANCH   1   2
ATOM      2  N   UNL     1       2.111  -4.059   3.426  0.00  0.00    -0.298 NA
ATOM      3  C   UNL     1       2.749  -4.783   2.320  0.00  0.00    +0.100 C 
ATOM      4  C   UNL     1       3.082  -6.213   2.760  0.00  0.00    +0.100 C 
ATOM      5  N   UNL     1       1.847  -6.876   3.193  0.00  0.00    -0.288 NA
ATOM      6  C   UNL     1       2.063  -8.284   3.546  0.00  0.00    +0.104 C 
ATOM      7  C   UNL     1       0.702  -8.972   3.672  0.00  0.00    +0.119 C 
ATOM      8  N   UNL     1      -0.196  -8.179   4.506  0.00  0.00    -0.313 N 
ATOM      9  C   UNL     1       0.015  -6.887   4.789  0.00  0.00    +0.232 C 
ATOM     10  O   UNL     1      -0.809  -6.290   5.449  0.00  0.00    -0.274 OA
ATOM     11  C   UNL     1       1.236  -6.155   4.318  0.00  0.00    +0.157 C 
ATOM     12  C   UNL     1       0.884  -4.737   3.871  0.00  0.00    +0.112 C 
ATOM     13  H   UNL     1      -0.984  -8.609   4.873  0.00  0.00    +0.149 HD
ENDBRANCH   1   2
BRANCH   1  18
ATOM     14  C   UNL     1       2.907  -0.505   2.369  0.00  0.00    +0.054 C 
ATOM     15  N   UNL     1       3.406   0.263   3.281  0.00  0.00    -0.158 NA
ATOM     16  N   UNL     1       3.981  -0.456   4.324  0.00  0.00    -0.161 NA
ATOM     17  C   UNL     1       3.888  -1.734   4.153  0.00  0.00    +0.118 C 
ATOM     18  C   UNL     1       3.159  -1.925   2.838  0.00  0.00    +0.092 C 
BRANCH  14  22
ATOM     19  C   UNL     1       2.178   1.447  -1.399  0.00  0.00    +0.000 C 
ATOM     20  C   UNL     1       2.333  -0.075  -1.392  0.00  0.00    +0.001 C 
ATOM     21  C   UNL     1       3.040  -0.510  -0.107  0.00  0.00    +0.009 C 
ATOM     22  C   UNL     1       2.210  -0.077   1.103  0.00  0.00    +0.036 C 
ATOM     23  C   UNL     1       2.055   1.445   1.097  0.00  0.00    +0.009 C 
ATOM     24  C   UNL     1       1.348   1.880  -0.189  0.00  0.00    +0.001 C 
ENDBRANCH  14  22
ENDBRANCH   1  18
TORSDOF 3
