REMARK  Name = ZINC36308914
REMARK  13 active torsions:
REMARK  status: ('A' for Active; 'I' for Inactive)
REMARK    1  A    between atoms: C_2  and  C_3
REMARK    2  A    between atoms: C_3  and  O_4
REMARK    3  A    between atoms: O_4  and  C_5
REMARK    4  A    between atoms: C_5  and  C_6
REMARK    5  A    between atoms: C_6  and  C_8
REMARK    6  A    between atoms: C_6  and  O_35
REMARK    7  A    between atoms: C_8  and  N_9
REMARK    8  A    between atoms: N_9  and  C_10
REMARK    9  A    between atoms: N_9  and  C_32
REMARK   10  A    between atoms: C_10  and  C_11
REMARK   11  A    between atoms: C_21  and  C_23
REMARK   12  A    between atoms: C_23  and  O_24
REMARK   13  A    between atoms: O_24  and  C_25
REMARK                            x       y       z     vdW  Elec       q    Type
REMARK                         _______ _______ _______ _____ _____    ______ ____
ROOT
ATOM      1  C   UNL     1       4.473  -7.169   4.583  0.00  0.00    +0.200 C 
ATOM      2  O   UNL     1       3.415  -7.204   5.176  0.00  0.00    -0.278 OA
ATOM      3  N   UNL     1       5.504  -7.929   5.000  0.00  0.00    -0.292 N 
ATOM      4  C   UNL     1       6.793  -7.891   4.292  0.00  0.00    +0.113 C 
ATOM      5  C   UNL     1       7.851  -7.315   5.246  0.00  0.00    +0.061 C 
ATOM      6  C   UNL     1       7.663  -7.928   6.596  0.00  0.00    -0.004 A 
ATOM      7  C   UNL     1       6.576  -8.598   7.066  0.00  0.00    -0.014 A 
ATOM      8  C   UNL     1       6.650  -9.069   8.376  0.00  0.00    +0.013 A 
ATOM      9  C   UNL     1       7.766  -8.855   9.110  0.00  0.00    +0.046 A 
ATOM     10  S   UNL     1       8.796  -7.956   7.960  0.00  0.00    -0.101 S 
ATOM     11  C   UNL     1       5.359  -8.803   6.173  0.00  0.00    +0.144 C 
ENDROOT
BRANCH   1  12
ATOM     12  C   UNL     1       4.633  -6.277   3.379  0.00  0.00    +0.019 C 
BRANCH  12  13
ATOM     13  N   UNL     1       3.427  -5.453   3.217  0.00  0.00    +0.389 N 
ATOM     14  H   UNL     1       2.613  -6.049   3.196  0.00  0.00    -0.081 HD
BRANCH  13  15
ATOM     15  C   UNL     1       3.515  -4.700   1.958  0.00  0.00    -0.068 C 
ATOM     16  C   UNL     1       2.361  -4.850   0.964  0.00  0.00    -0.017 C 
ATOM     17  C   UNL     1       3.715  -5.500   0.669  0.00  0.00    -0.017 C 
ENDBRANCH  13  15
BRANCH  13  18
ATOM     18  C   UNL     1       3.320  -4.515   4.342  0.00  0.00    -0.044 C 
BRANCH  18  19
ATOM     19  C   UNL     1       2.002  -3.744   4.239  0.00  0.00    +0.124 C 
BRANCH  19  20
ATOM     20  O   UNL     1       1.970  -3.018   3.009  0.00  0.00    -0.391 OA
ATOM     21  H   UNL     1       2.686  -2.374   2.913  0.00  0.00    +0.210 HD
ENDBRANCH  19  20
BRANCH  19  22
ATOM     22  C   UNL     1       1.891  -2.767   5.411  0.00  0.00    +0.189 C 
BRANCH  22  23
ATOM     23  O   UNL     1       0.612  -2.131   5.381  0.00  0.00    -0.373 OA
BRANCH  23  24
ATOM     24  C   UNL     1       0.403  -1.193   6.439  0.00  0.00    +0.186 C 
BRANCH  24  26
ATOM     25  C   UNL     1      -1.734  -0.463   7.367  0.00  0.00    +0.006 C 
ATOM     26  C   UNL     1      -0.970  -0.586   6.309  0.00  0.00    -0.007 C 
ENDBRANCH  24  26
ENDBRANCH  23  24
ENDBRANCH  22  23
ENDBRANCH  19  22
ENDBRANCH  18  19
ENDBRANCH  13  18
ENDBRANCH  12  13
ENDBRANCH   1  12
BRANCH  11  27
ATOM     27  C   UNL     1       5.291 -10.264   5.724  0.00  0.00    +0.256 C 
BRANCH  27  28
ATOM     28  O   UNL     1       6.536 -10.639   5.130  0.00  0.00    -0.490 OA
BRANCH  28  29
ATOM     29  C   UNL     1       6.643 -11.915   4.675  0.00  0.00    +0.121 A 
ATOM     30  C   UNL     1       5.570 -12.787   4.793  0.00  0.00    +0.047 A 
ATOM     31  C   UNL     1       5.681 -14.084   4.331  0.00  0.00    +0.023 A 
ATOM     32  C   UNL     1       6.861 -14.514   3.750  0.00  0.00    +0.041 A 
ATOM     33  C   UNL     1       7.932 -13.645   3.631  0.00  0.00    +0.023 A 
ATOM     34  C   UNL     1       7.823 -12.346   4.087  0.00  0.00    +0.047 A 
ATOM     35 CL   UNL     1       6.998 -16.144   3.169  0.00  0.00    -0.084 Cl
ENDBRANCH  28  29
ENDBRANCH  27  28
ENDBRANCH  11  27
TORSDOF 13
