REMARK  Name = ZINC20418804
REMARK  9 active torsions:
REMARK  status: ('A' for Active; 'I' for Inactive)
REMARK    1  A    between atoms: C_1  and  C_2
REMARK    2  A    between atoms: C_7  and  N_8
REMARK    3  A    between atoms: C_9  and  C_11
REMARK    4  A    between atoms: C_11  and  C_12
REMARK    5  A    between atoms: N_16  and  C_30
REMARK    6  A    between atoms: N_18  and  C_19
REMARK    7  A    between atoms: C_22  and  S_25
REMARK    8  A    between atoms: S_25  and  N_28
REMARK    9  A    between atoms: C_30  and  C_31
REMARK                            x       y       z     vdW  Elec       q    Type
REMARK                         _______ _______ _______ _____ _____    ______ ____
ROOT
ATOM      1  C   UNL     1       1.451  -0.495  -0.002  0.00  0.00    +0.149 C 
ATOM      2  C   UNL     1       1.518  -2.012  -0.066  0.00  0.00    +0.235 C 
ATOM      3  O   UNL     1       1.065  -2.715   0.811  0.00  0.00    -0.274 OA
ATOM      4  N   UNL     1       2.102  -2.518  -1.139  0.00  0.00    -0.246 N 
ATOM      5  C   UNL     1       2.620  -1.723  -2.141  0.00  0.00    +0.164 C 
ATOM      6  N   UNL     1       3.218  -2.100  -3.246  0.00  0.00    -0.226 NA
ATOM      7  S   UNL     1       2.284  -0.061  -1.580  0.00  0.00    -0.077 S 
ENDROOT
BRANCH   6   8
ATOM      8  C   UNL     1       3.671  -1.161  -4.134  0.00  0.00    +0.067 A 
ATOM      9  C   UNL     1       2.862  -0.078  -4.484  0.00  0.00    +0.030 A 
ATOM     10  C   UNL     1       3.327   0.867  -5.375  0.00  0.00    +0.030 A 
ATOM     11  C   UNL     1       4.588   0.738  -5.929  0.00  0.00    +0.105 A 
ATOM     12  C   UNL     1       5.393  -0.335  -5.591  0.00  0.00    +0.030 A 
ATOM     13  C   UNL     1       4.943  -1.284  -4.697  0.00  0.00    +0.030 A 
BRANCH  11  14
ATOM     14  S   UNL     1       5.171   1.946  -7.072  0.00  0.00    +0.056 S 
ATOM     15  O   UNL     1       4.446   3.139  -6.807  0.00  0.00    -0.153 OA
ATOM     16  O   UNL     1       6.590   1.892  -7.032  0.00  0.00    -0.153 OA
BRANCH  14  17
ATOM     17  N   UNL     1       4.721   1.446  -8.585  0.00  0.00    -0.204 NA
ATOM     18  H   UNL     1       5.068   2.176  -9.331  0.00  0.00    +0.144 HD
ATOM     19  H   UNL     1       3.625   1.364  -8.634  0.00  0.00    +0.144 HD
ENDBRANCH  14  17
ENDBRANCH  11  14
ENDBRANCH   6   8
BRANCH   1  20
ATOM     20  C   UNL     1       0.002  -0.004   0.013  0.00  0.00    +0.120 C 
BRANCH  20  22
ATOM     21  N   UNL     1      -1.195   2.161   0.019  0.00  0.00    -0.285 N 
ATOM     22  C   UNL     1      -0.018   1.502   0.013  0.00  0.00    +0.219 C 
ATOM     23  O   UNL     1       1.024   2.123   0.003  0.00  0.00    -0.275 OA
ATOM     24  H   UNL     1      -2.138   1.602  -0.064  0.00  0.00    +0.155 HD
BRANCH  21  31
ATOM     25  C   UNL     1      -3.440   3.561  -1.027  0.00  0.00    +0.045 C 
ATOM     26  C   UNL     1      -2.292   4.278  -0.364  0.00  0.00    -0.029 A 
ATOM     27  C   UNL     1      -2.312   5.654  -0.245  0.00  0.00    +0.005 A 
ATOM     28  C   UNL     1      -1.256   6.313   0.357  0.00  0.00    +0.000 A 
ATOM     29  C   UNL     1      -0.180   5.596   0.848  0.00  0.00    +0.002 A 
ATOM     30  C   UNL     1      -0.156   4.220   0.737  0.00  0.00    +0.023 A 
ATOM     31  C   UNL     1      -1.215   3.555   0.133  0.00  0.00    +0.036 A 
ENDBRANCH  21  31
ENDBRANCH  20  22
ENDBRANCH   1  20
BRANCH   4  32
ATOM     32  C   UNL     1       2.202  -3.973  -1.270  0.00  0.00    +0.142 C 
BRANCH  32  33
ATOM     33  C   UNL     1       3.489  -4.446  -0.645  0.00  0.00    -0.015 C 
ATOM     34  C   UNL     1       3.466  -5.368   0.285  0.00  0.00    +0.005 C 
ENDBRANCH  32  33
ENDBRANCH   4  32
TORSDOF 8
