REMARK  Name = ZINC40384562
REMARK  4 active torsions:
REMARK  status: ('A' for Active; 'I' for Inactive)
REMARK    1  A    between atoms: C_2  and  S_9
REMARK    2  A    between atoms: S_9  and  N_12
REMARK    3  A    between atoms: N_15  and  S_18
REMARK    4  A    between atoms: S_18  and  N_21
REMARK                            x       y       z     vdW  Elec       q    Type
REMARK                         _______ _______ _______ _____ _____    ______ ____
ROOT
ATOM      1  N   UNL     1       1.154   4.330   1.596  0.00  0.00    -0.174 NA
ATOM      2  C   UNL     1      -0.107   4.524   2.325  0.00  0.00    +0.126 C 
ATOM      3  C   UNL     1      -0.078   3.662   3.593  0.00  0.00    +0.127 C 
ATOM      4  N   UNL     1       1.190   3.902   4.295  0.00  0.00    -0.164 NA
ATOM      5  C   UNL     1       2.452   3.709   3.566  0.00  0.00    +0.127 C 
ATOM      6  C   UNL     1       2.422   4.566   2.300  0.00  0.00    +0.126 C 
ENDROOT
BRANCH   1   7
ATOM      7  S   UNL     1       1.146   3.849   0.011  0.00  0.00    +0.061 S 
ATOM      8  O   UNL     1       2.380   4.275  -0.549  0.00  0.00    -0.153 OA
ATOM      9  O   UNL     1      -0.110   4.240  -0.526  0.00  0.00    -0.153 OA
BRANCH   7  11
ATOM     10  C   UNL     1      -0.017   1.379   0.010  0.00  0.00    +0.048 A 
ATOM     11  C   UNL     1       1.171   2.087   0.002  0.00  0.00    +0.108 A 
ATOM     12  C   UNL     1       2.377   1.413  -0.013  0.00  0.00    +0.048 A 
ATOM     13  C   UNL     1       2.397   0.030  -0.021  0.00  0.00    +0.044 A 
ATOM     14  C   UNL     1       1.209  -0.679  -0.013  0.00  0.00    +0.040 A 
ATOM     15  C   UNL     1       0.002  -0.004   0.002  0.00  0.00    +0.044 A 
ATOM     16 CL   UNL     1      -1.489  -0.893   0.012  0.00  0.00    -0.083 Cl
ATOM     17 CL   UNL     1       3.913  -0.817  -0.040  0.00  0.00    -0.083 Cl
ENDBRANCH   7  11
ENDBRANCH   1   7
BRANCH   4  18
ATOM     18  S   UNL     1       1.198   4.384   5.879  0.00  0.00    +0.095 S 
ATOM     19  O   UNL     1       2.434   5.052   6.095  0.00  0.00    -0.141 OA
ATOM     20  O   UNL     1      -0.056   5.006   6.121  0.00  0.00    -0.141 OA
BRANCH  18  21
ATOM     21  N   UNL     1       1.234   3.013   6.808  0.00  0.00    -0.193 NA
ATOM     22  H   UNL     1       1.245   2.141   6.384  0.00  0.00    +0.145 HD
ATOM     23  H   UNL     1       1.242   3.083   7.775  0.00  0.00    +0.145 HD
ENDBRANCH  18  21
ENDBRANCH   4  18
TORSDOF 4
