REMARK  Name = ZINC35966641
REMARK  15 active torsions:
REMARK  status: ('A' for Active; 'I' for Inactive)
REMARK    1  A    between atoms: C_1  and  C_2
REMARK    2  A    between atoms: C_2  and  N_3
REMARK    3  A    between atoms: C_6  and  C_11
REMARK    4  A    between atoms: C_16  and  C_17
REMARK    5  A    between atoms: N_23  and  C_25
REMARK    6  A    between atoms: C_25  and  C_27
REMARK    7  A    between atoms: C_25  and  C_31
REMARK    8  A    between atoms: C_27  and  C_28
REMARK    9  A    between atoms: C_28  and  C_29
REMARK   10  A    between atoms: C_28  and  C_30
REMARK   11  A    between atoms: N_33  and  C_34
REMARK   12  A    between atoms: C_34  and  C_35
REMARK   13  A    between atoms: C_35  and  N_36
REMARK   14  A    between atoms: N_36  and  C_37
REMARK   15  A    between atoms: N_36  and  C_38
REMARK                            x       y       z     vdW  Elec       q    Type
REMARK                         _______ _______ _______ _____ _____    ______ ____
ROOT
ATOM      1  N   UNL     1      -2.373   0.277   0.406  0.00  0.00    -0.257 N 
ATOM      2  C   UNL     1      -3.111  -0.556   1.198  0.00  0.00    +0.042 C 
ATOM      3  C   UNL     1      -4.084  -1.333   0.679  0.00  0.00    +0.058 C 
ATOM      4  C   UNL     1      -4.331  -1.250  -0.813  0.00  0.00    +0.142 C 
ATOM      5  N   UNL     1      -3.482  -0.322  -1.579  0.00  0.00    -0.288 N 
ATOM      6  C   UNL     1      -2.552   0.393  -0.916  0.00  0.00    +0.307 C 
ATOM      7  O   UNL     1      -1.849   1.165  -1.539  0.00  0.00    -0.252 OA
ATOM      8  C   UNL     1      -4.695  -2.097   1.695  0.00  0.00    +0.247 C 
ATOM      9  O   UNL     1      -5.604  -2.885   1.510  0.00  0.00    -0.270 OA
ATOM     10  N   UNL     1      -4.142  -1.841   2.894  0.00  0.00    -0.281 N 
ATOM     11  C   UNL     1      -3.087  -0.839   2.683  0.00  0.00    +0.160 C 
ATOM     12  H   UNL     1      -3.592  -0.225  -2.538  0.00  0.00    +0.151 HD
ENDROOT
BRANCH   4  13
ATOM     13  C   UNL     1      -5.768  -0.847  -1.025  0.00  0.00    -0.011 A 
ATOM     14  C   UNL     1      -6.175   0.441  -0.731  0.00  0.00    +0.006 A 
ATOM     15  C   UNL     1      -7.492   0.810  -0.925  0.00  0.00    +0.000 A 
ATOM     16  C   UNL     1      -8.403  -0.108  -1.415  0.00  0.00    +0.001 A 
ATOM     17  C   UNL     1      -7.996  -1.395  -1.710  0.00  0.00    +0.013 A 
ATOM     18  C   UNL     1      -6.677  -1.764  -1.520  0.00  0.00    +0.060 A 
BRANCH  18  19
ATOM     19  C   UNL     1      -6.232  -3.166  -1.846  0.00  0.00    +0.418 C 
ATOM     20  F   UNL     1      -7.317  -3.896  -2.344  0.00  0.00    -0.166 F 
ATOM     21  F   UNL     1      -5.219  -3.120  -2.811  0.00  0.00    -0.166 F 
ATOM     22  F   UNL     1      -5.746  -3.783  -0.689  0.00  0.00    -0.166 F 
ENDBRANCH  18  19
ENDBRANCH   4  13
BRANCH   1  24
ATOM     23  C   UNL     1      -1.932   2.429   1.481  0.00  0.00    +0.025 C 
ATOM     24  C   UNL     1      -1.333   1.092   1.039  0.00  0.00    +0.111 C 
ENDBRANCH   1  24
BRANCH  10  25
ATOM     25  C   UNL     1      -4.521  -2.448   4.173  0.00  0.00    +0.163 C 
BRANCH  25  26
ATOM     26  C   UNL     1      -5.898  -1.976   4.564  0.00  0.00    +0.234 C 
ATOM     27  O   UNL     1      -6.503  -1.209   3.846  0.00  0.00    -0.274 OA
ATOM     28  N   UNL     1      -6.457  -2.407   5.712  0.00  0.00    -0.316 N 
ATOM     29  H   UNL     1      -5.973  -3.021   6.287  0.00  0.00    +0.149 HD
BRANCH  28  30
ATOM     30  C   UNL     1      -7.795  -1.949   6.093  0.00  0.00    +0.085 C 
BRANCH  30  31
ATOM     31  C   UNL     1      -8.191  -2.583   7.428  0.00  0.00    -0.061 C 
BRANCH  31  32
ATOM     32  N   UNL     1      -9.533  -2.123   7.809  0.00  0.00    +0.377 N 
ATOM     33  C   UNL     1     -10.516  -2.620   6.837  0.00  0.00    -0.097 C 
ATOM     34  C   UNL     1      -9.865  -2.635   9.146  0.00  0.00    -0.097 C 
ATOM     35  H   UNL     1      -9.553  -1.114   7.821  0.00  0.00    -0.083 HD
ENDBRANCH  31  32
ENDBRANCH  30  31
ENDBRANCH  28  30
ENDBRANCH  25  26
BRANCH  25  36
ATOM     36  C   UNL     1      -4.524  -3.971   4.033  0.00  0.00    +0.035 C 
BRANCH  36  37
ATOM     37  C   UNL     1      -3.089  -4.470   3.850  0.00  0.00    -0.015 C 
ATOM     38  C   UNL     1      -3.067  -5.998   3.922  0.00  0.00    +0.007 C 
ATOM     39  C   UNL     1      -2.562  -4.016   2.488  0.00  0.00    +0.007 C 
ENDBRANCH  36  37
ENDBRANCH  25  36
ENDBRANCH  10  25
TORSDOF 10
