REMARK  Name = ZINC43252107
REMARK  5 active torsions:
REMARK  status: ('A' for Active; 'I' for Inactive)
REMARK    1  A    between atoms: C_1  and  C_2
REMARK    2  A    between atoms: C_2  and  C_4
REMARK    3  A    between atoms: C_2  and  N_23
REMARK    4  A    between atoms: C_4  and  C_6
REMARK    5  A    between atoms: C_4  and  N_12
REMARK                            x       y       z     vdW  Elec       q    Type
REMARK                         _______ _______ _______ _____ _____    ______ ____
ROOT
ATOM      1  C   UNL     1       0.732  -0.514   1.116  0.00  0.00    +0.079 C 
ENDROOT
BRANCH   1   2
ATOM      2  N   UNL     1       0.128   0.330   2.156  0.00  0.00    -0.294 NA
ATOM      3  C   UNL     1       0.405   1.751   1.907  0.00  0.00    +0.104 C 
ATOM      4  C   UNL     1      -0.388   2.604   2.903  0.00  0.00    +0.122 C 
ATOM      5  N   UNL     1      -0.081   2.140   4.264  0.00  0.00    -0.307 N 
ATOM      6  C   UNL     1      -0.204   0.703   4.553  0.00  0.00    +0.122 C 
ATOM      7  C   UNL     1       0.581  -0.076   3.493  0.00  0.00    +0.104 C 
ATOM      8  C   UNL     1       0.313   3.032   5.248  0.00  0.00    +0.161 A 
ATOM      9  N   UNL     1       0.466   4.336   5.157  0.00  0.00    -0.233 NA
ATOM     10  C   UNL     1       0.851   5.053   6.198  0.00  0.00    +0.120 A 
ATOM     11  C   UNL     1       1.080   4.385   7.354  0.00  0.00    +0.068 A 
ATOM     12  S   UNL     1       0.706   2.713   6.853  0.00  0.00    -0.061 S 
ENDBRANCH   1   2
BRANCH   1  13
ATOM     13  C   UNL     1       0.236  -0.076  -0.238  0.00  0.00    +0.007 A 
ATOM     14  C   UNL     1       0.917   0.020  -1.405  0.00  0.00    +0.014 A 
ATOM     15  C   UNL     1       0.250   0.451  -2.537  0.00  0.00    +0.028 A 
ATOM     16  C   UNL     1      -1.066   0.766  -2.445  0.00  0.00    +0.078 A 
ATOM     17  S   UNL     1      -1.401   0.446  -0.721  0.00  0.00    -0.080 S 
ATOM     18 CL   UNL     1      -2.146   1.328  -3.683  0.00  0.00    -0.076 Cl
ENDBRANCH   1  13
BRANCH   1  20
ATOM     19  C   UNL     1      -1.184  -2.090   1.419  0.00  0.00    -0.012 C 
ATOM     20  C   UNL     1       0.340  -1.974   1.354  0.00  0.00    -0.056 C 
BRANCH  20  21
ATOM     21  N   UNL     1       0.847  -2.803   0.251  0.00  0.00    +0.381 N 
ATOM     22  H   UNL     1       1.852  -2.727   0.208  0.00  0.00    -0.090 HD
ATOM     23  H   UNL     1       0.589  -3.765   0.408  0.00  0.00    -0.090 HD
ATOM     24  H   UNL     1       0.448  -2.485  -0.619  0.00  0.00    -0.090 HD
ENDBRANCH  20  21
ENDBRANCH   1  20
TORSDOF 4
