REMARK  Name = ZINC00958535
REMARK  5 active torsions:
REMARK  status: ('A' for Active; 'I' for Inactive)
REMARK    1  A    between atoms: C_1  and  C_2
REMARK    2  A    between atoms: N_13  and  C_16
REMARK    3  A    between atoms: C_16  and  C_17
REMARK    4  A    between atoms: C_17  and  O_18
REMARK    5  A    between atoms: O_18  and  C_19
REMARK                            x       y       z     vdW  Elec       q    Type
REMARK                         _______ _______ _______ _____ _____    ______ ____
ROOT
ATOM      1  C   UNL     1      -2.537  -4.880   8.688  0.00  0.00    +0.008 C 
ATOM      2  C   UNL     1      -2.056  -4.174   7.419  0.00  0.00    -0.009 C 
ATOM      3  C   UNL     1      -2.870  -4.661   6.216  0.00  0.00    +0.008 C 
ATOM      4  C   UNL     1      -2.572  -3.787   4.998  0.00  0.00    +0.037 C 
ATOM      5  C   UNL     1      -1.061  -3.730   4.791  0.00  0.00    -0.023 A 
ATOM      6  C   UNL     1      -0.214  -4.059   5.791  0.00  0.00    -0.004 A 
ATOM      7  S   UNL     1       1.407  -3.850   5.108  0.00  0.00    -0.071 S 
ATOM      8  C   UNL     1       0.942  -3.320   3.478  0.00  0.00    +0.138 A 
ATOM      9  C   UNL     1      -0.461  -3.325   3.522  0.00  0.00    +0.079 A 
ATOM     10  C   UNL     1      -1.126  -2.930   2.313  0.00  0.00    +0.279 A 
ATOM     11  O   UNL     1      -2.344  -2.903   2.255  0.00  0.00    -0.265 OA
ATOM     12  N   UNL     1      -0.381  -2.590   1.244  0.00  0.00    -0.207 N 
ATOM     13  N   UNL     1       1.016  -2.624   1.305  0.00  0.00    -0.061 NA
ATOM     14  N   UNL     1       1.621  -2.973   2.389  0.00  0.00    -0.123 NA
ATOM     15  C   UNL     1      -0.576  -4.502   7.176  0.00  0.00    +0.046 C 
ENDROOT
BRANCH  12  16
ATOM     16  C   UNL     1      -1.041  -2.184   0.000  0.00  0.00    +0.190 C 
BRANCH  16  17
ATOM     17  C   UNL     1      -1.262  -0.670   0.011  0.00  0.00    +0.252 C 
BRANCH  17  18
ATOM     18  O   UNL     1       0.002  -0.004   0.002  0.00  0.00    -0.490 OA
BRANCH  18  19
ATOM     19  C   UNL     1      -0.016   1.355   0.009  0.00  0.00    +0.121 A 
ATOM     20  C   UNL     1      -1.226   2.033   0.019  0.00  0.00    +0.045 A 
ATOM     21  C   UNL     1      -1.242   3.414   0.031  0.00  0.00    +0.004 A 
ATOM     22  C   UNL     1      -0.054   4.121   0.024  0.00  0.00    +0.000 A 
ATOM     23  C   UNL     1       1.153   3.447   0.009  0.00  0.00    +0.004 A 
ATOM     24  C   UNL     1       1.175   2.066   0.002  0.00  0.00    +0.045 A 
ENDBRANCH  18  19
ENDBRANCH  17  18
ENDBRANCH  16  17
ENDBRANCH  12  16
TORSDOF 4
