REMARK  Name = ZINC13087987
REMARK  8 active torsions:
REMARK  status: ('A' for Active; 'I' for Inactive)
REMARK    1  A    between atoms: C_1  and  C_2
REMARK    2  A    between atoms: C_2  and  C_3
REMARK    3  A    between atoms: C_6  and  S_9
REMARK    4  A    between atoms: S_9  and  N_12
REMARK    5  A    between atoms: N_15  and  C_18
REMARK    6  A    between atoms: C_27  and  C_32
REMARK    7  A    between atoms: N_29  and  C_30
REMARK    8  A    between atoms: C_30  and  C_31
REMARK                            x       y       z     vdW  Elec       q    Type
REMARK                         _______ _______ _______ _____ _____    ______ ____
ROOT
ATOM      1  N   UNL     1      -5.162   0.764  -0.005  0.00  0.00    -0.174 NA
ATOM      2  C   UNL     1      -4.437   0.671   1.271  0.00  0.00    +0.128 C 
ATOM      3  C   UNL     1      -3.229   1.611   1.214  0.00  0.00    +0.122 C 
ATOM      4  N   UNL     1      -2.429   1.304   0.021  0.00  0.00    -0.325 N 
ATOM      5  C   UNL     1      -3.193   1.547  -1.210  0.00  0.00    +0.122 C 
ATOM      6  C   UNL     1      -4.400   0.604  -1.252  0.00  0.00    +0.128 C 
ENDROOT
BRANCH   4   7
ATOM      7  C   UNL     1      -1.238   2.026   0.019  0.00  0.00    +0.067 A 
ATOM      8  C   UNL     1      -1.273   3.411   0.033  0.00  0.00    +0.052 A 
ATOM      9  C   UNL     1      -0.085   4.132   0.025  0.00  0.00    +0.055 A 
ATOM     10  C   UNL     1       1.139   3.439   0.010  0.00  0.00    +0.049 A 
ATOM     11  C   UNL     1       1.159   2.043   0.002  0.00  0.00    +0.054 A 
ATOM     12  C   UNL     1      -0.016   1.347   0.009  0.00  0.00    +0.145 A 
ATOM     13  F   UNL     1       0.002  -0.004   0.002  0.00  0.00    -0.204 F 
ATOM     14  C   UNL     1       2.390   4.217   0.001  0.00  0.00    +0.204 A 
ATOM     15  O   UNL     1       3.478   3.669  -0.012  0.00  0.00    -0.286 OA
ATOM     16  C   UNL     1       2.270   5.685   0.010  0.00  0.00    +0.126 A 
ATOM     17  C   UNL     1       1.012   6.252   0.025  0.00  0.00    +0.105 A 
ATOM     18  N   UNL     1      -0.104   5.511   0.033  0.00  0.00    -0.346 N 
BRANCH  16  19
ATOM     19  C   UNL     1       3.471   6.532   0.003  0.00  0.00    +0.392 C 
ATOM     20  O   UNL     1       4.574   6.022  -0.010  0.00  0.00    -0.240 OA
ATOM     21  O   UNL     1       3.349   7.874   0.011  0.00  0.00    -0.240 OA
ENDBRANCH  16  19
BRANCH  18  22
ATOM     22  C   UNL     1      -1.400   6.195   0.049  0.00  0.00    +0.118 C 
ATOM     23  C   UNL     1      -1.895   6.315   1.492  0.00  0.00    +0.027 C 
ENDBRANCH  18  22
ENDBRANCH   4   7
BRANCH   1  24
ATOM     24  S   UNL     1      -6.795   1.043  -0.036  0.00  0.00    +0.061 S 
ATOM     25  O   UNL     1      -7.269   0.535  -1.276  0.00  0.00    -0.153 OA
ATOM     26  O   UNL     1      -7.306   0.601   1.214  0.00  0.00    -0.153 OA
BRANCH  24  30
ATOM     27  C   UNL     1      -7.386   5.529  -0.164  0.00  0.00    -0.048 A 
ATOM     28  C   UNL     1      -7.277   4.812  -1.341  0.00  0.00    +0.005 A 
ATOM     29  C   UNL     1      -7.097   3.442  -1.302  0.00  0.00    +0.029 A 
ATOM     30  C   UNL     1      -7.024   2.789  -0.086  0.00  0.00    +0.105 A 
ATOM     31  C   UNL     1      -7.138   3.505   1.091  0.00  0.00    +0.029 A 
ATOM     32  C   UNL     1      -7.314   4.875   1.052  0.00  0.00    +0.005 A 
BRANCH  27  34
ATOM     33  C   UNL     1      -9.078   7.340  -0.238  0.00  0.00    +0.009 C 
ATOM     34  C   UNL     1      -7.581   7.022  -0.206  0.00  0.00    +0.032 C 
ENDBRANCH  27  34
ENDBRANCH  24  30
ENDBRANCH   1  24
TORSDOF 6
