REMARK  Name = ZINC04277910
REMARK  8 active torsions:
REMARK  status: ('A' for Active; 'I' for Inactive)
REMARK    1  A    between atoms: C_4  and  S_7
REMARK    2  A    between atoms: S_7  and  N_10
REMARK    3  A    between atoms: C_15  and  C_17
REMARK    4  A    between atoms: N_19  and  C_20
REMARK    5  A    between atoms: C_20  and  C_22
REMARK    6  A    between atoms: C_20  and  C_29
REMARK    7  A    between atoms: C_22  and  C_23
REMARK    8  A    between atoms: C_32  and  C_34
REMARK                            x       y       z     vdW  Elec       q    Type
REMARK                         _______ _______ _______ _____ _____    ______ ____
ROOT
ATOM      1  N   UNL     1       0.600  -1.679  -4.865  0.00  0.00    -0.162 NA
ATOM      2  C   UNL     1      -0.596  -2.089  -4.117  0.00  0.00    +0.129 C 
ATOM      3  C   UNL     1      -0.182  -2.430  -2.680  0.00  0.00    +0.125 C 
ATOM      4  N   UNL     1       0.640  -1.331  -2.155  0.00  0.00    -0.294 N 
ATOM      5  C   UNL     1       1.833  -0.917  -2.906  0.00  0.00    +0.138 C 
ATOM      6  C   UNL     1       1.422  -0.580  -4.340  0.00  0.00    +0.183 C 
ATOM      7  C   UNL     1       0.302  -0.710  -1.007  0.00  0.00    +0.247 C 
ATOM      8  O   UNL     1      -0.746  -0.981  -0.455  0.00  0.00    -0.270 OA
ENDROOT
BRANCH   7   9
ATOM      9  C   UNL     1       1.210   0.297  -0.417  0.00  0.00    +0.040 A 
ATOM     10  C   UNL     1       2.592   0.109  -0.467  0.00  0.00    +0.013 A 
ATOM     11  C   UNL     1       3.435   1.054   0.081  0.00  0.00    +0.004 A 
ATOM     12  C   UNL     1       2.914   2.182   0.689  0.00  0.00    +0.038 A 
ATOM     13  C   UNL     1       1.542   2.373   0.748  0.00  0.00    +0.124 A 
ATOM     14  C   UNL     1       0.688   1.436   0.198  0.00  0.00    +0.051 A 
ATOM     15  F   UNL     1       1.040   3.476   1.343  0.00  0.00    -0.205 F 
ENDBRANCH   7   9
BRANCH   6  16
ATOM     16  C   UNL     1       0.624   0.699  -4.350  0.00  0.00    +0.234 C 
ATOM     17  O   UNL     1      -0.585   0.659  -4.259  0.00  0.00    -0.274 OA
ATOM     18  N   UNL     1       1.253   1.885  -4.460  0.00  0.00    -0.303 N 
ATOM     19  H   UNL     1       2.223   1.923  -4.446  0.00  0.00    +0.149 HD
BRANCH  18  20
ATOM     20  C   UNL     1       0.474   3.118  -4.599  0.00  0.00    +0.159 C 
BRANCH  20  21
ATOM     21  C   UNL     1      -0.195   3.139  -5.950  0.00  0.00    +0.231 C 
ATOM     22  O   UNL     1      -0.035   2.216  -6.720  0.00  0.00    -0.274 OA
ATOM     23  N   UNL     1      -0.969   4.184  -6.302  0.00  0.00    -0.328 N 
ATOM     24  H   UNL     1      -1.097   4.923  -5.686  0.00  0.00    +0.145 HD
ATOM     25  H   UNL     1      -1.400   4.198  -7.171  0.00  0.00    +0.145 HD
ENDBRANCH  20  21
BRANCH  20  26
ATOM     26  C   UNL     1       1.403   4.326  -4.471  0.00  0.00    +0.035 C 
BRANCH  26  27
ATOM     27  C   UNL     1       1.703   4.584  -2.993  0.00  0.00    -0.009 C 
ATOM     28  C   UNL     1       0.433   5.070  -2.292  0.00  0.00    +0.003 C 
ATOM     29  C   UNL     1       0.733   5.328  -0.814  0.00  0.00    +0.000 C 
ATOM     30  C   UNL     1       1.822   6.396  -0.694  0.00  0.00    +0.000 C 
ATOM     31  C   UNL     1       3.092   5.911  -1.395  0.00  0.00    +0.000 C 
ATOM     32  C   UNL     1       2.792   5.652  -2.873  0.00  0.00    +0.003 C 
ENDBRANCH  26  27
ENDBRANCH  20  26
ENDBRANCH  18  20
ENDBRANCH   6  16
BRANCH   1  33
ATOM     33  S   UNL     1       1.014  -2.441  -6.276  0.00  0.00    +0.062 S 
ATOM     34  O   UNL     1       2.412  -2.248  -6.447  0.00  0.00    -0.153 OA
ATOM     35  O   UNL     1       0.425  -3.733  -6.228  0.00  0.00    -0.153 OA
BRANCH  33  39
ATOM     36  C   UNL     1      -1.023  -0.214  -9.649  0.00  0.00    +0.000 A 
ATOM     37  C   UNL     1       0.244   0.160  -9.240  0.00  0.00    +0.002 A 
ATOM     38  C   UNL     1       0.866  -0.520  -8.210  0.00  0.00    +0.028 A 
ATOM     39  C   UNL     1       0.222  -1.574  -7.589  0.00  0.00    +0.106 A 
ATOM     40  C   UNL     1      -1.042  -1.951  -8.002  0.00  0.00    +0.028 A 
ATOM     41  C   UNL     1      -1.667  -1.268  -9.029  0.00  0.00    +0.002 A 
ENDBRANCH  33  39
ENDBRANCH   1  33
TORSDOF 8
