REMARK  Name = ZINC20673511
REMARK  4 active torsions:
REMARK  status: ('A' for Active; 'I' for Inactive)
REMARK    1  A    between atoms: C_1  and  C_2
REMARK    2  A    between atoms: C_2  and  C_3
REMARK    3  A    between atoms: C_2  and  C_4
REMARK    4  A    between atoms: C_7  and  C_10
REMARK                            x       y       z     vdW  Elec       q    Type
REMARK                         _______ _______ _______ _____ _____    ______ ____
ROOT
ATOM      1  C   UNL     1      -2.673   2.496   4.940  0.00  0.00    +0.008 A 
ATOM      2  C   UNL     1      -4.077   2.564   4.999  0.00  0.00    +0.067 A 
ATOM      3  C   UNL     1      -4.896   2.153   3.922  0.00  0.00    +0.131 A 
ATOM      4  N   UNL     1      -6.212   2.243   4.063  0.00  0.00    -0.199 NA
ATOM      5  C   UNL     1      -6.753   2.702   5.187  0.00  0.00    +0.216 A 
ATOM      6  N   UNL     1      -6.033   3.093   6.223  0.00  0.00    -0.195 NA
ATOM      7  C   UNL     1      -4.695   3.042   6.181  0.00  0.00    +0.167 A 
ATOM      8  N   UNL     1      -3.953   3.436   7.219  0.00  0.00    -0.231 NA
ATOM      9  C   UNL     1      -2.637   3.398   7.202  0.00  0.00    +0.055 A 
ATOM     10  C   UNL     1      -1.952   2.925   6.073  0.00  0.00    +0.047 A 
ATOM     11  C   UNL     1      -0.485   2.868   6.062  0.00  0.00    +0.165 C 
ATOM     12  O   UNL     1       0.114   2.275   5.190  0.00  0.00    -0.292 OA
ATOM     13  C   UNL     1       0.255   3.576   7.178  0.00  0.00    +0.080 C 
ATOM     14  C   UNL     1      -0.491   3.274   8.485  0.00  0.00    +0.014 C 
ATOM     15  C   UNL     1      -1.891   3.877   8.421  0.00  0.00    +0.056 C 
ATOM     16  N   UNL     1      -8.129   2.773   5.275  0.00  0.00    -0.327 N 
ATOM     17  N   UNL     1      -4.341   1.677   2.755  0.00  0.00    -0.342 N 
ATOM     18  H   UNL     1      -8.602   3.149   6.194  0.00  0.00    +0.145 HD
ATOM     19  H   UNL     1      -8.752   2.454   4.427  0.00  0.00    +0.145 HD
ATOM     20  H   UNL     1      -4.992   1.361   1.925  0.00  0.00    +0.144 HD
ATOM     21  H   UNL     1      -3.248   1.613   2.651  0.00  0.00    +0.144 HD
ENDROOT
BRANCH   1  25
ATOM     22  C   UNL     1      -0.682   1.070   1.470  0.00  0.00    -0.045 A 
ATOM     23  C   UNL     1      -0.687   2.425   1.753  0.00  0.00    +0.004 A 
ATOM     24  C   UNL     1      -1.337   2.895   2.876  0.00  0.00    +0.009 A 
ATOM     25  C   UNL     1      -1.980   2.000   3.732  0.00  0.00    -0.016 A 
ATOM     26  C   UNL     1      -1.966   0.634   3.443  0.00  0.00    +0.009 A 
ATOM     27  C   UNL     1      -1.318   0.178   2.315  0.00  0.00    +0.004 A 
BRANCH  22  29
ATOM     28  C   UNL     1       1.506   0.940   0.310  0.00  0.00    +0.012 C 
ATOM     29  C   UNL     1       0.025   0.564   0.238  0.00  0.00    +0.013 C 
ATOM     30  C   UNL     1      -0.603   1.196  -1.006  0.00  0.00    +0.012 C 
ENDBRANCH  22  29
ENDBRANCH   1  25
TORSDOF 2
