REMARK  Name = ZINC13637111
REMARK  7 active torsions:
REMARK  status: ('A' for Active; 'I' for Inactive)
REMARK    1  A    between atoms: C_1  and  C_2
REMARK    2  A    between atoms: C_5  and  N_9
REMARK    3  A    between atoms: C_6  and  C_8
REMARK    4  A    between atoms: N_9  and  S_10
REMARK    5  A    between atoms: S_10  and  C_13
REMARK    6  A    between atoms: C_26  and  C_29
REMARK    7  A    between atoms: C_32  and  O_35
REMARK                            x       y       z     vdW  Elec       q    Type
REMARK                         _______ _______ _______ _____ _____    ______ ____
ROOT
ATOM      1  C   UNL     1      -7.687   1.298  -0.051  0.00  0.00    +0.109 A 
ATOM      2  C   UNL     1      -7.155   2.063  -1.072  0.00  0.00    +0.030 A 
ATOM      3  C   UNL     1      -5.788   2.211  -1.187  0.00  0.00    +0.025 A 
ATOM      4  C   UNL     1      -4.936   1.592  -0.281  0.00  0.00    +0.031 A 
ATOM      5  C   UNL     1      -5.481   0.807   0.741  0.00  0.00    -0.018 A 
ATOM      6  C   UNL     1      -6.848   0.672   0.853  0.00  0.00    +0.034 A 
ATOM      7  C   UNL     1      -4.539   0.128   1.657  0.00  0.00    +0.049 C 
ATOM      8  C   UNL     1      -4.919  -0.242   3.044  0.00  0.00    -0.023 C 
ATOM      9  C   UNL     1      -3.835  -0.189   3.809  0.00  0.00    -0.030 C 
ATOM     10  C   UNL     1      -2.632   0.262   2.979  0.00  0.00    +0.033 C 
ATOM     11  C   UNL     1      -3.310   1.063   1.860  0.00  0.00    +0.029 C 
ATOM     12  C   UNL     1      -2.607   1.106   0.515  0.00  0.00    +0.105 C 
ATOM     13  N   UNL     1      -3.553   1.769  -0.408  0.00  0.00    -0.336 N 
ATOM     14  H   UNL     1      -3.209   2.337  -1.116  0.00  0.00    +0.147 HD
ENDROOT
BRANCH  12  15
ATOM     15  C   UNL     1      -1.334   1.906   0.619  0.00  0.00    -0.027 A 
ATOM     16  C   UNL     1      -0.114   1.258   0.665  0.00  0.00    +0.009 A 
ATOM     17  C   UNL     1       1.055   1.989   0.753  0.00  0.00    +0.046 A 
ATOM     18  C   UNL     1       1.003   3.375   0.802  0.00  0.00    +0.117 A 
ATOM     19  C   UNL     1      -0.223   4.022   0.762  0.00  0.00    +0.046 A 
ATOM     20  C   UNL     1      -1.389   3.287   0.673  0.00  0.00    +0.009 A 
BRANCH  18  21
ATOM     21  O   UNL     1       2.151   4.096   0.889  0.00  0.00    -0.507 OA
ATOM     22  H   UNL     1       2.530   4.338   0.033  0.00  0.00    +0.292 HD
ENDBRANCH  18  21
ENDBRANCH  12  15
BRANCH   1  23
ATOM     23  S   UNL     1      -9.434   1.119   0.099  0.00  0.00    +0.072 S 
ATOM     24  O   UNL     1      -9.695   0.799   1.458  0.00  0.00    -0.150 OA
ATOM     25  O   UNL     1     -10.014   2.246  -0.544  0.00  0.00    -0.150 OA
BRANCH  23  26
ATOM     26  N   UNL     1      -9.868  -0.209  -0.791  0.00  0.00    -0.216 N 
ATOM     27  H   UNL     1     -10.484  -0.114  -1.534  0.00  0.00    +0.174 HD
BRANCH  26  32
ATOM     28  C   UNL     1      -7.748  -5.306   0.506  0.00  0.00    +0.044 C 
ATOM     29  C   UNL     1      -8.312  -3.951   0.161  0.00  0.00    -0.050 A 
ATOM     30  C   UNL     1      -8.606  -3.050   1.168  0.00  0.00    +0.005 A 
ATOM     31  C   UNL     1      -9.117  -1.806   0.855  0.00  0.00    +0.025 A 
ATOM     32  C   UNL     1      -9.346  -1.464  -0.472  0.00  0.00    +0.051 A 
ATOM     33  C   UNL     1      -9.050  -2.372  -1.480  0.00  0.00    -0.028 A 
ATOM     34  C   UNL     1      -8.533  -3.613  -1.161  0.00  0.00    +0.008 A 
ATOM     35  C   UNL     1      -9.290  -2.003  -2.922  0.00  0.00    +0.046 C 
ENDBRANCH  26  32
ENDBRANCH  23  26
ENDBRANCH   1  23
TORSDOF 5
