REMARK  Name = ZINC39744825
REMARK  8 active torsions:
REMARK  status: ('A' for Active; 'I' for Inactive)
REMARK    1  A    between atoms: C_1  and  C_2
REMARK    2  A    between atoms: C_5  and  C_9
REMARK    3  A    between atoms: C_7  and  C_8
REMARK    4  A    between atoms: C_13  and  S_19
REMARK    5  A    between atoms: N_15  and  C_16
REMARK    6  A    between atoms: C_16  and  C_17
REMARK    7  A    between atoms: S_19  and  C_20
REMARK    8  A    between atoms: C_20  and  C_21
REMARK                            x       y       z     vdW  Elec       q    Type
REMARK                         _______ _______ _______ _____ _____    ______ ____
ROOT
ATOM      1  C   UNL     1       0.059  -4.275  -0.021  0.00  0.00    +0.050 C 
ATOM      2  N   UNL     1      -0.561  -4.798   1.217  0.00  0.00    -0.267 NA
ATOM      3  N   UNL     1      -1.957  -5.072   0.842  0.00  0.00    -0.262 NA
ATOM      4  C   UNL     1      -1.835  -5.598  -0.544  0.00  0.00    +0.078 C 
ATOM      5  N   UNL     1      -0.751  -4.786  -1.147  0.00  0.00    +0.413 N 
ATOM      6  H   UNL     1      -0.514  -4.117   1.960  0.00  0.00    +0.139 HD
ATOM      7  H   UNL     1      -2.509  -4.228   0.861  0.00  0.00    +0.140 HD
ATOM      8  H   UNL     1      -1.143  -4.017  -1.668  0.00  0.00    -0.075 HD
ENDROOT
BRANCH   1  13
ATOM      9  C   UNL     1      -0.014   1.503   0.014  0.00  0.00    +0.044 C 
ATOM     10  C   UNL     1       0.005  -0.004   0.004  0.00  0.00    -0.048 A 
ATOM     11  C   UNL     1      -1.160  -0.712   0.238  0.00  0.00    +0.004 A 
ATOM     12  C   UNL     1      -1.142  -2.094   0.229  0.00  0.00    +0.003 A 
ATOM     13  C   UNL     1       0.040  -2.768  -0.013  0.00  0.00    -0.046 A 
ATOM     14  C   UNL     1       1.204  -2.061  -0.247  0.00  0.00    +0.007 A 
ATOM     15  C   UNL     1       1.185  -0.679  -0.243  0.00  0.00    -0.047 A 
ATOM     16  C   UNL     1       2.454   0.093  -0.504  0.00  0.00    +0.044 C 
ENDBRANCH   1  13
BRANCH   5  17
ATOM     17  C   UNL     1       0.078  -5.623  -2.025  0.00  0.00    -0.045 C 
BRANCH  17  18
ATOM     18  C   UNL     1      -0.727  -6.035  -3.231  0.00  0.00    -0.053 C 
ATOM     19  C   UNL     1      -0.277  -5.786  -4.436  0.00  0.00    +0.002 C 
ENDBRANCH  17  18
ENDBRANCH   5  17
BRANCH   4  20
ATOM     20  S   UNL     1      -3.388  -5.363  -1.451  0.00  0.00    -0.152 S 
BRANCH  20  21
ATOM     21  C   UNL     1      -3.662  -3.570  -1.396  0.00  0.00    +0.143 C 
BRANCH  21  22
ATOM     22  C   UNL     1      -4.938  -3.235  -2.124  0.00  0.00    +0.120 A 
ATOM     23  N   UNL     1      -5.314  -1.931  -2.198  0.00  0.00    -0.310 N 
ATOM     24  H   UNL     1      -4.762  -1.248  -1.786  0.00  0.00    +0.170 HD
ATOM     25  C   UNL     1      -6.451  -1.578  -2.841  0.00  0.00    +0.259 A 
ATOM     26  O   UNL     1      -6.800  -0.414  -2.915  0.00  0.00    -0.267 OA
ATOM     27  C   UNL     1      -7.249  -2.654  -3.447  0.00  0.00    +0.065 A 
ATOM     28  C   UNL     1      -8.436  -2.397  -4.130  0.00  0.00    +0.015 A 
ATOM     29  C   UNL     1      -9.144  -3.444  -4.678  0.00  0.00    +0.001 A 
ATOM     30  C   UNL     1      -8.685  -4.749  -4.554  0.00  0.00    +0.002 A 
ATOM     31  C   UNL     1      -7.515  -5.024  -3.882  0.00  0.00    +0.028 A 
ATOM     32  C   UNL     1      -6.779  -3.980  -3.319  0.00  0.00    +0.078 A 
ATOM     33  N   UNL     1      -5.619  -4.205  -2.654  0.00  0.00    -0.233 NA
ENDBRANCH  21  22
ENDBRANCH  20  21
ENDBRANCH   4  20
TORSDOF 6
