REMARK  Name = ZINC09092446
REMARK  6 active torsions:
REMARK  status: ('A' for Active; 'I' for Inactive)
REMARK    1  A    between atoms: C_5  and  C_7
REMARK    2  A    between atoms: C_10  and  S_13
REMARK    3  A    between atoms: N_11  and  N_12
REMARK    4  A    between atoms: S_13  and  C_14
REMARK    5  A    between atoms: C_14  and  C_15
REMARK    6  A    between atoms: N_17  and  C_18
REMARK                            x       y       z     vdW  Elec       q    Type
REMARK                         _______ _______ _______ _____ _____    ______ ____
ROOT
ATOM      1  C   UNL     1       1.246  -2.160  -0.081  0.00  0.00    +0.183 A 
ATOM      2  N   UNL     1       2.316  -2.920  -0.086  0.00  0.00    -0.127 NA
ATOM      3  N   UNL     1       1.974  -4.159  -0.080  0.00  0.00    -0.121 NA
ATOM      4  C   UNL     1       0.664  -4.266  -0.070  0.00  0.00    +0.209 A 
ATOM      5  N   UNL     1       0.155  -2.999  -0.066  0.00  0.00    -0.224 N 
ENDROOT
BRANCH   1  10
ATOM      6  C   UNL     1      -0.022   1.375  -0.076  0.00  0.00    +0.001 A 
ATOM      7  C   UNL     1       1.165   2.087  -0.092  0.00  0.00    +0.001 A 
ATOM      8  C   UNL     1       2.377   1.422  -0.105  0.00  0.00    +0.016 A 
ATOM      9  C   UNL     1       2.411   0.042  -0.101  0.00  0.00    +0.029 A 
ATOM     10  C   UNL     1       1.218  -0.682  -0.085  0.00  0.00    +0.035 A 
ATOM     11  C   UNL     1      -0.003  -0.004  -0.072  0.00  0.00    +0.013 A 
ATOM     12 BR   UNL     1       4.070  -0.866  -0.120  0.00  0.00    -0.050 Br
ENDBRANCH   1  10
BRANCH   5  13
ATOM     13  N   UNL     1      -1.163  -2.639  -0.051  0.00  0.00    -0.295 N 
ATOM     14  H   UNL     1      -1.523  -2.547  -0.989  0.00  0.00    +0.163 HD
ATOM     15  H   UNL     1      -1.711  -3.296   0.484  0.00  0.00    +0.163 HD
ENDBRANCH   5  13
BRANCH   4  16
ATOM     16  S   UNL     1      -0.262  -5.765  -0.059  0.00  0.00    -0.075 S 
BRANCH  16  17
ATOM     17  C   UNL     1       1.005  -7.064  -0.063  0.00  0.00    +0.173 C 
BRANCH  17  18
ATOM     18  C   UNL     1       0.339  -8.415  -0.054  0.00  0.00    +0.228 C 
ATOM     19  O   UNL     1      -0.872  -8.495  -0.046  0.00  0.00    -0.275 OA
ATOM     20  N   UNL     1       1.088  -9.536  -0.056  0.00  0.00    -0.283 N 
ATOM     21  H   UNL     1       2.053  -9.474  -0.128  0.00  0.00    +0.155 HD
BRANCH  20  22
ATOM     22  C   UNL     1       0.472 -10.790   0.047  0.00  0.00    +0.069 A 
ATOM     23  C   UNL     1      -0.767 -11.006  -0.540  0.00  0.00    +0.027 A 
ATOM     24  C   UNL     1      -1.373 -12.244  -0.438  0.00  0.00    +0.022 A 
ATOM     25  C   UNL     1      -0.745 -13.269   0.249  0.00  0.00    +0.044 A 
ATOM     26  C   UNL     1       0.490 -13.058   0.835  0.00  0.00    +0.060 A 
ATOM     27  C   UNL     1       1.104 -11.822   0.732  0.00  0.00    +0.146 A 
ATOM     28  F   UNL     1       2.312 -11.617   1.299  0.00  0.00    -0.203 F 
ATOM     29 CL   UNL     1      -1.510 -14.822   0.375  0.00  0.00    -0.083 Cl
ENDBRANCH  20  22
ENDBRANCH  17  18
ENDBRANCH  16  17
ENDBRANCH   4  16
TORSDOF 6
