REMARK  Name = ZINC22539941
REMARK  9 active torsions:
REMARK  status: ('A' for Active; 'I' for Inactive)
REMARK    1  A    between atoms: C_1  and  C_2
REMARK    2  A    between atoms: C_4  and  C_32
REMARK    3  A    between atoms: C_5  and  C_9
REMARK    4  A    between atoms: C_7  and  C_8
REMARK    5  A    between atoms: C_9  and  C_11
REMARK    6  A    between atoms: C_9  and  N_12
REMARK    7  A    between atoms: C_13  and  C_15
REMARK    8  A    between atoms: N_20  and  S_22
REMARK    9  A    between atoms: S_22  and  C_25
REMARK                            x       y       z     vdW  Elec       q    Type
REMARK                         _______ _______ _______ _____ _____    ______ ____
ROOT
ATOM      1  C   UNL     1       5.611   2.663  -1.876  0.00  0.00    +0.091 C 
ATOM      2  C   UNL     1       6.283   3.484  -0.773  0.00  0.00    +0.015 C 
ATOM      3  C   UNL     1       7.339   4.404  -1.392  0.00  0.00    +0.018 C 
ATOM      4  C   UNL     1       8.410   3.553  -2.083  0.00  0.00    +0.109 C 
ATOM      5  N   UNL     1       7.754   2.656  -3.043  0.00  0.00    -0.176 NA
ATOM      6  C   UNL     1       6.662   1.792  -2.572  0.00  0.00    +0.122 C 
ENDROOT
BRANCH   1   8
ATOM      7  N   UNL     1       3.516   2.332  -0.602  0.00  0.00    -0.308 N 
ATOM      8  C   UNL     1       4.550   1.781  -1.270  0.00  0.00    +0.218 C 
ATOM      9  O   UNL     1       4.625   0.576  -1.383  0.00  0.00    -0.275 OA
ATOM     10  H   UNL     1       3.448   3.425  -0.500  0.00  0.00    +0.149 HD
BRANCH   7  11
ATOM     11  C   UNL     1       2.485   1.475  -0.013  0.00  0.00    +0.100 C 
ATOM     12  C   UNL     1       2.890   1.095   1.412  0.00  0.00    +0.033 C 
BRANCH  11  17
ATOM     13  C   UNL     1      -2.544   4.319   0.108  0.00  0.00    +0.044 C 
ATOM     14  C   UNL     1      -1.233   3.577   0.076  0.00  0.00    -0.047 A 
ATOM     15  C   UNL     1      -1.221   2.196   0.015  0.00  0.00    +0.007 A 
ATOM     16  C   UNL     1      -0.018   1.516  -0.008  0.00  0.00    -0.045 A 
ATOM     17  C   UNL     1       1.173   2.216   0.018  0.00  0.00    -0.024 A 
ATOM     18  C   UNL     1       1.162   3.597   0.074  0.00  0.00    +0.009 A 
ATOM     19  C   UNL     1      -0.042   4.278   0.103  0.00  0.00    -0.047 A 
ATOM     20  C   UNL     1      -0.054   5.784   0.165  0.00  0.00    +0.044 C 
ATOM     21  C   UNL     1      -0.006   0.010  -0.069  0.00  0.00    +0.044 C 
ENDBRANCH  11  17
ENDBRANCH   7  11
ENDBRANCH   1   8
BRANCH   5  22
ATOM     22  S   UNL     1       8.235   2.618  -4.627  0.00  0.00    +0.061 S 
ATOM     23  O   UNL     1       9.579   3.081  -4.655  0.00  0.00    -0.153 OA
ATOM     24  O   UNL     1       7.857   1.347  -5.137  0.00  0.00    -0.153 OA
BRANCH  22  25
ATOM     25  C   UNL     1       7.273   3.814  -5.493  0.00  0.00    +0.106 A 
ATOM     26  C   UNL     1       6.071   3.448  -6.069  0.00  0.00    +0.029 A 
ATOM     27  C   UNL     1       5.314   4.387  -6.744  0.00  0.00    +0.017 A 
ATOM     28  C   UNL     1       5.764   5.691  -6.851  0.00  0.00    +0.018 A 
ATOM     29  C   UNL     1       6.969   6.055  -6.279  0.00  0.00    +0.017 A 
ATOM     30  C   UNL     1       7.723   5.117  -5.600  0.00  0.00    +0.029 A 
ATOM     31 BR   UNL     1       4.732   6.974  -7.781  0.00  0.00    -0.050 Br
ENDBRANCH  22  25
ENDBRANCH   5  22
TORSDOF 5
