REMARK  Name = ZINC14164823
REMARK  4 active torsions:
REMARK  status: ('A' for Active; 'I' for Inactive)
REMARK    1  A    between atoms: C_1  and  C_2
REMARK    2  A    between atoms: C_7  and  C_17
REMARK    3  A    between atoms: C_12  and  S_14
REMARK    4  A    between atoms: S_14  and  C_15
REMARK                            x       y       z     vdW  Elec       q    Type
REMARK                         _______ _______ _______ _____ _____    ______ ____
ROOT
ATOM      1  C   UNL     1      -0.883  -3.839   4.924  0.00  0.00    +0.008 C 
ATOM      2  C   UNL     1      -0.768  -3.004   3.647  0.00  0.00    -0.001 C 
ATOM      3  C   UNL     1      -1.261  -3.820   2.451  0.00  0.00    +0.055 C 
ATOM      4  C   UNL     1      -1.190  -2.981   1.198  0.00  0.00    +0.020 C 
ATOM      5  C   UNL     1      -1.353  -1.641   1.250  0.00  0.00    +0.041 C 
ATOM      6  C   UNL     1      -1.293  -0.775   0.011  0.00  0.00    +0.175 C 
ATOM      7  N   UNL     1      -1.368  -1.607  -1.184  0.00  0.00    -0.220 N 
ATOM      8  C   UNL     1      -1.203  -2.952  -1.168  0.00  0.00    +0.219 A 
ATOM      9  N   UNL     1      -1.322  -3.391  -2.391  0.00  0.00    -0.187 NA
ATOM     10  C   UNL     1      -1.567  -2.361  -3.214  0.00  0.00    +0.210 A 
ATOM     11  N   UNL     1      -1.605  -1.250  -2.510  0.00  0.00    -0.141 NA
ATOM     12  N   UNL     1      -0.961  -3.637   0.012  0.00  0.00    -0.287 N 
ATOM     13  C   UNL     1      -1.586  -0.990   2.474  0.00  0.00    +0.163 C 
ATOM     14  O   UNL     1      -1.746   0.215   2.486  0.00  0.00    -0.292 OA
ATOM     15  C   UNL     1      -1.642  -1.751   3.769  0.00  0.00    +0.083 C 
ATOM     16  H   UNL     1      -0.638  -4.552   0.002  0.00  0.00    +0.155 HD
ENDROOT
BRANCH   6  17
ATOM     17  C   UNL     1       0.002  -0.004   0.002  0.00  0.00    -0.018 A 
ATOM     18  C   UNL     1      -0.017   1.378   0.010  0.00  0.00    +0.006 A 
ATOM     19  C   UNL     1       1.171   2.086   0.002  0.00  0.00    +0.000 A 
ATOM     20  C   UNL     1       2.377   1.411  -0.015  0.00  0.00    +0.000 A 
ATOM     21  C   UNL     1       2.396   0.029  -0.021  0.00  0.00    +0.000 A 
ATOM     22  C   UNL     1       1.208  -0.679  -0.013  0.00  0.00    +0.006 A 
ENDBRANCH   6  17
BRANCH  10  23
ATOM     23  S   UNL     1      -1.802  -2.477  -4.957  0.00  0.00    -0.088 S 
ATOM     24  C   UNL     1      -1.631  -4.249  -5.305  0.00  0.00    +0.093 C 
ENDBRANCH  10  23
TORSDOF 2
