REMARK  Name = ZINC46539450
REMARK  10 active torsions:
REMARK  status: ('A' for Active; 'I' for Inactive)
REMARK    1  A    between atoms: C_1  and  C_2
REMARK    2  A    between atoms: C_2  and  C_4
REMARK    3  A    between atoms: C_2  and  N_22
REMARK    4  A    between atoms: N_6  and  C_7
REMARK    5  A    between atoms: C_12  and  C_13
REMARK    6  A    between atoms: C_13  and  N_14
REMARK    7  A    between atoms: N_14  and  C_15
REMARK    8  A    between atoms: N_14  and  C_16
REMARK    9  A    between atoms: N_22  and  S_23
REMARK   10  A    between atoms: S_23  and  C_26
REMARK                            x       y       z     vdW  Elec       q    Type
REMARK                         _______ _______ _______ _____ _____    ______ ____
ROOT
ATOM      1  C   UNL     1       1.033  -0.901   0.879  0.00  0.00    +0.236 C 
ATOM      2  O   UNL     1       0.739  -1.973   1.365  0.00  0.00    -0.274 OA
ATOM      3  N   UNL     1       2.019  -0.161   1.426  0.00  0.00    -0.284 N 
ATOM      4  H   UNL     1       2.308   0.657   0.992  0.00  0.00    +0.155 HD
ENDROOT
BRANCH   3   5
ATOM      5  C   UNL     1       2.624  -0.574   2.618  0.00  0.00    +0.035 A 
ATOM      6  C   UNL     1       1.935  -1.394   3.501  0.00  0.00    +0.023 A 
ATOM      7  C   UNL     1       2.535  -1.800   4.677  0.00  0.00    +0.002 A 
ATOM      8  C   UNL     1       3.821  -1.388   4.976  0.00  0.00    +0.000 A 
ATOM      9  C   UNL     1       4.510  -0.571   4.099  0.00  0.00    +0.003 A 
ATOM     10  C   UNL     1       3.917  -0.167   2.918  0.00  0.00    -0.043 A 
BRANCH  10  11
ATOM     11  C   UNL     1       4.672   0.718   1.960  0.00  0.00    -0.041 C 
BRANCH  11  12
ATOM     12  N   UNL     1       4.235   2.110   2.131  0.00  0.00    +0.382 N 
ATOM     13  C   UNL     1       4.610   2.579   3.472  0.00  0.00    -0.095 C 
ATOM     14  H   UNL     1       3.233   2.163   2.025  0.00  0.00    -0.081 HD
BRANCH  12  15
ATOM     15  C   UNL     1       4.881   2.954   1.118  0.00  0.00    -0.069 C 
ATOM     16  C   UNL     1       4.425   4.404   1.296  0.00  0.00    -0.015 C 
ATOM     17  C   UNL     1       5.098   5.284   0.241  0.00  0.00    -0.002 C 
ATOM     18  C   UNL     1       4.707   4.795  -1.155  0.00  0.00    -0.000 C 
ATOM     19  C   UNL     1       5.162   3.345  -1.334  0.00  0.00    -0.002 C 
ATOM     20  C   UNL     1       4.489   2.465  -0.278  0.00  0.00    -0.015 C 
ENDBRANCH  12  15
ENDBRANCH  11  12
ENDBRANCH  10  11
ENDBRANCH   3   5
BRANCH   1  22
ATOM     21  C   UNL     1      -0.381   0.935  -0.003  0.00  0.00    +0.035 C 
ATOM     22  C   UNL     1       0.296  -0.396  -0.334  0.00  0.00    +0.159 C 
BRANCH  22  23
ATOM     23  N   UNL     1      -0.719  -1.375  -0.732  0.00  0.00    -0.178 NA
ATOM     24  H   UNL     1      -1.188  -1.888  -0.056  0.00  0.00    +0.149 HD
BRANCH  23  25
ATOM     25  S   UNL     1      -1.065  -1.604  -2.335  0.00  0.00    +0.059 S 
ATOM     26  O   UNL     1      -2.055  -2.621  -2.395  0.00  0.00    -0.153 OA
ATOM     27  O   UNL     1      -1.262  -0.314  -2.896  0.00  0.00    -0.153 OA
BRANCH  25  28
ATOM     28  C   UNL     1       0.383  -2.266  -3.091  0.00  0.00    +0.105 A 
ATOM     29  C   UNL     1       1.334  -1.416  -3.623  0.00  0.00    +0.030 A 
ATOM     30  C   UNL     1       2.470  -1.935  -4.217  0.00  0.00    +0.022 A 
ATOM     31  C   UNL     1       2.654  -3.304  -4.277  0.00  0.00    +0.041 A 
ATOM     32  C   UNL     1       1.701  -4.154  -3.744  0.00  0.00    +0.022 A 
ATOM     33  C   UNL     1       0.569  -3.635  -3.146  0.00  0.00    +0.030 A 
ATOM     34 CL   UNL     1       4.080  -3.956  -5.023  0.00  0.00    -0.084 Cl
ENDBRANCH  25  28
ENDBRANCH  23  25
ENDBRANCH  22  23
ENDBRANCH   1  22
TORSDOF 8
