REMARK  Name = ZINC14093834
REMARK  5 active torsions:
REMARK  status: ('A' for Active; 'I' for Inactive)
REMARK    1  A    between atoms: C_1  and  C_2
REMARK    2  A    between atoms: C_2  and  C_3
REMARK    3  A    between atoms: C_8  and  N_9
REMARK    4  A    between atoms: C_13  and  S_15
REMARK    5  A    between atoms: S_15  and  C_16
REMARK                            x       y       z     vdW  Elec       q    Type
REMARK                         _______ _______ _______ _____ _____    ______ ____
ROOT
ATOM      1  N   UNL     1       2.460   3.236  -0.004  0.00  0.00    -0.292 N 
ATOM      2  C   UNL     1       1.739   2.049   0.082  0.00  0.00    +0.187 A 
ATOM      3  N   UNL     1       2.166   0.831   0.352  0.00  0.00    -0.125 NA
ATOM      4  N   UNL     1       1.272  -0.215   0.387  0.00  0.00    -0.133 NA
ATOM      5  C   UNL     1      -0.007   0.006   0.150  0.00  0.00    +0.161 A 
ATOM      6  S   UNL     1      -0.010   1.768  -0.144  0.00  0.00    -0.024 S 
ATOM      7  H   UNL     1       1.994   4.077  -0.129  0.00  0.00    +0.154 HD
ENDROOT
BRANCH   1  13
ATOM      8  C   UNL     1       4.562   4.405   0.186  0.00  0.00    -0.026 A 
ATOM      9  C   UNL     1       5.940   4.381   0.282  0.00  0.00    +0.005 A 
ATOM     10  C   UNL     1       6.614   3.174   0.270  0.00  0.00    +0.000 A 
ATOM     11  C   UNL     1       5.912   1.987   0.167  0.00  0.00    +0.002 A 
ATOM     12  C   UNL     1       4.534   2.003   0.075  0.00  0.00    +0.023 A 
ATOM     13  C   UNL     1       3.853   3.215   0.088  0.00  0.00    +0.036 A 
BRANCH   8  15
ATOM     14  C   UNL     1       3.375   6.045   1.618  0.00  0.00    +0.009 C 
ATOM     15  C   UNL     1       3.829   5.722   0.193  0.00  0.00    +0.033 C 
ENDBRANCH   8  15
ENDBRANCH   1  13
BRANCH   5  16
ATOM     16  S   UNL     1      -1.352  -1.131   0.130  0.00  0.00    -0.084 S 
BRANCH  16  17
ATOM     17  C   UNL     1      -0.582  -2.728   0.517  0.00  0.00    +0.139 C 
ATOM     18  C   UNL     1      -1.665  -3.801   0.656  0.00  0.00    +0.024 C 
ATOM     19  C   UNL     1      -2.805  -3.543  -0.312  0.00  0.00    +0.003 C 
ATOM     20  C   UNL     1      -2.418  -3.702  -1.771  0.00  0.00    +0.019 C 
ATOM     21  C   UNL     1      -1.426  -2.617  -2.194  0.00  0.00    +0.104 C 
ATOM     22  N   UNL     1      -0.064  -3.074  -1.874  0.00  0.00    -0.314 N 
ATOM     23  C   UNL     1       0.350  -3.129  -0.607  0.00  0.00    +0.226 C 
ATOM     24  O   UNL     1       1.476  -3.501  -0.355  0.00  0.00    -0.275 OA
ATOM     25  H   UNL     1       0.537  -3.336  -2.589  0.00  0.00    +0.149 HD
ENDBRANCH  16  17
ENDBRANCH   5  16
TORSDOF 4
