REMARK  Name = ZINC23369543
REMARK  8 active torsions:
REMARK  status: ('A' for Active; 'I' for Inactive)
REMARK    1  A    between atoms: C_1  and  C_2
REMARK    2  A    between atoms: C_2  and  C_3
REMARK    3  A    between atoms: C_2  and  C_4
REMARK    4  A    between atoms: C_6  and  C_26
REMARK    5  A    between atoms: N_7  and  C_9
REMARK    6  A    between atoms: C_18  and  O_20
REMARK    7  A    between atoms: C_26  and  C_27
REMARK    8  A    between atoms: C_26  and  C_28
REMARK                            x       y       z     vdW  Elec       q    Type
REMARK                         _______ _______ _______ _____ _____    ______ ____
ROOT
ATOM      1  C   UNL     1      -2.387  -0.655  -2.830  0.00  0.00    +0.167 C 
ATOM      2  C   UNL     1      -3.135   0.504  -3.453  0.00  0.00    -0.017 A 
ATOM      3  C   UNL     1      -3.822   0.588  -4.652  0.00  0.00    +0.006 A 
ATOM      4  C   UNL     1      -4.437   1.769  -5.020  0.00  0.00    +0.000 A 
ATOM      5  C   UNL     1      -4.367   2.871  -4.189  0.00  0.00    +0.000 A 
ATOM      6  C   UNL     1      -3.684   2.790  -2.992  0.00  0.00    +0.004 A 
ATOM      7  C   UNL     1      -3.065   1.607  -2.620  0.00  0.00    -0.034 A 
ATOM      8  C   UNL     1      -2.268   1.260  -1.387  0.00  0.00    +0.021 C 
ATOM      9  C   UNL     1      -2.221  -0.278  -1.342  0.00  0.00    +0.154 C 
ATOM     10  C   UNL     1      -0.852   1.821  -1.493  0.00  0.00    -0.005 C 
ATOM     11  C   UNL     1      -0.075   1.480  -0.218  0.00  0.00    -0.082 C 
ATOM     12  N   UNL     1      -0.773   2.040   0.945  0.00  0.00    +0.379 N 
ATOM     13  C   UNL     1      -2.113   1.458   1.095  0.00  0.00    -0.082 C 
ATOM     14  C   UNL     1      -2.958   1.798  -0.136  0.00  0.00    -0.005 C 
ATOM     15  H   UNL     1      -0.196   1.828   1.857  0.00  0.00    -0.086 HD
ATOM     16  H   UNL     1      -0.877   3.128   0.822  0.00  0.00    -0.086 HD
ENDROOT
BRANCH   1  20
ATOM     17  C   UNL     1       0.809  -0.311  -4.473  0.00  0.00    +0.066 A 
ATOM     18  C   UNL     1       0.758  -1.692  -4.258  0.00  0.00    +0.048 A 
ATOM     19  C   UNL     1      -0.407  -1.973  -3.630  0.00  0.00    +0.043 A 
ATOM     20  N   UNL     1      -1.075  -0.812  -3.464  0.00  0.00    -0.258 N 
ATOM     21  N   UNL     1      -0.289   0.218  -3.998  0.00  0.00    -0.175 NA
BRANCH  17  23
ATOM     22  C   UNL     1       3.015   0.760  -4.103  0.00  0.00    +0.014 C 
ATOM     23  C   UNL     1       1.935   0.439  -5.138  0.00  0.00    +0.033 C 
ATOM     24  C   UNL     1       2.535  -0.423  -6.250  0.00  0.00    +0.014 C 
ENDBRANCH  17  23
BRANCH  19  25
ATOM     25  C   UNL     1      -0.878  -3.338  -3.199  0.00  0.00    +0.031 C 
ATOM     26  C   UNL     1      -0.411  -4.383  -4.215  0.00  0.00    +0.014 C 
ATOM     27  C   UNL     1      -0.294  -3.667  -1.824  0.00  0.00    +0.014 C 
ENDBRANCH  19  25
ENDBRANCH   1  20
BRANCH   9  28
ATOM     28  O   UNL     1      -3.301  -0.797  -0.563  0.00  0.00    -0.388 OA
ATOM     29  H   UNL     1      -3.334  -0.616   0.521  0.00  0.00    +0.210 HD
ENDBRANCH   9  28
TORSDOF 4
