REMARK  Name = ZINC08120849
REMARK  8 active torsions:
REMARK  status: ('A' for Active; 'I' for Inactive)
REMARK    1  A    between atoms: C_1  and  N_45
REMARK    2  A    between atoms: C_2  and  C_3
REMARK    3  A    between atoms: C_2  and  N_45
REMARK    4  A    between atoms: N_5  and  C_6
REMARK    5  A    between atoms: C_13  and  C_14
REMARK    6  A    between atoms: C_13  and  N_45
REMARK    7  A    between atoms: N_16  and  C_17
REMARK    8  A    between atoms: C_17  and  C_22
REMARK                            x       y       z     vdW  Elec       q    Type
REMARK                         _______ _______ _______ _____ _____    ______ ____
ROOT
ATOM      1  C   UNL     1       2.455   0.285  -1.253  0.00  0.00    -0.095 C 
ATOM      2  N   UNL     1       2.406   1.020   0.028  0.00  0.00    +0.389 N 
ATOM      3  H   UNL     1       2.265   0.349   0.793  0.00  0.00    -0.081 HD
ENDROOT
BRANCH   2   4
ATOM      4  C   UNL     1       1.280   1.979   0.018  0.00  0.00    +0.019 C 
BRANCH   4   5
ATOM      5  C   UNL     1      -0.015   1.208   0.015  0.00  0.00    +0.201 C 
ATOM      6  O   UNL     1       0.001  -0.004   0.004  0.00  0.00    -0.278 OA
ATOM      7  N   UNL     1      -1.191   1.867   0.018  0.00  0.00    -0.286 N 
ATOM      8  H   UNL     1      -1.205   2.834   0.092  0.00  0.00    +0.155 HD
BRANCH   7   9
ATOM      9  C   UNL     1      -2.391   1.155  -0.086  0.00  0.00    +0.047 A 
ATOM     10  C   UNL     1      -2.510  -0.099   0.499  0.00  0.00    +0.024 A 
ATOM     11  C   UNL     1      -3.698  -0.796   0.399  0.00  0.00    +0.002 A 
ATOM     12  C   UNL     1      -4.765  -0.252  -0.291  0.00  0.00    +0.001 A 
ATOM     13  C   UNL     1      -4.649   0.994  -0.880  0.00  0.00    +0.017 A 
ATOM     14  C   UNL     1      -3.465   1.699  -0.779  0.00  0.00    +0.039 A 
ATOM     15 BR   UNL     1      -3.307   3.402  -1.585  0.00  0.00    -0.048 Br
ENDBRANCH   7   9
ENDBRANCH   4   5
ENDBRANCH   2   4
BRANCH   2  16
ATOM     16  C   UNL     1       3.679   1.738   0.248  0.00  0.00    +0.019 C 
BRANCH  16  17
ATOM     17  C   UNL     1       4.774   0.728   0.474  0.00  0.00    +0.198 C 
ATOM     18  O   UNL     1       4.522  -0.458   0.437  0.00  0.00    -0.278 OA
ATOM     19  N   UNL     1       6.033   1.142   0.716  0.00  0.00    -0.299 N 
ATOM     20  H   UNL     1       6.235   2.090   0.745  0.00  0.00    +0.150 HD
BRANCH  19  21
ATOM     21  C   UNL     1       7.098   0.160   0.935  0.00  0.00    +0.121 C 
ATOM     22  C   UNL     1       6.798  -0.671   2.200  0.00  0.00    +0.041 C 
ATOM     23  C   UNL     1       8.187  -0.893   2.848  0.00  0.00    +0.003 C 
ATOM     24  C   UNL     1       8.900   0.460   2.599  0.00  0.00    +0.003 C 
ATOM     25  C   UNL     1       8.434   0.879   1.189  0.00  0.00    +0.041 C 
BRANCH  21  26
ATOM     26  C   UNL     1       7.216  -0.725  -0.235  0.00  0.00    +0.088 C 
ATOM     27  N   UNL     1       7.307  -1.408  -1.138  0.00  0.00    -0.194 NA
ENDBRANCH  21  26
ENDBRANCH  19  21
ENDBRANCH  16  17
ENDBRANCH   2  16
TORSDOF 7
