REMARK  Name = ZINC01751803
REMARK  6 active torsions:
REMARK  status: ('A' for Active; 'I' for Inactive)
REMARK    1  A    between atoms: C_6  and  C_7
REMARK    2  A    between atoms: C_12  and  O_19
REMARK    3  A    between atoms: C_14  and  O_18
REMARK    4  A    between atoms: O_19  and  C_20
REMARK    5  A    between atoms: C_20  and  C_21
REMARK    6  A    between atoms: C_27  and  C_29
REMARK                            x       y       z     vdW  Elec       q    Type
REMARK                         _______ _______ _______ _____ _____    ______ ____
ROOT
ATOM      1  C   UNL     1      -3.680  -0.785   0.018  0.00  0.00    +0.065 A 
ATOM      2  C   UNL     1      -3.898  -1.777  -0.883  0.00  0.00    +0.208 A 
ATOM      3  O   UNL     1      -5.033  -2.481  -0.915  0.00  0.00    -0.462 OA
ATOM      4  C   UNL     1      -6.057  -2.273  -0.064  0.00  0.00    +0.145 A 
ATOM      5  C   UNL     1      -7.210  -3.040  -0.149  0.00  0.00    +0.092 A 
ATOM      6  C   UNL     1      -8.258  -2.820   0.730  0.00  0.00    +0.128 A 
ATOM      7  C   UNL     1      -8.171  -1.833   1.706  0.00  0.00    +0.092 A 
ATOM      8  C   UNL     1      -7.031  -1.057   1.808  0.00  0.00    +0.135 A 
ATOM      9  C   UNL     1      -5.967  -1.275   0.923  0.00  0.00    +0.106 A 
ATOM     10  C   UNL     1      -4.733  -0.477   1.001  0.00  0.00    +0.204 A 
ATOM     11  O   UNL     1      -4.591   0.399   1.837  0.00  0.00    -0.286 OA
ENDROOT
BRANCH   1  17
ATOM     12  C   UNL     1      -2.416   1.364   0.026  0.00  0.00    +0.012 A 
ATOM     13  C   UNL     1      -1.228   2.065   0.019  0.00  0.00    +0.050 A 
ATOM     14  C   UNL     1      -0.017   1.387   0.010  0.00  0.00    +0.162 A 
ATOM     15  C   UNL     1       0.002  -0.004   0.002  0.00  0.00    +0.163 A 
ATOM     16  C   UNL     1      -1.188  -0.711   0.004  0.00  0.00    +0.058 A 
ATOM     17  C   UNL     1      -2.403  -0.029   0.016  0.00  0.00    -0.008 A 
ATOM     18  O   UNL     1       1.181  -0.685  -0.007  0.00  0.00    -0.485 OA
ATOM     19  C   UNL     1       2.347   0.054  -0.387  0.00  0.00    +0.270 C 
ATOM     20  C   UNL     1       2.335   1.391   0.365  0.00  0.00    +0.270 C 
ATOM     21  O   UNL     1       1.144   2.099   0.002  0.00  0.00    -0.485 OA
ENDBRANCH   1  17
BRANCH   8  22
ATOM     22  O   UNL     1      -6.943  -0.093   2.759  0.00  0.00    -0.506 OA
ATOM     23  H   UNL     1      -6.570  -0.399   3.596  0.00  0.00    +0.292 HD
ENDBRANCH   8  22
BRANCH   6  24
ATOM     24  O   UNL     1      -9.382  -3.575   0.638  0.00  0.00    -0.483 OA
BRANCH  24  25
ATOM     25  C   UNL     1     -10.427  -3.300   1.573  0.00  0.00    +0.324 C 
BRANCH  25  26
ATOM     26  C   UNL     1     -11.585  -4.231   1.320  0.00  0.00    +0.254 C 
ATOM     27  O   UNL     1     -11.522  -5.049   0.426  0.00  0.00    -0.272 OA
ATOM     28  N   UNL     1     -12.692  -4.154   2.086  0.00  0.00    -0.287 N 
ATOM     29  C   UNL     1     -12.899  -3.216   3.204  0.00  0.00    +0.109 C 
ATOM     30  C   UNL     1     -14.439  -3.083   3.327  0.00  0.00    +0.021 C 
ATOM     31  C   UNL     1     -14.900  -4.532   3.019  0.00  0.00    +0.033 C 
ATOM     32  C   UNL     1     -13.889  -4.996   1.949  0.00  0.00    +0.162 C 
BRANCH  32  33
ATOM     33  C   UNL     1     -14.480  -4.827   0.573  0.00  0.00    +0.231 C 
ATOM     34  O   UNL     1     -13.957  -4.076  -0.223  0.00  0.00    -0.274 OA
ATOM     35  N   UNL     1     -15.590  -5.509   0.228  0.00  0.00    -0.328 N 
ATOM     36  H   UNL     1     -16.008  -6.109   0.865  0.00  0.00    +0.145 HD
ATOM     37  H   UNL     1     -15.970  -5.400  -0.658  0.00  0.00    +0.145 HD
ENDBRANCH  32  33
ENDBRANCH  25  26
ENDBRANCH  24  25
ENDBRANCH   6  24
TORSDOF 6
