REMARK  Name = ZINC38742078
REMARK  4 active torsions:
REMARK  status: ('A' for Active; 'I' for Inactive)
REMARK    1  A    between atoms: C_1  and  C_2
REMARK    2  A    between atoms: C_4  and  C_8
REMARK    3  A    between atoms: C_16  and  C_18
REMARK    4  A    between atoms: C_18  and  C_19
REMARK                            x       y       z     vdW  Elec       q    Type
REMARK                         _______ _______ _______ _____ _____    ______ ____
ROOT
ATOM      1  C   UNL     1      -0.976  -2.937  -1.266  0.00  0.00    +0.206 C 
ATOM      2  N   UNL     1      -2.456  -2.964  -1.351  0.00  0.00    -0.231 NA
ATOM      3  N   UNL     1      -2.858  -4.375  -1.213  0.00  0.00    -0.224 NA
ATOM      4  C   UNL     1      -1.723  -4.971  -0.480  0.00  0.00    +0.240 C 
ATOM      5  N   UNL     1      -0.556  -4.355  -1.196  0.00  0.00    -0.206 N 
ATOM      6  N   UNL     1       0.395  -5.269  -1.596  0.00  0.00    -0.178 NA
ATOM      7  C   UNL     1       0.189  -6.545  -1.613  0.00  0.00    +0.099 C 
ATOM      8  S   UNL     1      -1.485  -6.732  -0.919  0.00  0.00    -0.067 S 
ATOM      9  H   UNL     1      -2.775  -2.581  -2.228  0.00  0.00    +0.143 HD
ATOM     10  H   UNL     1      -3.713  -4.457  -0.685  0.00  0.00    +0.144 HD
ENDROOT
BRANCH   1  14
ATOM     11  C   UNL     1      -0.018   1.503   0.010  0.00  0.00    +0.067 C 
ATOM     12  C   UNL     1       0.002  -0.004   0.002  0.00  0.00    +0.058 C 
ATOM     13  C   UNL     1      -1.086  -0.777   0.003  0.00  0.00    +0.029 C 
ATOM     14  C   UNL     1      -0.531  -2.190  -0.007  0.00  0.00    +0.190 C 
ATOM     15  N   UNL     1       0.926  -1.973  -0.013  0.00  0.00    -0.177 NA
ATOM     16  N   UNL     1       1.125  -0.756  -0.013  0.00  0.00    -0.159 NA
ENDBRANCH   1  14
BRANCH   7  17
ATOM     17  C   UNL     1       1.122  -7.629  -2.086  0.00  0.00    +0.100 C 
BRANCH  17  18
ATOM     18  C   UNL     1       2.409  -7.010  -2.568  0.00  0.00    -0.033 A 
ATOM     19  C   UNL     1       2.580  -6.730  -3.889  0.00  0.00    +0.004 A 
ATOM     20  C   UNL     1       3.763  -6.157  -4.353  0.00  0.00    +0.001 A 
ATOM     21  C   UNL     1       4.781  -5.862  -3.499  0.00  0.00    +0.008 A 
ATOM     22  C   UNL     1       4.641  -6.137  -2.129  0.00  0.00    -0.018 A 
ATOM     23  C   UNL     1       3.435  -6.713  -1.655  0.00  0.00    -0.014 A 
ATOM     24  C   UNL     1       3.292  -6.983  -0.283  0.00  0.00    +0.009 A 
ATOM     25  C   UNL     1       4.308  -6.682   0.571  0.00  0.00    +0.001 A 
ATOM     26  C   UNL     1       5.491  -6.109   0.107  0.00  0.00    +0.001 A 
ATOM     27  C   UNL     1       5.670  -5.847  -1.217  0.00  0.00    +0.008 A 
ENDBRANCH  17  18
ENDBRANCH   7  17
TORSDOF 3
