REMARK  Name = ZINC02925282
REMARK  9 active torsions:
REMARK  status: ('A' for Active; 'I' for Inactive)
REMARK    1  A    between atoms: C_1  and  C_2
REMARK    2  A    between atoms: C_2  and  C_3
REMARK    3  A    between atoms: C_3  and  O_4
REMARK    4  A    between atoms: O_4  and  C_5
REMARK    5  A    between atoms: C_5  and  C_7
REMARK    6  A    between atoms: C_8  and  C_34
REMARK    7  A    between atoms: C_12  and  C_14
REMARK    8  A    between atoms: C_17  and  O_20
REMARK    9  A    between atoms: C_24  and  C_27
REMARK                            x       y       z     vdW  Elec       q    Type
REMARK                         _______ _______ _______ _____ _____    ______ ____
ROOT
ATOM      1  C   UNL     1      -3.751   1.983  -0.360  0.00  0.00    +0.065 C 
ATOM      2  C   UNL     1      -3.590   3.318  -0.351  0.00  0.00    +0.016 C 
ATOM      3  N   UNL     1      -2.394   3.868   0.030  0.00  0.00    -0.321 N 
ATOM      4  C   UNL     1      -1.247   3.121   0.006  0.00  0.00    +0.016 C 
ATOM      5  C   UNL     1      -1.308   1.773   0.007  0.00  0.00    +0.024 C 
ATOM      6  C   UNL     1      -2.637   1.062   0.040  0.00  0.00    +0.092 C 
ATOM      7  C   UNL     1      -0.137   0.994  -0.014  0.00  0.00    +0.162 C 
ATOM      8  O   UNL     1      -0.227  -0.218  -0.028  0.00  0.00    -0.292 OA
ATOM      9  C   UNL     1       1.224   1.634  -0.026  0.00  0.00    +0.088 C 
ATOM     10  C   UNL     1       1.141   2.994   0.676  0.00  0.00    +0.032 C 
ATOM     11  C   UNL     1       0.079   3.840  -0.030  0.00  0.00    +0.059 C 
ATOM     12  C   UNL     1      -4.734   4.213  -0.752  0.00  0.00    +0.061 C 
ATOM     13  H   UNL     1      -2.352   4.917   0.358  0.00  0.00    +0.152 HD
ENDROOT
BRANCH  10  14
ATOM     14  C   UNL     1       2.477   3.687   0.595  0.00  0.00    -0.043 A 
ATOM     15  C   UNL     1       3.031   3.978  -0.637  0.00  0.00    +0.005 A 
ATOM     16  C   UNL     1       4.253   4.619  -0.712  0.00  0.00    +0.020 A 
ATOM     17  C   UNL     1       4.927   4.960   0.447  0.00  0.00    +0.041 A 
ATOM     18  C   UNL     1       4.374   4.664   1.681  0.00  0.00    +0.020 A 
ATOM     19  C   UNL     1       3.150   4.028   1.754  0.00  0.00    +0.005 A 
ATOM     20 CL   UNL     1       6.466   5.758   0.355  0.00  0.00    -0.084 Cl
ENDBRANCH  10  14
BRANCH   6  21
ATOM     21  C   UNL     1      -2.892   0.555   1.437  0.00  0.00    -0.035 A 
ATOM     22  C   UNL     1      -2.950   1.444   2.494  0.00  0.00    +0.008 A 
ATOM     23  C   UNL     1      -3.189   0.982   3.774  0.00  0.00    +0.046 A 
ATOM     24  C   UNL     1      -3.359  -0.376   4.000  0.00  0.00    +0.117 A 
ATOM     25  C   UNL     1      -3.294  -1.267   2.938  0.00  0.00    +0.046 A 
ATOM     26  C   UNL     1      -3.061  -0.799   1.659  0.00  0.00    +0.008 A 
BRANCH  24  27
ATOM     27  O   UNL     1      -3.587  -0.833   5.259  0.00  0.00    -0.507 OA
ATOM     28  H   UNL     1      -3.721  -1.910   5.437  0.00  0.00    +0.292 HD
ENDBRANCH  24  27
ENDBRANCH   6  21
BRANCH   1  29
ATOM     29  C   UNL     1      -4.995   1.438  -0.754  0.00  0.00    +0.338 C 
ATOM     30  O   UNL     1      -5.938   2.173  -0.979  0.00  0.00    -0.245 OA
BRANCH  29  31
ATOM     31  O   UNL     1      -5.136   0.102  -0.882  0.00  0.00    -0.461 OA
BRANCH  31  32
ATOM     32  C   UNL     1      -6.420  -0.380  -1.283  0.00  0.00    +0.232 C 
BRANCH  32  34
ATOM     33  C   UNL     1      -7.762  -2.423  -1.803  0.00  0.00    +0.007 C 
ATOM     34  C   UNL     1      -6.387  -1.907  -1.373  0.00  0.00    +0.038 C 
ENDBRANCH  32  34
ENDBRANCH  31  32
ENDBRANCH  29  31
ENDBRANCH   1  29
TORSDOF 7
