REMARK  Name = ZINC66176570
REMARK  9 active torsions:
REMARK  status: ('A' for Active; 'I' for Inactive)
REMARK    1  A    between atoms: C_1  and  C_2
REMARK    2  A    between atoms: C_2  and  C_4
REMARK    3  A    between atoms: C_2  and  N_13
REMARK    4  A    between atoms: C_4  and  C_5
REMARK    5  A    between atoms: C_5  and  C_6
REMARK    6  A    between atoms: C_9  and  O_12
REMARK    7  A    between atoms: N_16  and  C_17
REMARK    8  A    between atoms: N_16  and  C_18
REMARK    9  A    between atoms: N_21  and  C_24
REMARK                            x       y       z     vdW  Elec       q    Type
REMARK                         _______ _______ _______ _____ _____    ______ ____
ROOT
ATOM      1  N   UNL     1       0.688  -0.476  -1.203  0.00  0.00    -0.297 N 
ATOM      2  C   UNL     1       0.006  -0.608  -2.358  0.00  0.00    +0.302 C 
ATOM      3  O   UNL     1      -1.178  -0.335  -2.400  0.00  0.00    -0.253 OA
ATOM      4  N   UNL     1       0.637  -1.043  -3.467  0.00  0.00    -0.286 N 
ATOM      5  C   UNL     1       2.064  -1.372  -3.417  0.00  0.00    +0.134 C 
ATOM      6  H   UNL     1       1.632  -0.695  -1.170  0.00  0.00    +0.151 HD
ENDROOT
BRANCH   4   7
ATOM      7  C   UNL     1      -0.104  -1.186  -4.723  0.00  0.00    +0.074 C 
ATOM      8  C   UNL     1      -0.037  -2.641  -5.194  0.00  0.00    +0.004 C 
ATOM      9  C   UNL     1      -0.744  -2.768  -6.545  0.00  0.00    -0.077 C 
ATOM     10  N   UNL     1      -0.084  -1.902  -7.530  0.00  0.00    +0.382 N 
ATOM     11  C   UNL     1      -0.207  -0.498  -7.121  0.00  0.00    -0.077 C 
ATOM     12  C   UNL     1       0.521  -0.284  -5.792  0.00  0.00    +0.004 C 
ATOM     13  H   UNL     1       0.892  -2.149  -7.592  0.00  0.00    -0.081 HD
BRANCH  10  14
ATOM     14  C   UNL     1      -0.717  -2.085  -8.843  0.00  0.00    -0.064 C 
ATOM     15  C   UNL     1      -0.573  -3.545  -9.282  0.00  0.00    +0.013 C 
ATOM     16  C   UNL     1      -1.165  -3.709 -10.684  0.00  0.00    +0.158 C 
ATOM     17  O   UNL     1      -0.503  -2.821 -11.587  0.00  0.00    -0.380 OA
ATOM     18  C   UNL     1      -0.644  -1.438 -11.252  0.00  0.00    +0.158 C 
ATOM     19  C   UNL     1      -0.031  -1.183  -9.873  0.00  0.00    +0.013 C 
ENDBRANCH  10  14
ENDBRANCH   4   7
BRANCH   1  21
ATOM     20  C   UNL     1      -0.019   1.526   0.010  0.00  0.00    +0.028 C 
ATOM     21  C   UNL     1       0.002  -0.004   0.002  0.00  0.00    +0.072 C 
BRANCH  21  22
ATOM     22  C   UNL     1       0.742  -0.511   1.242  0.00  0.00    +0.026 C 
BRANCH  22  23
ATOM     23  C   UNL     1       0.655  -2.037   1.299  0.00  0.00    +0.037 C 
BRANCH  23  24
ATOM     24  C   UNL     1       1.384  -2.537   2.519  0.00  0.00    -0.047 A 
ATOM     25  C   UNL     1       2.731  -2.841   2.443  0.00  0.00    +0.007 A 
ATOM     26  C   UNL     1       3.401  -3.299   3.561  0.00  0.00    +0.045 A 
ATOM     27  C   UNL     1       2.722  -3.453   4.761  0.00  0.00    +0.117 A 
ATOM     28  C   UNL     1       1.371  -3.147   4.835  0.00  0.00    +0.045 A 
ATOM     29  C   UNL     1       0.707  -2.684   3.716  0.00  0.00    +0.007 A 
BRANCH  27  30
ATOM     30  O   UNL     1       3.379  -3.905   5.861  0.00  0.00    -0.507 OA
ATOM     31  H   UNL     1       3.771  -3.204   6.401  0.00  0.00    +0.292 HD
ENDBRANCH  27  30
ENDBRANCH  23  24
ENDBRANCH  22  23
ENDBRANCH  21  22
ENDBRANCH   1  21
TORSDOF 7
