REMARK  Name = ZINC02376723
REMARK  9 active torsions:
REMARK  status: ('A' for Active; 'I' for Inactive)
REMARK    1  A    between atoms: C_1  and  C_2
REMARK    2  A    between atoms: C_2  and  C_3
REMARK    3  A    between atoms: C_3  and  C_4
REMARK    4  A    between atoms: C_4  and  O_5
REMARK    5  A    between atoms: O_5  and  C_6
REMARK    6  A    between atoms: C_6  and  C_8
REMARK    7  A    between atoms: N_19  and  C_22
REMARK    8  A    between atoms: C_20  and  N_21
REMARK    9  A    between atoms: C_25  and  O_28
REMARK                            x       y       z     vdW  Elec       q    Type
REMARK                         _______ _______ _______ _____ _____    ______ ____
ROOT
ATOM      1  C   UNL     1       1.555  -2.056  -0.024  0.00  0.00    +0.126 A 
ATOM      2  C   UNL     1       1.157  -0.638  -0.013  0.00  0.00    +0.125 A 
ATOM      3  C   UNL     1       2.413   0.118  -0.020  0.00  0.00    +0.167 A 
ATOM      4  N   UNL     1       2.376   1.433  -0.013  0.00  0.00    -0.225 NA
ATOM      5  C   UNL     1       1.197   2.067   0.002  0.00  0.00    +0.092 A 
ATOM      6  C   UNL     1       1.149   3.474   0.010  0.00  0.00    +0.030 A 
ATOM      7  C   UNL     1      -0.053   4.110   0.025  0.00  0.00    +0.002 A 
ATOM      8  C   UNL     1      -1.246   3.389   0.032  0.00  0.00    +0.002 A 
ATOM      9  C   UNL     1      -1.240   2.029   0.019  0.00  0.00    +0.030 A 
ATOM     10  C   UNL     1      -0.016   1.334   0.009  0.00  0.00    +0.090 A 
ATOM     11  N   UNL     1       0.002  -0.004   0.002  0.00  0.00    -0.241 NA
ATOM     12  N   UNL     1       3.440  -0.806  -0.035  0.00  0.00    -0.280 N 
ATOM     13  C   UNL     1       2.947  -2.076  -0.037  0.00  0.00    +0.119 A 
ENDROOT
BRANCH  12  14
ATOM     14  C   UNL     1       4.805  -0.481  -0.047  0.00  0.00    +0.050 A 
ATOM     15  C   UNL     1       5.353   0.175  -1.141  0.00  0.00    +0.030 A 
ATOM     16  C   UNL     1       6.695   0.500  -1.149  0.00  0.00    +0.047 A 
ATOM     17  C   UNL     1       7.498   0.162  -0.070  0.00  0.00    +0.117 A 
ATOM     18  C   UNL     1       6.952  -0.499   1.021  0.00  0.00    +0.047 A 
ATOM     19  C   UNL     1       5.609  -0.819   1.033  0.00  0.00    +0.030 A 
BRANCH  17  20
ATOM     20  O   UNL     1       8.820   0.476  -0.082  0.00  0.00    -0.507 OA
ATOM     21  H   UNL     1       9.384  -0.209  -0.464  0.00  0.00    +0.292 HD
ENDBRANCH  17  20
ENDBRANCH  12  14
BRANCH  13  22
ATOM     22  N   UNL     1       3.712  -3.212  -0.050  0.00  0.00    -0.343 N 
ATOM     23  H   UNL     1       4.680  -3.144  -0.059  0.00  0.00    +0.144 HD
ATOM     24  H   UNL     1       3.287  -4.083  -0.051  0.00  0.00    +0.144 HD
ENDBRANCH  13  22
BRANCH   1  25
ATOM     25  C   UNL     1       0.692  -3.179  -0.022  0.00  0.00    +0.345 C 
ATOM     26  O   UNL     1       0.311  -3.655  -1.075  0.00  0.00    -0.245 OA
BRANCH  25  27
ATOM     27  O   UNL     1       0.291  -3.720   1.148  0.00  0.00    -0.461 OA
BRANCH  27  28
ATOM     28  C   UNL     1      -0.579  -4.850   1.075  0.00  0.00    +0.232 C 
BRANCH  28  29
ATOM     29  C   UNL     1      -0.922  -5.322   2.490  0.00  0.00    +0.041 C 
BRANCH  29  31
ATOM     30  C   UNL     1      -2.197  -7.003   3.827  0.00  0.00    +0.004 C 
ATOM     31  C   UNL     1      -1.854  -6.532   2.412  0.00  0.00    -0.000 C 
ENDBRANCH  29  31
ENDBRANCH  28  29
ENDBRANCH  27  28
ENDBRANCH  25  27
ENDBRANCH   1  25
TORSDOF 8
