REMARK  Name = ZINC04353967
REMARK  3 active torsions:
REMARK  status: ('A' for Active; 'I' for Inactive)
REMARK    1  A    between atoms: C_1  and  N_2
REMARK    2  A    between atoms: C_5  and  C_10
REMARK    3  A    between atoms: N_19  and  C_21
REMARK                            x       y       z     vdW  Elec       q    Type
REMARK                         _______ _______ _______ _____ _____    ______ ____
ROOT
ATOM      1  C   UNL     1       7.215   1.077  -2.065  0.00  0.00    +0.139 C 
ATOM      2  N   UNL     1       5.987   1.463  -1.366  0.00  0.00    -0.260 N 
ATOM      3  C   UNL     1       5.086   2.247  -2.028  0.00  0.00    +0.042 C 
ATOM      4  C   UNL     1       3.936   2.638  -1.443  0.00  0.00    +0.058 C 
ATOM      5  C   UNL     1       3.676   2.177  -0.023  0.00  0.00    +0.144 C 
ATOM      6  N   UNL     1       4.709   1.335   0.604  0.00  0.00    -0.288 N 
ATOM      7  C   UNL     1       5.808   1.027  -0.112  0.00  0.00    +0.307 C 
ATOM      8  O   UNL     1       6.666   0.332   0.397  0.00  0.00    -0.252 OA
ATOM      9  C   UNL     1       3.182   3.436  -2.328  0.00  0.00    +0.247 C 
ATOM     10  O   UNL     1       2.100   3.925  -2.060  0.00  0.00    -0.270 OA
ATOM     11  N   UNL     1       3.814   3.586  -3.506  0.00  0.00    -0.289 N 
ATOM     12  C   UNL     1       5.080   2.844  -3.418  0.00  0.00    +0.159 C 
ATOM     13  H   UNL     1       4.600   1.009   1.511  0.00  0.00    +0.151 HD
ENDROOT
BRANCH   5  14
ATOM     14  C   UNL     1       2.381   1.408  -0.014  0.00  0.00    +0.013 A 
ATOM     15  C   UNL     1       2.397   0.026  -0.021  0.00  0.00    +0.008 A 
ATOM     16  C   UNL     1       1.208  -0.680  -0.013  0.00  0.00    +0.001 A 
ATOM     17  C   UNL     1       0.002  -0.004   0.002  0.00  0.00    +0.003 A 
ATOM     18  C   UNL     1      -0.017   1.377   0.010  0.00  0.00    +0.039 A 
ATOM     19  C   UNL     1       1.173   2.086   0.002  0.00  0.00    +0.129 A 
ATOM     20  F   UNL     1       1.156   3.437   0.009  0.00  0.00    -0.205 F 
ENDBRANCH   5  14
BRANCH  11  21
ATOM     21  C   UNL     1       3.331   4.347  -4.660  0.00  0.00    +0.077 C 
ATOM     22  C   UNL     1       2.081   5.208  -4.466  0.00  0.00    +0.024 C 
ATOM     23  C   UNL     1       2.001   3.918  -5.284  0.00  0.00    +0.024 C 
ENDBRANCH  11  21
TORSDOF 2
