REMARK  Name = ZINC32642724
REMARK  4 active torsions:
REMARK  status: ('A' for Active; 'I' for Inactive)
REMARK    1  A    between atoms: C_4  and  C_7
REMARK    2  A    between atoms: C_7  and  C_9
REMARK    3  A    between atoms: C_16  and  N_26
REMARK    4  A    between atoms: C_18  and  C_20
REMARK                            x       y       z     vdW  Elec       q    Type
REMARK                         _______ _______ _______ _____ _____    ______ ____
ROOT
ATOM      1  C   UNL     1      -0.016   0.067  -0.024  0.00  0.00    +0.106 A 
ATOM      2  C   UNL     1       1.315  -0.391  -0.043  0.00  0.00    +0.013 A 
ATOM      3  C   UNL     1       1.929  -1.649  -0.094  0.00  0.00    +0.011 A 
ATOM      4  C   UNL     1       3.289  -1.735  -0.098  0.00  0.00    +0.001 A 
ATOM      5  C   UNL     1       4.091  -0.598  -0.052  0.00  0.00    +0.001 A 
ATOM      6  C   UNL     1       3.554   0.653  -0.001  0.00  0.00    +0.012 A 
ATOM      7  C   UNL     1       2.159   0.808   0.006  0.00  0.00    +0.022 A 
ATOM      8  C   UNL     1       1.289   1.906   0.051  0.00  0.00    +0.112 A 
ATOM      9  N   UNL     1       0.008   1.456   0.033  0.00  0.00    -0.260 N 
ATOM     10  C   UNL     1      -1.085   2.244   0.060  0.00  0.00    +0.264 C 
ATOM     11  O   UNL     1      -1.521   2.714  -0.973  0.00  0.00    -0.267 OA
ENDROOT
BRANCH  10  12
ATOM     12  C   UNL     1      -1.754   2.535   1.344  0.00  0.00    +0.040 A 
ATOM     13  C   UNL     1      -1.199   2.081   2.542  0.00  0.00    +0.013 A 
ATOM     14  C   UNL     1      -1.826   2.361   3.739  0.00  0.00    +0.001 A 
ATOM     15  C   UNL     1      -3.007   3.082   3.752  0.00  0.00    +0.000 A 
ATOM     16  C   UNL     1      -3.564   3.532   2.568  0.00  0.00    +0.001 A 
ATOM     17  C   UNL     1      -2.946   3.263   1.365  0.00  0.00    +0.013 A 
ENDBRANCH  10  12
BRANCH   8  18
ATOM     18  N   UNL     1       1.669   3.219   0.104  0.00  0.00    -0.344 N 
ATOM     19  H   UNL     1       0.907   4.011   0.136  0.00  0.00    +0.144 HD
ATOM     20  H   UNL     1       2.737   3.483   0.114  0.00  0.00    +0.144 HD
ENDBRANCH   8  18
BRANCH   1  21
ATOM     21  C   UNL     1      -1.159  -0.734  -0.056  0.00  0.00    +0.210 C 
ATOM     22  O   UNL     1      -1.712  -1.052   0.987  0.00  0.00    -0.285 OA
BRANCH  21  26
ATOM     23  C   UNL     1      -2.719  -2.064  -3.778  0.00  0.00    +0.000 A 
ATOM     24  C   UNL     1      -3.283  -2.511  -2.596  0.00  0.00    +0.001 A 
ATOM     25  C   UNL     1      -2.781  -2.083  -1.384  0.00  0.00    +0.012 A 
ATOM     26  C   UNL     1      -1.703  -1.197  -1.352  0.00  0.00    +0.024 A 
ATOM     27  C   UNL     1      -1.142  -0.746  -2.548  0.00  0.00    +0.012 A 
ATOM     28  C   UNL     1      -1.650  -1.186  -3.753  0.00  0.00    +0.001 A 
ENDBRANCH  21  26
ENDBRANCH   1  21
TORSDOF 4
