REMARK  Name = ZINC35783695
REMARK  7 active torsions:
REMARK  status: ('A' for Active; 'I' for Inactive)
REMARK    1  A    between atoms: C_1  and  C_2
REMARK    2  A    between atoms: N_5  and  C_11
REMARK    3  A    between atoms: C_6  and  C_10
REMARK    4  A    between atoms: C_14  and  S_18
REMARK    5  A    between atoms: C_16  and  N_17
REMARK    6  A    between atoms: S_18  and  N_21
REMARK    7  A    between atoms: N_21  and  C_22
REMARK                            x       y       z     vdW  Elec       q    Type
REMARK                         _______ _______ _______ _____ _____    ______ ____
ROOT
ATOM      1  C   UNL     1       0.508  -2.807  -2.195  0.00  0.00    +0.051 A 
ATOM      2  C   UNL     1       1.414  -3.139  -3.191  0.00  0.00    +0.027 A 
ATOM      3  C   UNL     1       1.031  -3.978  -4.221  0.00  0.00    +0.030 A 
ATOM      4  C   UNL     1      -0.253  -4.489  -4.262  0.00  0.00    +0.107 A 
ATOM      5  C   UNL     1      -1.163  -4.162  -3.273  0.00  0.00    +0.053 A 
ATOM      6  C   UNL     1      -0.786  -3.325  -2.233  0.00  0.00    +0.048 A 
ENDROOT
BRANCH   1  10
ATOM      7  C   UNL     1      -0.019   1.526   0.010  0.00  0.00    +0.039 C 
ATOM      8  C   UNL     1       0.002  -0.004   0.002  0.00  0.00    +0.132 C 
ATOM      9  C   UNL     1       0.722  -0.499  -1.258  0.00  0.00    +0.136 C 
ATOM     10  N   UNL     1       0.894  -1.957  -1.151  0.00  0.00    -0.321 N 
ATOM     11  C   UNL     1       1.483  -2.495   0.085  0.00  0.00    +0.096 C 
ATOM     12  C   UNL     1       0.726  -1.903   1.280  0.00  0.00    +0.182 C 
ATOM     13  O   UNL     1       0.695  -0.479   1.159  0.00  0.00    -0.373 OA
ATOM     14  C   UNL     1       1.353  -4.020   0.097  0.00  0.00    +0.030 C 
ENDBRANCH   1  10
BRANCH   6  15
ATOM     15  N   UNL     1      -1.704  -2.998  -1.228  0.00  0.00    -0.356 N 
ATOM     16  H   UNL     1      -1.440  -2.409  -0.503  0.00  0.00    +0.142 HD
ATOM     17  H   UNL     1      -2.603  -3.360  -1.256  0.00  0.00    +0.142 HD
ENDBRANCH   6  15
BRANCH   4  18
ATOM     18  S   UNL     1      -0.732  -5.557  -5.578  0.00  0.00    +0.058 S 
ATOM     19  O   UNL     1      -2.147  -5.463  -5.683  0.00  0.00    -0.153 OA
ATOM     20  O   UNL     1       0.133  -5.272  -6.669  0.00  0.00    -0.153 OA
BRANCH  18  21
ATOM     21  N   UNL     1      -0.395  -7.106  -5.099  0.00  0.00    -0.193 NA
ATOM     22  C   UNL     1      -1.112  -7.694  -3.965  0.00  0.00    +0.127 C 
ATOM     23  H   UNL     1       0.277  -7.624  -5.570  0.00  0.00    +0.148 HD
ENDBRANCH  18  21
ENDBRANCH   4  18
TORSDOF 4
