REMARK  Name = ZINC12619670
REMARK  7 active torsions:
REMARK  status: ('A' for Active; 'I' for Inactive)
REMARK    1  A    between atoms: C_4  and  N_7
REMARK    2  A    between atoms: C_9  and  C_21
REMARK    3  A    between atoms: C_10  and  C_12
REMARK    4  A    between atoms: N_22  and  N_23
REMARK    5  A    between atoms: N_23  and  C_24
REMARK    6  A    between atoms: C_27  and  S_30
REMARK    7  A    between atoms: S_30  and  N_33
REMARK                            x       y       z     vdW  Elec       q    Type
REMARK                         _______ _______ _______ _____ _____    ______ ____
ROOT
ATOM      1  N   UNL     1      -0.064   0.407  -1.226  0.00  0.00    -0.239 N 
ATOM      2  C   UNL     1      -0.070   1.523  -0.457  0.00  0.00    +0.124 A 
ATOM      3  C   UNL     1       1.185   2.063  -0.486  0.00  0.00    +0.043 A 
ATOM      4  C   UNL     1       1.998   1.193  -1.342  0.00  0.00    +0.137 A 
ATOM      5  N   UNL     1       1.215   0.220  -1.761  0.00  0.00    -0.163 NA
ENDROOT
BRANCH   4   6
ATOM      6  C   UNL     1       3.426   1.373  -1.671  0.00  0.00    +0.157 A 
ATOM      7  C   UNL     1       4.370   0.404  -1.600  0.00  0.00    +0.060 A 
ATOM      8  C   UNL     1       5.627   1.030  -2.016  0.00  0.00    +0.021 A 
ATOM      9  C   UNL     1       6.940   0.578  -2.156  0.00  0.00    +0.011 A 
ATOM     10  C   UNL     1       7.912   1.441  -2.579  0.00  0.00    +0.001 A 
ATOM     11  C   UNL     1       7.601   2.762  -2.869  0.00  0.00    +0.004 A 
ATOM     12  C   UNL     1       6.309   3.227  -2.737  0.00  0.00    +0.047 A 
ATOM     13  C   UNL     1       5.306   2.367  -2.309  0.00  0.00    +0.136 A 
ATOM     14  O   UNL     1       3.984   2.524  -2.095  0.00  0.00    -0.453 OA
ENDBRANCH   4   6
BRANCH   1  18
ATOM     15  C   UNL     1      -3.341  -2.080  -1.890  0.00  0.00    +0.000 A 
ATOM     16  C   UNL     1      -2.124  -2.371  -2.478  0.00  0.00    +0.002 A 
ATOM     17  C   UNL     1      -1.036  -1.549  -2.260  0.00  0.00    +0.028 A 
ATOM     18  C   UNL     1      -1.165  -0.429  -1.449  0.00  0.00    +0.065 A 
ATOM     19  C   UNL     1      -2.388  -0.142  -0.856  0.00  0.00    +0.028 A 
ATOM     20  C   UNL     1      -3.473  -0.965  -1.083  0.00  0.00    +0.002 A 
ENDBRANCH   1  18
BRANCH   3  21
ATOM     21  C   UNL     1       1.635   3.283   0.209  0.00  0.00    +0.142 C 
ATOM     22  N   UNL     1       2.889   3.619   0.185  0.00  0.00    -0.190 NA
BRANCH  22  23
ATOM     23  N   UNL     1       3.297   4.840   0.736  0.00  0.00    -0.238 N 
ATOM     24  H   UNL     1       2.637   5.465   1.073  0.00  0.00    +0.174 HD
BRANCH  23  25
ATOM     25  C   UNL     1       4.654   5.158   0.799  0.00  0.00    +0.048 A 
ATOM     26  C   UNL     1       5.608   4.217   0.429  0.00  0.00    +0.026 A 
ATOM     27  C   UNL     1       6.950   4.536   0.488  0.00  0.00    +0.030 A 
ATOM     28  C   UNL     1       7.346   5.788   0.924  0.00  0.00    +0.105 A 
ATOM     29  C   UNL     1       6.400   6.725   1.298  0.00  0.00    +0.030 A 
ATOM     30  C   UNL     1       5.056   6.415   1.237  0.00  0.00    +0.026 A 
BRANCH  28  31
ATOM     31  S   UNL     1       9.060   6.189   1.004  0.00  0.00    +0.056 S 
ATOM     32  O   UNL     1       9.721   5.331   0.084  0.00  0.00    -0.153 OA
ATOM     33  O   UNL     1       9.149   7.605   0.924  0.00  0.00    -0.153 OA
BRANCH  31  34
ATOM     34  N   UNL     1       9.593   5.765   2.513  0.00  0.00    -0.204 NA
ATOM     35  H   UNL     1      10.514   5.488   2.642  0.00  0.00    +0.144 HD
ATOM     36  H   UNL     1       8.984   5.793   3.268  0.00  0.00    +0.144 HD
ENDBRANCH  31  34
ENDBRANCH  28  31
ENDBRANCH  23  25
ENDBRANCH  22  23
ENDBRANCH   3  21
TORSDOF 7
