REMARK  Name = ZINC36311135
REMARK  10 active torsions:
REMARK  status: ('A' for Active; 'I' for Inactive)
REMARK    1  A    between atoms: C_1  and  C_2
REMARK    2  A    between atoms: C_2  and  C_3
REMARK    3  A    between atoms: C_2  and  C_4
REMARK    4  A    between atoms: C_7  and  N_10
REMARK    5  A    between atoms: C_11  and  C_13
REMARK    6  A    between atoms: C_13  and  C_15
REMARK    7  A    between atoms: C_13  and  N_20
REMARK    8  A    between atoms: N_23  and  C_26
REMARK    9  A    between atoms: C_26  and  N_28
REMARK   10  A    between atoms: N_28  and  C_29
REMARK                            x       y       z     vdW  Elec       q    Type
REMARK                         _______ _______ _______ _____ _____    ______ ____
ROOT
ATOM      1  C   UNL     1       4.007  -3.388  -6.080  0.00  0.00    +0.023 C 
ENDROOT
BRANCH   1   2
ATOM      2  N   UNL     1       5.234  -3.938  -5.490  0.00  0.00    +0.390 N 
ATOM      3  C   UNL     1       6.284  -3.997  -6.515  0.00  0.00    -0.058 C 
ATOM      4  C   UNL     1       7.596  -4.462  -5.875  0.00  0.00    +0.088 C 
ATOM      5  N   UNL     1       7.351  -5.737  -5.184  0.00  0.00    -0.316 N 
ATOM      6  C   UNL     1       6.212  -5.815  -4.256  0.00  0.00    +0.088 C 
ATOM      7  C   UNL     1       4.965  -5.285  -4.972  0.00  0.00    -0.058 C 
ATOM      8  H   UNL     1       5.539  -3.343  -4.734  0.00  0.00    -0.081 HD
BRANCH   5   9
ATOM      9  C   UNL     1       8.147  -6.804  -5.394  0.00  0.00    +0.137 C 
ATOM     10  S   UNL     1       9.536  -6.654  -6.385  0.00  0.00    -0.018 S 
BRANCH   9  11
ATOM     11  N   UNL     1       7.851  -7.989  -4.825  0.00  0.00    -0.297 N 
ATOM     12  H   UNL     1       7.490  -8.710  -5.365  0.00  0.00    +0.154 HD
BRANCH  11  13
ATOM     13  C   UNL     1       8.063  -8.180  -3.454  0.00  0.00    +0.033 A 
ATOM     14  C   UNL     1       8.600  -7.156  -2.684  0.00  0.00    +0.026 A 
ATOM     15  C   UNL     1       8.809  -7.347  -1.333  0.00  0.00    +0.040 A 
ATOM     16  C   UNL     1       8.484  -8.558  -0.745  0.00  0.00    +0.124 A 
ATOM     17  C   UNL     1       7.950  -9.580  -1.511  0.00  0.00    +0.040 A 
ATOM     18  C   UNL     1       7.733  -9.392  -2.862  0.00  0.00    +0.026 A 
ATOM     19  F   UNL     1       8.690  -8.742   0.578  0.00  0.00    -0.205 F 
ENDBRANCH  11  13
ENDBRANCH   9  11
ENDBRANCH   5   9
ENDBRANCH   1   2
BRANCH   1  20
ATOM     20  C   UNL     1       4.271  -1.963  -6.571  0.00  0.00    -0.016 C 
ATOM     21  C   UNL     1       4.725  -1.074  -5.394  0.00  0.00    +0.002 C 
ATOM     22  C   UNL     1       4.065   0.298  -5.678  0.00  0.00    +0.000 C 
ATOM     23  C   UNL     1       2.681  -0.100  -6.249  0.00  0.00    +0.000 C 
ATOM     24  C   UNL     1       2.972  -1.343  -7.114  0.00  0.00    +0.002 C 
ENDBRANCH   1  20
BRANCH   1  26
ATOM     25  N   UNL     1       1.627  -3.491  -5.414  0.00  0.00    -0.287 N 
ATOM     26  C   UNL     1       2.916  -3.367  -5.040  0.00  0.00    +0.204 C 
ATOM     27  O   UNL     1       3.198  -3.238  -3.868  0.00  0.00    -0.277 OA
ATOM     28  H   UNL     1       1.405  -3.669  -6.341  0.00  0.00    +0.155 HD
BRANCH  25  32
ATOM     29  C   UNL     1      -1.408  -3.110  -2.585  0.00  0.00    -0.045 A 
ATOM     30  C   UNL     1      -1.611  -2.666  -3.878  0.00  0.00    +0.006 A 
ATOM     31  C   UNL     1      -0.607  -2.791  -4.819  0.00  0.00    +0.023 A 
ATOM     32  C   UNL     1       0.608  -3.362  -4.463  0.00  0.00    +0.033 A 
ATOM     33  C   UNL     1       0.809  -3.807  -3.163  0.00  0.00    +0.023 A 
ATOM     34  C   UNL     1      -0.198  -3.675  -2.227  0.00  0.00    +0.006 A 
BRANCH  29  36
ATOM     35  C   UNL     1      -2.869  -1.495  -1.399  0.00  0.00    +0.012 C 
ATOM     36  C   UNL     1      -2.506  -2.972  -1.561  0.00  0.00    +0.013 C 
ATOM     37  C   UNL     1      -3.737  -3.752  -2.026  0.00  0.00    +0.012 C 
ENDBRANCH  29  36
ENDBRANCH  25  32
ENDBRANCH   1  26
TORSDOF 8
