REMARK  Name = ZINC40844725
REMARK  6 active torsions:
REMARK  status: ('A' for Active; 'I' for Inactive)
REMARK    1  A    between atoms: C_1  and  O_2
REMARK    2  A    between atoms: O_2  and  C_3
REMARK    3  A    between atoms: C_3  and  C_5
REMARK    4  A    between atoms: C_9  and  N_10
REMARK    5  A    between atoms: N_13  and  N_14
REMARK    6  A    between atoms: C_15  and  C_16
REMARK                            x       y       z     vdW  Elec       q    Type
REMARK                         _______ _______ _______ _____ _____    ______ ____
ROOT
ATOM      1  N   UNL     1      -1.282  -2.317  -2.479  0.00  0.00    -0.262 N 
ATOM      2  C   UNL     1      -1.325  -3.165  -3.525  0.00  0.00    +0.324 C 
ATOM      3  O   UNL     1      -1.370  -4.365  -3.333  0.00  0.00    -0.251 OA
ATOM      4  N   UNL     1      -1.320  -2.684  -4.784  0.00  0.00    -0.191 N 
ATOM      5  H   UNL     1      -1.246  -1.360  -2.632  0.00  0.00    +0.157 HD
ATOM      6  H   UNL     1      -1.351  -3.295  -5.537  0.00  0.00    +0.179 HD
ENDROOT
BRANCH   1  11
ATOM      7  C   UNL     1      -1.248  -2.096   0.003  0.00  0.00    +0.091 A 
ATOM      8  C   UNL     1      -1.271  -2.859   1.239  0.00  0.00    -0.021 A 
ATOM      9  C   UNL     1      -1.323  -4.196   1.062  0.00  0.00    -0.004 A 
ATOM     10  S   UNL     1      -1.342  -4.417  -0.693  0.00  0.00    -0.077 S 
ATOM     11  C   UNL     1      -1.288  -2.812  -1.185  0.00  0.00    +0.088 A 
ATOM     12  C   UNL     1      -1.357  -5.245   2.130  0.00  0.00    +0.043 C 
ATOM     13  C   UNL     1      -0.943  -4.593   3.458  0.00  0.00    +0.005 C 
ATOM     14  C   UNL     1      -1.728  -3.291   3.638  0.00  0.00    +0.005 C 
ATOM     15  C   UNL     1      -1.242  -2.246   2.632  0.00  0.00    +0.037 C 
BRANCH   7  16
ATOM     16  C   UNL     1      -1.191  -0.633   0.010  0.00  0.00    +0.342 C 
ATOM     17  O   UNL     1      -2.220   0.016   0.023  0.00  0.00    -0.245 OA
BRANCH  16  19
ATOM     18  C   UNL     1      -0.017   1.425   0.010  0.00  0.00    +0.280 C 
ATOM     19  O   UNL     1       0.002  -0.004   0.002  0.00  0.00    -0.464 OA
ENDBRANCH  16  19
ENDBRANCH   7  16
ENDBRANCH   1  11
BRANCH   4  20
ATOM     20  N   UNL     1      -1.268  -1.301  -5.005  0.00  0.00    -0.186 NA
ATOM     21  C   UNL     1      -1.263  -0.838  -6.217  0.00  0.00    +0.138 C 
BRANCH  21  22
ATOM     22  C   UNL     1      -1.209   0.618  -6.449  0.00  0.00    -0.005 A 
ATOM     23  C   UNL     1      -1.158   1.500  -5.367  0.00  0.00    +0.010 A 
ATOM     24  C   UNL     1      -1.107   2.859  -5.592  0.00  0.00    +0.016 A 
ATOM     25  C   UNL     1      -1.107   3.351  -6.886  0.00  0.00    +0.018 A 
ATOM     26  C   UNL     1      -1.158   2.482  -7.963  0.00  0.00    +0.016 A 
ATOM     27  C   UNL     1      -1.202   1.120  -7.753  0.00  0.00    +0.010 A 
ATOM     28 BR   UNL     1      -1.039   5.217  -7.184  0.00  0.00    -0.050 Br
ENDBRANCH  21  22
ENDBRANCH   4  20
TORSDOF 5
