REMARK  Name = ZINC39671845
REMARK  8 active torsions:
REMARK  status: ('A' for Active; 'I' for Inactive)
REMARK    1  A    between atoms: C_1  and  C_2
REMARK    2  A    between atoms: C_4  and  C_36
REMARK    3  A    between atoms: N_5  and  C_7
REMARK    4  A    between atoms: C_7  and  C_8
REMARK    5  A    between atoms: C_8  and  C_9
REMARK    6  A    between atoms: C_9  and  N_10
REMARK    7  A    between atoms: C_11  and  C_13
REMARK    8  A    between atoms: C_24  and  C_26
REMARK                            x       y       z     vdW  Elec       q    Type
REMARK                         _______ _______ _______ _____ _____    ______ ____
ROOT
ATOM      1  C   UNL     1       4.599  -6.749   4.017  0.00  0.00    +0.100 C 
ATOM      2  C   UNL     1       5.360  -5.586   4.692  0.00  0.00    +0.121 C 
ATOM      3  N   UNL     1       5.246  -5.857   6.144  0.00  0.00    -0.295 N 
ATOM      4  C   UNL     1       5.398  -7.327   6.258  0.00  0.00    +0.115 C 
ATOM      5  C   UNL     1       4.629  -7.891   5.046  0.00  0.00    -0.004 C 
ATOM      6  C   UNL     1       5.361  -9.100   4.473  0.00  0.00    -0.010 C 
ATOM      7  C   UNL     1       5.327 -10.242   5.492  0.00  0.00    -0.082 C 
ATOM      8  N   UNL     1       3.933 -10.588   5.796  0.00  0.00    +0.379 N 
ATOM      9  C   UNL     1       3.263  -9.448   6.433  0.00  0.00    -0.082 C 
ATOM     10  C   UNL     1       3.209  -8.272   5.454  0.00  0.00    -0.010 C 
ATOM     11  C   UNL     1       5.049  -4.967   7.137  0.00  0.00    +0.265 C 
ATOM     12  O   UNL     1       4.843  -3.799   6.875  0.00  0.00    -0.268 OA
ATOM     13  H   UNL     1       3.453 -10.825   4.941  0.00  0.00    -0.086 HD
ATOM     14  H   UNL     1       3.913 -11.380   6.420  0.00  0.00    -0.086 HD
ENDROOT
BRANCH  11  15
ATOM     15  C   UNL     1       5.083  -5.414   8.551  0.00  0.00    +0.126 A 
ATOM     16  C   UNL     1       4.760  -4.502   9.566  0.00  0.00    +0.033 A 
ATOM     17  C   UNL     1       4.788  -4.901  10.871  0.00  0.00    +0.012 A 
ATOM     18  C   UNL     1       5.144  -6.234  11.153  0.00  0.00    +0.000 A 
ATOM     19  C   UNL     1       5.192  -6.712  12.472  0.00  0.00    +0.010 A 
ATOM     20  C   UNL     1       5.540  -8.007  12.707  0.00  0.00    +0.001 A 
ATOM     21  C   UNL     1       5.851  -8.867  11.654  0.00  0.00    +0.002 A 
ATOM     22  C   UNL     1       5.815  -8.439  10.364  0.00  0.00    +0.028 A 
ATOM     23  C   UNL     1       5.459  -7.107  10.079  0.00  0.00    +0.072 A 
ATOM     24  N   UNL     1       5.411  -6.662   8.824  0.00  0.00    -0.242 NA
ENDBRANCH  11  15
BRANCH   1  26
ATOM     25  N   UNL     1       2.532  -6.873   2.664  0.00  0.00    -0.315 N 
ATOM     26  C   UNL     1       3.178  -6.345   3.722  0.00  0.00    +0.218 C 
ATOM     27  O   UNL     1       2.614  -5.544   4.438  0.00  0.00    -0.275 OA
ATOM     28  H   UNL     1       2.983  -7.514   2.091  0.00  0.00    +0.149 HD
BRANCH  25  29
ATOM     29  C   UNL     1       1.150  -6.481   2.378  0.00  0.00    +0.106 C 
BRANCH  29  30
ATOM     30  C   UNL     1       0.657  -7.221   1.133  0.00  0.00    +0.042 C 
BRANCH  30  31
ATOM     31  C   UNL     1      -0.786  -6.811   0.834  0.00  0.00    +0.145 C 
BRANCH  31  36
ATOM     32  C   UNL     1      -1.779  -7.894  -3.966  0.00  0.00    +0.067 C 
ATOM     33  C   UNL     1      -1.683  -7.973  -2.464  0.00  0.00    +0.060 A 
ATOM     34  C   UNL     1      -2.150  -9.023  -1.666  0.00  0.00    +0.047 A 
ATOM     35  C   UNL     1      -1.876  -8.719  -0.376  0.00  0.00    +0.036 A 
ATOM     36  N   UNL     1      -1.259  -7.519  -0.358  0.00  0.00    -0.268 N 
ATOM     37  N   UNL     1      -1.144  -7.073  -1.681  0.00  0.00    -0.176 NA
ATOM     38  C   UNL     1      -2.204  -9.568   0.825  0.00  0.00    +0.065 C 
ENDBRANCH  31  36
ENDBRANCH  30  31
ENDBRANCH  29  30
ENDBRANCH  25  29
ENDBRANCH   1  26
TORSDOF 6
