REMARK  Name = ZINC44123075
REMARK  4 active torsions:
REMARK  status: ('A' for Active; 'I' for Inactive)
REMARK    1  A    between atoms: C_1  and  C_2
REMARK    2  A    between atoms: C_8  and  N_10
REMARK    3  A    between atoms: C_11  and  C_13
REMARK    4  A    between atoms: C_16  and  C_18
REMARK                            x       y       z     vdW  Elec       q    Type
REMARK                         _______ _______ _______ _____ _____    ______ ____
ROOT
ATOM      1  N   UNL     1       2.116  -0.004   1.231  0.00  0.00    -0.307 N 
ATOM      2  C   UNL     1       2.795   0.128   2.388  0.00  0.00    +0.263 C 
ATOM      3  O   UNL     1       2.266  -0.174   3.441  0.00  0.00    -0.269 OA
ATOM      4  H   UNL     1       2.538   0.237   0.392  0.00  0.00    +0.149 HD
ENDROOT
BRANCH   1  11
ATOM      5  C   UNL     1      -0.019   1.526   0.010  0.00  0.00    +0.009 C 
ATOM      6  C   UNL     1       0.002  -0.004   0.002  0.00  0.00    +0.006 C 
ATOM      7  C   UNL     1      -1.433  -0.534   0.013  0.00  0.00    +0.005 C 
ATOM      8  C   UNL     1      -1.413  -2.063   0.004  0.00  0.00    +0.000 C 
ATOM      9  C   UNL     1      -0.673  -2.570   1.244  0.00  0.00    +0.002 C 
ATOM     10  C   UNL     1       0.763  -2.041   1.233  0.00  0.00    +0.022 C 
ATOM     11  C   UNL     1       0.742  -0.511   1.242  0.00  0.00    +0.076 C 
ENDBRANCH   1  11
BRANCH   2  12
ATOM     12  C   UNL     1       4.177   0.638   2.378  0.00  0.00    +0.133 A 
ATOM     13  C   UNL     1       4.886   0.773   3.555  0.00  0.00    +0.080 A 
ATOM     14  S   UNL     1       6.364   1.373   3.021  0.00  0.00    -0.073 S 
ATOM     15  C   UNL     1       6.003   1.427   1.275  0.00  0.00    +0.129 A 
ATOM     16  N   UNL     1       4.765   0.970   1.238  0.00  0.00    -0.233 NA
BRANCH  15  17
ATOM     17  C   UNL     1       6.867   1.865   0.158  0.00  0.00    +0.114 A 
ATOM     18  C   UNL     1       8.167   2.309   0.410  0.00  0.00    +0.141 A 
ATOM     19  N   UNL     1       8.934   2.698  -0.591  0.00  0.00    -0.260 NA
ATOM     20  C   UNL     1       8.474   2.667  -1.830  0.00  0.00    +0.130 A 
ATOM     21  C   UNL     1       7.186   2.227  -2.085  0.00  0.00    +0.131 A 
ATOM     22  N   UNL     1       6.412   1.831  -1.092  0.00  0.00    -0.250 NA
ENDBRANCH  15  17
ENDBRANCH   2  12
TORSDOF 3
