REMARK  Name = ZINC52774614
REMARK  8 active torsions:
REMARK  status: ('A' for Active; 'I' for Inactive)
REMARK    1  A    between atoms: C_1  and  C_2
REMARK    2  A    between atoms: N_5  and  C_8
REMARK    3  A    between atoms: C_11  and  N_14
REMARK    4  A    between atoms: N_14  and  C_15
REMARK    5  A    between atoms: C_15  and  C_17
REMARK    6  A    between atoms: C_15  and  C_18
REMARK    7  A    between atoms: N_20  and  C_21
REMARK    8  A    between atoms: N_20  and  C_22
REMARK                            x       y       z     vdW  Elec       q    Type
REMARK                         _______ _______ _______ _____ _____    ______ ____
ROOT
ATOM      1  N   UNL     1       2.569  -7.624   1.148  0.00  0.00    -0.333 N 
ATOM      2  H   UNL     1       1.745  -8.055   1.423  0.00  0.00    +0.147 HD
ENDROOT
BRANCH   1   6
ATOM      3  C   UNL     1       3.142  -3.566   1.886  0.00  0.00    +0.014 A 
ATOM      4  C   UNL     1       1.966  -4.179   2.279  0.00  0.00    +0.023 A 
ATOM      5  C   UNL     1       1.773  -5.525   2.035  0.00  0.00    +0.025 A 
ATOM      6  C   UNL     1       2.761  -6.262   1.395  0.00  0.00    +0.028 A 
ATOM      7  C   UNL     1       3.941  -5.643   1.002  0.00  0.00    +0.025 A 
ATOM      8  C   UNL     1       4.125  -4.296   1.244  0.00  0.00    +0.023 A 
BRANCH   3  13
ATOM      9  C   UNL     1       2.854   1.860   3.373  0.00  0.00    +0.007 C 
ATOM     10  C   UNL     1       2.524   0.381   3.161  0.00  0.00    -0.011 C 
ATOM     11  C   UNL     1       2.535   0.064   1.663  0.00  0.00    +0.020 C 
ATOM     12  C   UNL     1       2.283  -1.432   1.462  0.00  0.00    +0.085 C 
ATOM     13  N   UNL     1       3.335  -2.204   2.134  0.00  0.00    -0.393 NA
ATOM     14  C   UNL     1       3.284  -1.960   3.581  0.00  0.00    +0.085 C 
ATOM     15  C   UNL     1       3.575  -0.484   3.863  0.00  0.00    +0.020 C 
ATOM     16  H   UNL     1       4.236  -1.923   1.778  0.00  0.00    +0.126 HD
ENDBRANCH   3  13
ENDBRANCH   1   6
BRANCH   1  17
ATOM     17  C   UNL     1       3.612  -8.400   0.473  0.00  0.00    +0.154 C 
ATOM     18  C   UNL     1       3.458  -8.252  -1.042  0.00  0.00    +0.038 C 
BRANCH  17  19
ATOM     19  C   UNL     1       3.482  -9.852   0.852  0.00  0.00    +0.236 C 
ATOM     20  O   UNL     1       2.429 -10.276   1.280  0.00  0.00    -0.274 OA
ATOM     21  N   UNL     1       4.536 -10.681   0.717  0.00  0.00    -0.298 N 
ATOM     22  C   UNL     1       4.386 -12.110   1.002  0.00  0.00    +0.132 C 
BRANCH  21  23
ATOM     23  C   UNL     1       5.832 -10.153   0.283  0.00  0.00    +0.098 C 
ATOM     24  C   UNL     1       6.332 -10.941  -0.939  0.00  0.00    +0.046 C 
ATOM     25  C   UNL     1       7.821 -10.614  -1.205  0.00  0.00    +0.168 C 
ATOM     26  S   UNL     1       8.445 -10.183   0.471  0.00  0.00    -0.029 S 
ATOM     27  O   UNL     1       8.870  -8.827   0.471  0.00  0.00    -0.174 OA
ATOM     28  O   UNL     1       9.341 -11.197   0.905  0.00  0.00    -0.174 OA
ATOM     29  C   UNL     1       6.875 -10.320   1.425  0.00  0.00    +0.188 C 
ENDBRANCH  21  23
ENDBRANCH  17  19
ENDBRANCH   1  17
TORSDOF 5
