REMARK  Name = ZINC39936375
REMARK  4 active torsions:
REMARK  status: ('A' for Active; 'I' for Inactive)
REMARK    1  A    between atoms: C_6  and  N_10
REMARK    2  A    between atoms: N_10  and  N_11
REMARK    3  A    between atoms: C_12  and  C_13
REMARK    4  A    between atoms: C_17  and  N_20
REMARK                            x       y       z     vdW  Elec       q    Type
REMARK                         _______ _______ _______ _____ _____    ______ ____
ROOT
ATOM      1  N   UNL     1       3.522  -2.756  -1.248  0.00  0.00    -0.229 N 
ATOM      2  H   UNL     1       3.667  -2.257  -2.067  0.00  0.00    +0.172 HD
ENDROOT
BRANCH   1   8
ATOM      3  C   UNL     1      -0.016   1.344   0.009  0.00  0.00    +0.002 A 
ATOM      4  C   UNL     1       1.158   2.118   0.002  0.00  0.00    +0.002 A 
ATOM      5  C   UNL     1       2.389   1.570  -0.013  0.00  0.00    +0.027 A 
ATOM      6  C   UNL     1       2.533   0.108  -0.022  0.00  0.00    +0.061 A 
ATOM      7  N   UNL     1       3.569  -0.680  -0.036  0.00  0.00    -0.347 N 
ATOM      8  C   UNL     1       3.071  -2.062  -0.039  0.00  0.00    +0.283 C 
ATOM      9  N   UNL     1       1.606  -1.974  -0.024  0.00  0.00    -0.347 N 
ATOM     10  C   UNL     1       1.290  -0.712  -0.014  0.00  0.00    +0.061 A 
ATOM     11  C   UNL     1       0.002  -0.004   0.002  0.00  0.00    +0.027 A 
ATOM     12  H   UNL     1       4.499  -0.405  -0.045  0.00  0.00    +0.163 HD
ATOM     13  H   UNL     1       0.987  -2.721  -0.022  0.00  0.00    +0.163 HD
ENDBRANCH   1   8
BRANCH   1  14
ATOM     14  N   UNL     1       3.741  -4.139  -1.221  0.00  0.00    -0.191 NA
ATOM     15  C   UNL     1       4.140  -4.754  -2.292  0.00  0.00    +0.141 C 
BRANCH  15  16
ATOM     16  C   UNL     1       4.371  -6.210  -2.263  0.00  0.00    +0.045 A 
ATOM     17  C   UNL     1       4.805  -6.874  -3.412  0.00  0.00    +0.028 A 
ATOM     18  C   UNL     1       5.019  -8.237  -3.378  0.00  0.00    +0.021 A 
ATOM     19  C   UNL     1       4.805  -8.949  -2.209  0.00  0.00    +0.052 A 
ATOM     20  C   UNL     1       4.375  -8.301  -1.066  0.00  0.00    +0.174 A 
ATOM     21  C   UNL     1       4.161  -6.933  -1.082  0.00  0.00    +0.218 A 
ATOM     22  O   UNL     1       3.744  -6.296   0.043  0.00  0.00    -0.285 OA
ATOM     23 BR   UNL     1       5.607  -9.137  -4.934  0.00  0.00    -0.050 Br
BRANCH  20  24
ATOM     24  N   UNL     1       4.149  -9.071   0.178  0.00  0.00    +0.060 N 
ATOM     25  O   UNL     1       4.341 -10.264   0.194  0.00  0.00    -0.126 OA
ATOM     26  O   UNL     1       3.773  -8.505   1.178  0.00  0.00    -0.126 OA
ENDBRANCH  20  24
ENDBRANCH  15  16
ENDBRANCH   1  14
TORSDOF 4
