REMARK  Name = ZINC27695898
REMARK  18 active torsions:
REMARK  status: ('A' for Active; 'I' for Inactive)
REMARK    1  A    between atoms: C_1  and  C_2
REMARK    2  A    between atoms: C_2  and  C_4
REMARK    3  A    between atoms: C_2  and  C_16
REMARK    4  A    between atoms: C_9  and  O_14
REMARK    5  A    between atoms: O_14  and  C_15
REMARK    6  A    between atoms: N_24  and  C_25
REMARK    7  A    between atoms: C_25  and  C_26
REMARK    8  A    between atoms: C_26  and  C_28
REMARK    9  A    between atoms: C_26  and  O_38
REMARK   10  A    between atoms: C_28  and  N_29
REMARK   11  A    between atoms: N_29  and  C_30
REMARK   12  A    between atoms: N_29  and  C_34
REMARK   13  A    between atoms: C_30  and  C_31
REMARK   14  A    between atoms: C_31  and  C_32
REMARK   15  A    between atoms: C_31  and  C_33
REMARK   16  A    between atoms: C_34  and  C_35
REMARK   17  A    between atoms: C_35  and  C_36
REMARK   18  A    between atoms: C_35  and  C_37
REMARK                            x       y       z     vdW  Elec       q    Type
REMARK                         _______ _______ _______ _____ _____    ______ ____
ROOT
ATOM      1  C   UNL     1       2.301  -2.530   1.759  0.00  0.00    +0.118 A 
ATOM      2  N   UNL     1       3.579  -2.761   1.675  0.00  0.00    -0.232 NA
ATOM      3  C   UNL     1       3.879  -3.915   2.325  0.00  0.00    +0.089 A 
ATOM      4  C   UNL     1       5.066  -4.617   2.544  0.00  0.00    +0.030 A 
ATOM      5  C   UNL     1       5.047  -5.783   3.256  0.00  0.00    +0.002 A 
ATOM      6  C   UNL     1       3.856  -6.280   3.768  0.00  0.00    +0.002 A 
ATOM      7  C   UNL     1       2.672  -5.604   3.564  0.00  0.00    +0.028 A 
ATOM      8  C   UNL     1       2.673  -4.417   2.843  0.00  0.00    +0.069 A 
ATOM      9  N   UNL     1       1.694  -3.516   2.473  0.00  0.00    -0.325 N 
ENDROOT
BRANCH   1  11
ATOM     10  C   UNL     1       2.178  -0.053   1.747  0.00  0.00    +0.020 C 
ATOM     11  C   UNL     1       1.598  -1.341   1.159  0.00  0.00    +0.082 C 
BRANCH  11  12
ATOM     12  C   UNL     1       1.794  -1.343  -0.336  0.00  0.00    -0.037 A 
ATOM     13  C   UNL     1       3.084  -1.284  -0.859  0.00  0.00    +0.005 A 
ATOM     14  C   UNL     1       3.296  -1.284  -2.203  0.00  0.00    +0.009 A 
ATOM     15  C   UNL     1       2.199  -1.345  -3.080  0.00  0.00    -0.014 A 
ATOM     16  C   UNL     1       2.379  -1.347  -4.473  0.00  0.00    +0.054 A 
ATOM     17  C   UNL     1       1.290  -1.408  -5.294  0.00  0.00    +0.121 A 
ATOM     18  C   UNL     1      -0.004  -1.467  -4.767  0.00  0.00    +0.046 A 
ATOM     19  C   UNL     1      -0.212  -1.466  -3.423  0.00  0.00    +0.012 A 
ATOM     20  C   UNL     1       0.886  -1.405  -2.548  0.00  0.00    -0.017 A 
ATOM     21  C   UNL     1       0.708  -1.408  -1.154  0.00  0.00    +0.012 A 
BRANCH  17  22
ATOM     22  O   UNL     1       1.465  -1.410  -6.642  0.00  0.00    -0.495 OA
ATOM     23  C   UNL     1       0.288  -1.475  -7.449  0.00  0.00    +0.277 C 
ENDBRANCH  17  22
ENDBRANCH  11  12
ENDBRANCH   1  11
BRANCH   9  24
ATOM     24  C   UNL     1       0.267  -3.607   2.788  0.00  0.00    +0.153 C 
BRANCH  24  25
ATOM     25  C   UNL     1      -0.451  -4.383   1.682  0.00  0.00    +0.118 C 
BRANCH  25  26
ATOM     26  O   UNL     1       0.018  -5.732   1.664  0.00  0.00    -0.392 OA
ATOM     27  H   UNL     1      -0.130  -6.211   2.491  0.00  0.00    +0.210 HD
ENDBRANCH  25  26
BRANCH  25  28
ATOM     28  C   UNL     1      -1.958  -4.371   1.946  0.00  0.00    -0.045 C 
BRANCH  28  29
ATOM     29  N   UNL     1      -2.663  -4.937   0.789  0.00  0.00    +0.382 N 
ATOM     30  H   UNL     1      -2.312  -4.515  -0.058  0.00  0.00    -0.082 HD
BRANCH  29  31
ATOM     31  C   UNL     1      -2.440  -6.388   0.741  0.00  0.00    -0.076 C 
BRANCH  31  32
ATOM     32  C   UNL     1      -2.540  -6.873  -0.706  0.00  0.00    -0.034 C 
ATOM     33  C   UNL     1      -2.158  -8.353  -0.776  0.00  0.00    +0.005 C 
ATOM     34  C   UNL     1      -3.975  -6.693  -1.206  0.00  0.00    +0.005 C 
ENDBRANCH  31  32
ENDBRANCH  29  31
BRANCH  29  35
ATOM     35  C   UNL     1      -4.102  -4.667   0.911  0.00  0.00    -0.076 C 
BRANCH  35  36
ATOM     36  C   UNL     1      -4.617  -5.233   2.236  0.00  0.00    -0.034 C 
ATOM     37  C   UNL     1      -4.506  -4.164   3.325  0.00  0.00    +0.005 C 
ATOM     38  C   UNL     1      -6.080  -5.651   2.078  0.00  0.00    +0.005 C 
ENDBRANCH  35  36
ENDBRANCH  29  35
ENDBRANCH  28  29
ENDBRANCH  25  28
ENDBRANCH  24  25
ENDBRANCH   9  24
TORSDOF 12
