REMARK  Name = ZINC14159158
REMARK  6 active torsions:
REMARK  status: ('A' for Active; 'I' for Inactive)
REMARK    1  A    between atoms: C_4  and  N_7
REMARK    2  A    between atoms: C_10  and  S_17
REMARK    3  A    between atoms: S_17  and  C_18
REMARK    4  A    between atoms: C_18  and  C_19
REMARK    5  A    between atoms: N_21  and  C_22
REMARK    6  A    between atoms: N_21  and  C_28
REMARK                            x       y       z     vdW  Elec       q    Type
REMARK                         _______ _______ _______ _____ _____    ______ ____
ROOT
ATOM      1  S   UNL     1       3.357  -4.748   2.779  0.00  0.00    -0.077 S 
ENDROOT
BRANCH   1   5
ATOM      2  N   UNL     1       4.978  -0.743  -0.026  0.00  0.00    -0.214 N 
ATOM      3  C   UNL     1       5.030  -1.956   0.599  0.00  0.00    +0.171 A 
ATOM      4  N   UNL     1       4.176  -2.667   1.331  0.00  0.00    -0.202 NA
ATOM      5  C   UNL     1       4.525  -3.847   1.816  0.00  0.00    +0.194 A 
ATOM      6  N   UNL     1       5.726  -4.376   1.605  0.00  0.00    -0.183 NA
ATOM      7  C   UNL     1       6.640  -3.739   0.889  0.00  0.00    +0.285 A 
ATOM      8  O   UNL     1       7.860  -4.286   0.679  0.00  0.00    -0.265 OA
ATOM      9  C   UNL     1       6.315  -2.480   0.351  0.00  0.00    +0.105 A 
ATOM     10  C   UNL     1       7.002  -1.531  -0.438  0.00  0.00    +0.150 A 
ATOM     11  N   UNL     1       6.209  -0.521  -0.657  0.00  0.00    -0.172 NA
BRANCH   2  15
ATOM     12  C   UNL     1       1.712   1.846  -0.069  0.00  0.00    +0.000 A 
ATOM     13  C   UNL     1       2.997   2.356  -0.045  0.00  0.00    +0.002 A 
ATOM     14  C   UNL     1       4.081   1.501  -0.031  0.00  0.00    +0.028 A 
ATOM     15  C   UNL     1       3.880   0.127  -0.040  0.00  0.00    +0.068 A 
ATOM     16  C   UNL     1       2.589  -0.383  -0.064  0.00  0.00    +0.028 A 
ATOM     17  C   UNL     1       1.508   0.478  -0.078  0.00  0.00    +0.002 A 
ENDBRANCH   2  15
ENDBRANCH   1   5
BRANCH   1  18
ATOM     18  C   UNL     1       4.239  -6.269   3.228  0.00  0.00    +0.173 C 
BRANCH  18  19
ATOM     19  C   UNL     1       3.340  -7.143   4.064  0.00  0.00    +0.230 C 
ATOM     20  O   UNL     1       2.249  -6.738   4.408  0.00  0.00    -0.274 OA
ATOM     21  N   UNL     1       3.747  -8.374   4.431  0.00  0.00    -0.266 N 
BRANCH  21  22
ATOM     22  C   UNL     1       5.114  -8.811   4.135  0.00  0.00    +0.104 C 
ATOM     23  C   UNL     1       5.890  -8.988   5.450  0.00  0.00    +0.047 C 
ATOM     24  C   UNL     1       7.213  -9.743   5.135  0.00  0.00    +0.168 C 
ATOM     25  S   UNL     1       6.607 -10.991   3.923  0.00  0.00    -0.029 S 
ATOM     26  O   UNL     1       7.518 -11.058   2.834  0.00  0.00    -0.174 OA
ATOM     27  O   UNL     1       6.261 -12.181   4.619  0.00  0.00    -0.174 OA
ATOM     28  C   UNL     1       5.068 -10.154   3.366  0.00  0.00    +0.188 C 
ENDBRANCH  21  22
BRANCH  21  29
ATOM     29  C   UNL     1       2.866  -9.234   5.095  0.00  0.00    +0.037 A 
ATOM     30  C   UNL     1       3.327 -10.435   5.617  0.00  0.00    +0.023 A 
ATOM     31  C   UNL     1       2.454 -11.282   6.271  0.00  0.00    +0.002 A 
ATOM     32  C   UNL     1       1.122 -10.935   6.407  0.00  0.00    +0.000 A 
ATOM     33  C   UNL     1       0.660  -9.740   5.888  0.00  0.00    +0.002 A 
ATOM     34  C   UNL     1       1.529  -8.886   5.237  0.00  0.00    +0.023 A 
ENDBRANCH  21  29
ENDBRANCH  18  19
ENDBRANCH   1  18
TORSDOF 6
