REMARK  Name = ZINC59293648
REMARK  10 active torsions:
REMARK  status: ('A' for Active; 'I' for Inactive)
REMARK    1  A    between atoms: C_1  and  C_2
REMARK    2  A    between atoms: C_2  and  O_3
REMARK    3  A    between atoms: O_3  and  C_4
REMARK    4  A    between atoms: C_4  and  C_6
REMARK    5  A    between atoms: C_7  and  N_33
REMARK    6  A    between atoms: C_19  and  C_31
REMARK    7  A    between atoms: C_20  and  C_22
REMARK    8  A    between atoms: C_25  and  O_30
REMARK    9  A    between atoms: C_26  and  O_28
REMARK   10  A    between atoms: O_28  and  C_29
REMARK                            x       y       z     vdW  Elec       q    Type
REMARK                         _______ _______ _______ _____ _____    ______ ____
ROOT
ATOM      1  C   UNL     1      -2.782  -2.428   0.228  0.00  0.00    +0.085 C 
ATOM      2  C   UNL     1      -2.943  -3.743  -0.087  0.00  0.00    +0.106 C 
ATOM      3  N   UNL     1      -4.211  -4.270  -0.258  0.00  0.00    -0.216 N 
ATOM      4  C   UNL     1      -4.365  -5.372  -1.005  0.00  0.00    +0.258 C 
ATOM      5  O   UNL     1      -3.360  -5.980  -1.321  0.00  0.00    -0.269 OA
ATOM      6  C   UNL     1      -5.648  -5.901  -1.470  0.00  0.00    +0.051 A 
ATOM      7  C   UNL     1      -5.696  -6.748  -2.584  0.00  0.00    +0.014 A 
ATOM      8  C   UNL     1      -6.905  -7.231  -3.030  0.00  0.00    +0.001 A 
ATOM      9  C   UNL     1      -8.085  -6.888  -2.388  0.00  0.00    +0.001 A 
ATOM     10  C   UNL     1      -8.059  -6.059  -1.284  0.00  0.00    +0.016 A 
ATOM     11  C   UNL     1      -6.849  -5.572  -0.818  0.00  0.00    +0.026 A 
ATOM     12  S   UNL     1      -6.777  -4.539   0.612  0.00  0.00    -0.072 S 
ATOM     13  C   UNL     1      -5.282  -3.638   0.345  0.00  0.00    +0.095 C 
ATOM     14  C   UNL     1      -5.200  -2.329   0.704  0.00  0.00    +0.070 C 
ATOM     15  C   UNL     1      -3.978  -1.522   0.363  0.00  0.00    +0.102 C 
ENDROOT
BRANCH  15  16
ATOM     16  C   UNL     1      -4.208  -0.801  -0.940  0.00  0.00    -0.031 A 
ATOM     17  C   UNL     1      -4.466  -1.522  -2.091  0.00  0.00    +0.008 A 
ATOM     18  C   UNL     1      -4.678  -0.865  -3.289  0.00  0.00    +0.049 A 
ATOM     19  C   UNL     1      -4.632   0.519  -3.338  0.00  0.00    +0.158 A 
ATOM     20  C   UNL     1      -4.373   1.245  -2.179  0.00  0.00    +0.162 A 
ATOM     21  C   UNL     1      -4.166   0.580  -0.981  0.00  0.00    +0.054 A 
BRANCH  20  22
ATOM     22  O   UNL     1      -4.327   2.603  -2.222  0.00  0.00    -0.491 OA
ATOM     23  C   UNL     1      -4.056   3.282  -0.994  0.00  0.00    +0.277 C 
ENDBRANCH  20  22
BRANCH  19  24
ATOM     24  O   UNL     1      -4.840   1.167  -4.516  0.00  0.00    -0.503 OA
ATOM     25  H   UNL     1      -5.766   1.389  -4.684  0.00  0.00    +0.292 HD
ENDBRANCH  19  24
ENDBRANCH  15  16
BRANCH   2  26
ATOM     26  N   UNL     1      -1.844  -4.548  -0.237  0.00  0.00    -0.345 N 
ATOM     27  H   UNL     1      -1.880  -5.475   0.044  0.00  0.00    +0.143 HD
ATOM     28  H   UNL     1      -1.030  -4.189  -0.624  0.00  0.00    +0.143 HD
ENDBRANCH   2  26
BRANCH   1  29
ATOM     29  C   UNL     1      -1.493  -1.914   0.436  0.00  0.00    +0.339 C 
ATOM     30  O   UNL     1      -0.533  -2.663   0.441  0.00  0.00    -0.245 OA
BRANCH  29  31
ATOM     31  O   UNL     1      -1.317  -0.589   0.630  0.00  0.00    -0.462 OA
BRANCH  31  33
ATOM     32  C   UNL     1       0.022   1.381   1.035  0.00  0.00    +0.048 C 
ATOM     33  C   UNL     1       0.022  -0.136   0.835  0.00  0.00    +0.229 C 
ENDBRANCH  31  33
ENDBRANCH  29  31
ENDBRANCH   1  29
BRANCH  14  34
ATOM     34  C   UNL     1      -6.282  -1.715   1.414  0.00  0.00    +0.098 C 
ATOM     35  N   UNL     1      -7.140  -1.229   1.977  0.00  0.00    -0.191 NA
ENDBRANCH  14  34
TORSDOF 8
