REMARK  Name = ZINC51674233
REMARK  8 active torsions:
REMARK  status: ('A' for Active; 'I' for Inactive)
REMARK    1  A    between atoms: C_1  and  N_2
REMARK    2  A    between atoms: N_2  and  C_3
REMARK    3  A    between atoms: N_2  and  C_4
REMARK    4  A    between atoms: C_4  and  C_5
REMARK    5  A    between atoms: C_4  and  C_21
REMARK    6  A    between atoms: C_5  and  N_6
REMARK    7  A    between atoms: C_13  and  C_15
REMARK    8  A    between atoms: N_17  and  C_18
REMARK                            x       y       z     vdW  Elec       q    Type
REMARK                         _______ _______ _______ _____ _____    ______ ____
ROOT
ATOM      1  N   UNL     1      -0.448  -2.365   1.369  0.00  0.00    -0.301 N 
ATOM      2  C   UNL     1      -0.168  -3.649   1.667  0.00  0.00    +0.302 C 
ATOM      3  O   UNL     1      -0.579  -4.543   0.952  0.00  0.00    -0.253 OA
ATOM      4  N   UNL     1       0.567  -3.943   2.759  0.00  0.00    -0.285 N 
ATOM      5  C   UNL     1       0.974  -2.885   3.694  0.00  0.00    +0.109 C 
ATOM      6  C   UNL     1       0.536  -3.282   5.107  0.00  0.00    +0.020 C 
ATOM      7  C   UNL     1       1.096  -4.666   5.441  0.00  0.00    +0.016 C 
ATOM      8  C   UNL     1       0.538  -5.696   4.456  0.00  0.00    +0.092 C 
ATOM      9  C   UNL     1       0.971  -5.327   3.038  0.00  0.00    +0.122 C 
ATOM     10  H   UNL     1      -0.061  -1.649   1.897  0.00  0.00    +0.150 HD
ENDROOT
BRANCH   8  11
ATOM     11  C   UNL     1       1.065  -7.064   4.805  0.00  0.00    +0.218 C 
ATOM     12  O   UNL     1       1.813  -7.202   5.750  0.00  0.00    -0.275 OA
ATOM     13  N   UNL     1       0.705  -8.133   4.069  0.00  0.00    -0.312 N 
ATOM     14  H   UNL     1       0.106  -8.022   3.313  0.00  0.00    +0.149 HD
BRANCH  13  15
ATOM     15  C   UNL     1       1.217  -9.463   4.408  0.00  0.00    +0.073 C 
ATOM     16  C   UNL     1       0.227 -10.629   4.383  0.00  0.00    +0.024 C 
ATOM     17  C   UNL     1       1.286 -10.501   3.287  0.00  0.00    +0.024 C 
ENDBRANCH  13  15
ENDBRANCH   8  11
BRANCH   1  18
ATOM     18  C   UNL     1      -1.337  -2.050   0.248  0.00  0.00    +0.091 C 
BRANCH  18  19
ATOM     19  C   UNL     1      -1.346  -0.538   0.013  0.00  0.00    -0.049 C 
BRANCH  19  20
ATOM     20  C   UNL     1      -2.453  -0.184  -0.982  0.00  0.00    -0.023 C 
ATOM     21  C   UNL     1      -2.386   1.310  -1.308  0.00  0.00    +0.002 C 
ATOM     22  C   UNL     1      -3.493   1.665  -2.303  0.00  0.00    +0.000 C 
ATOM     23  C   UNL     1      -4.855   1.337  -1.688  0.00  0.00    +0.000 C 
ATOM     24  C   UNL     1      -4.922  -0.156  -1.362  0.00  0.00    +0.000 C 
ATOM     25  C   UNL     1      -3.815  -0.511  -0.367  0.00  0.00    +0.002 C 
ENDBRANCH  19  20
BRANCH  19  27
ATOM     26  C   UNL     1       1.017  -0.472   0.420  0.00  0.00    -0.096 C 
ATOM     27  N   UNL     1      -0.047  -0.120  -0.530  0.00  0.00    +0.379 N 
ATOM     28  C   UNL     1       0.193  -0.802  -1.808  0.00  0.00    -0.096 C 
ATOM     29  H   UNL     1      -0.050   0.879  -0.677  0.00  0.00    -0.082 HD
ENDBRANCH  19  27
ENDBRANCH  18  19
ENDBRANCH   1  18
TORSDOF 6
