REMARK  Name = ZINC39344555
REMARK  13 active torsions:
REMARK  status: ('A' for Active; 'I' for Inactive)
REMARK    1  A    between atoms: C_1  and  C_2
REMARK    2  A    between atoms: C_3  and  C_4
REMARK    3  A    between atoms: C_3  and  C_5
REMARK    4  A    between atoms: C_5  and  N_6
REMARK    5  A    between atoms: N_6  and  C_7
REMARK    6  A    between atoms: N_13  and  C_26
REMARK    7  A    between atoms: C_14  and  C_22
REMARK    8  A    between atoms: C_16  and  N_18
REMARK    9  A    between atoms: C_19  and  C_21
REMARK   10  A    between atoms: C_22  and  O_24
REMARK   11  A    between atoms: O_24  and  C_25
REMARK   12  A    between atoms: C_26  and  C_27
REMARK   13  A    between atoms: C_27  and  C_28
REMARK                            x       y       z     vdW  Elec       q    Type
REMARK                         _______ _______ _______ _____ _____    ______ ____
ROOT
ATOM      1  C   UNL     1      -1.589  -4.220   1.100  0.00  0.00    +0.044 A 
ATOM      2  C   UNL     1      -1.533  -4.553   2.453  0.00  0.00    +0.033 A 
ATOM      3  C   UNL     1      -1.411  -5.885   2.798  0.00  0.00    +0.015 A 
ATOM      4  C   UNL     1      -1.348  -6.857   1.809  0.00  0.00    +0.105 A 
ATOM      5  N   UNL     1      -1.405  -6.495   0.528  0.00  0.00    -0.348 N 
ATOM      6  C   UNL     1      -1.526  -5.236   0.160  0.00  0.00    +0.107 A 
ATOM      7  N   UNL     1      -1.227  -8.133   2.354  0.00  0.00    -0.301 N 
ATOM      8  C   UNL     1      -1.204  -8.059   3.817  0.00  0.00    +0.208 C 
ATOM      9  C   UNL     1      -1.326  -6.562   4.147  0.00  0.00    +0.138 C 
ATOM     10  H   UNL     1      -1.360  -7.181  -0.156  0.00  0.00    +0.167 HD
ENDROOT
BRANCH   9  11
ATOM     11  N   UNL     1      -2.540  -6.306   4.925  0.00  0.00    -0.306 N 
ATOM     12  C   UNL     1      -2.637  -5.192   5.678  0.00  0.00    +0.210 C 
ATOM     13  O   UNL     1      -1.718  -4.402   5.711  0.00  0.00    -0.276 OA
ATOM     14  C   UNL     1      -3.886  -4.930   6.478  0.00  0.00    +0.109 C 
ATOM     15  H   UNL     1      -3.275  -6.939   4.899  0.00  0.00    +0.149 HD
ENDBRANCH   9  11
BRANCH   1  16
ATOM     16  N   UNL     1      -1.712  -2.884   0.699  0.00  0.00    -0.339 N 
ATOM     17  H   UNL     1      -1.755  -2.179   1.365  0.00  0.00    +0.146 HD
BRANCH  16  18
ATOM     18  C   UNL     1      -1.776  -2.549  -0.726  0.00  0.00    +0.132 C 
BRANCH  18  21
ATOM     19  C   UNL     1      -0.968   1.170  -1.242  0.00  0.00    +0.035 C 
ATOM     20  C   UNL     1      -0.838  -0.323  -1.082  0.00  0.00    -0.030 C 
ATOM     21  C   UNL     1      -1.906  -1.056  -0.886  0.00  0.00    -0.060 C 
ATOM     22  C   UNL     1      -3.264  -0.407  -0.821  0.00  0.00    +0.040 C 
ENDBRANCH  18  21
ENDBRANCH  16  18
ENDBRANCH   1  16
BRANCH   8  23
ATOM     23  C   UNL     1       0.095  -8.609   4.348  0.00  0.00    +0.330 C 
ATOM     24  O   UNL     1       1.087  -8.586   3.659  0.00  0.00    -0.249 OA
BRANCH  23  25
ATOM     25  O   UNL     1       0.149  -9.123   5.587  0.00  0.00    -0.467 OA
ATOM     26  C   UNL     1       1.413  -9.627   6.025  0.00  0.00    +0.280 C 
ENDBRANCH  23  25
ENDBRANCH   8  23
BRANCH   7  27
ATOM     27  C   UNL     1      -1.137  -9.372   1.577  0.00  0.00    +0.112 C 
BRANCH  27  28
ATOM     28  C   UNL     1      -2.545  -9.892   1.281  0.00  0.00    +0.056 C 
BRANCH  28  29
ATOM     29  C   UNL     1      -2.452 -11.187   0.516  0.00  0.00    -0.021 A 
ATOM     30  C   UNL     1      -2.288 -12.526   1.086  0.00  0.00    +0.003 A 
ATOM     31  C   UNL     1      -2.173 -13.020   2.387  0.00  0.00    +0.010 A 
ATOM     32  C   UNL     1      -2.027 -14.363   2.592  0.00  0.00    +0.001 A 
ATOM     33  C   UNL     1      -1.991 -15.241   1.518  0.00  0.00    +0.002 A 
ATOM     34  C   UNL     1      -2.102 -14.775   0.226  0.00  0.00    +0.026 A 
ATOM     35  C   UNL     1      -2.252 -13.412  -0.006  0.00  0.00    +0.047 A 
ATOM     36  N   UNL     1      -2.386 -12.654  -1.148  0.00  0.00    -0.360 N 
ATOM     37  C   UNL     1      -2.510 -11.332  -0.817  0.00  0.00    +0.087 A 
ATOM     38  H   UNL     1      -2.396 -13.005  -2.052  0.00  0.00    +0.165 HD
ENDBRANCH  28  29
ENDBRANCH  27  28
ENDBRANCH   7  27
TORSDOF 9
