REMARK  Name = ZINC10455752
REMARK  10 active torsions:
REMARK  status: ('A' for Active; 'I' for Inactive)
REMARK    1  A    between atoms: C_1  and  C_2
REMARK    2  A    between atoms: C_8  and  N_10
REMARK    3  A    between atoms: C_14  and  C_16
REMARK    4  A    between atoms: C_16  and  O_17
REMARK    5  A    between atoms: O_17  and  C_18
REMARK    6  A    between atoms: C_18  and  C_20
REMARK    7  A    between atoms: C_22  and  S_28
REMARK    8  A    between atoms: C_25  and  O_26
REMARK    9  A    between atoms: O_26  and  C_27
REMARK   10  A    between atoms: S_28  and  N_31
REMARK                            x       y       z     vdW  Elec       q    Type
REMARK                         _______ _______ _______ _____ _____    ______ ____
ROOT
ATOM      1  O   UNL     1      -7.636   1.146  -3.190  0.00  0.00    -0.452 OA
ENDROOT
BRANCH   1   2
ATOM      2  C   UNL     1      -8.436   1.572  -4.188  0.00  0.00    +0.343 C 
ATOM      3  O   UNL     1      -7.954   1.910  -5.251  0.00  0.00    -0.245 OA
BRANCH   2   4
ATOM      4  C   UNL     1      -9.896   1.627  -3.989  0.00  0.00    +0.102 A 
ATOM      5  C   UNL     1     -10.454   1.238  -2.768  0.00  0.00    +0.047 A 
ATOM      6  C   UNL     1     -11.819   1.292  -2.590  0.00  0.00    +0.106 A 
ATOM      7  C   UNL     1     -12.642   1.730  -3.615  0.00  0.00    +0.032 A 
ATOM      8  C   UNL     1     -12.104   2.117  -4.826  0.00  0.00    +0.048 A 
ATOM      9  C   UNL     1     -10.731   2.074  -5.022  0.00  0.00    +0.134 A 
BRANCH   6  10
ATOM     10  S   UNL     1     -12.522   0.802  -1.050  0.00  0.00    +0.056 S 
ATOM     11  O   UNL     1     -13.866   0.427  -1.318  0.00  0.00    -0.153 OA
ATOM     12  O   UNL     1     -11.591  -0.083  -0.442  0.00  0.00    -0.153 OA
BRANCH  10  13
ATOM     13  N   UNL     1     -12.589   2.150  -0.091  0.00  0.00    -0.204 NA
ATOM     14  H   UNL     1     -13.287   2.236   0.577  0.00  0.00    +0.144 HD
ATOM     15  H   UNL     1     -11.930   2.855  -0.197  0.00  0.00    +0.144 HD
ENDBRANCH  10  13
ENDBRANCH   6  10
BRANCH   9  16
ATOM     16  O   UNL     1     -10.201   2.459  -6.210  0.00  0.00    -0.494 OA
ATOM     17  C   UNL     1     -11.114   2.903  -7.215  0.00  0.00    +0.277 C 
ENDBRANCH   9  16
ENDBRANCH   2   4
ENDBRANCH   1   2
BRANCH   1  18
ATOM     18  C   UNL     1      -6.209   1.118  -3.456  0.00  0.00    +0.328 C 
BRANCH  18  23
ATOM     19  N   UNL     1      -2.142  -0.048  -1.174  0.00  0.00    -0.296 N 
ATOM     20  C   UNL     1      -3.485   0.062  -1.159  0.00  0.00    +0.306 C 
ATOM     21  O   UNL     1      -4.108  -0.241  -0.160  0.00  0.00    -0.252 OA
ATOM     22  N   UNL     1      -4.137   0.509  -2.251  0.00  0.00    -0.237 N 
ATOM     23  C   UNL     1      -5.480   0.619  -2.236  0.00  0.00    +0.258 C 
ATOM     24  O   UNL     1      -6.102   0.317  -1.240  0.00  0.00    -0.272 OA
ATOM     25  H   UNL     1      -1.644   0.194  -1.971  0.00  0.00    +0.151 HD
ATOM     26  H   UNL     1      -3.639   0.750  -3.047  0.00  0.00    +0.159 HD
BRANCH  19  33
ATOM     27  C   UNL     1      -0.019   1.526   0.010  0.00  0.00    +0.009 C 
ATOM     28  C   UNL     1       0.002  -0.004   0.002  0.00  0.00    +0.006 C 
ATOM     29  C   UNL     1       0.742  -0.511   1.242  0.00  0.00    +0.005 C 
ATOM     30  C   UNL     1       0.763  -2.041   1.233  0.00  0.00    +0.000 C 
ATOM     31  C   UNL     1      -0.673  -2.570   1.244  0.00  0.00    +0.002 C 
ATOM     32  C   UNL     1      -1.413  -2.063   0.004  0.00  0.00    +0.022 C 
ATOM     33  C   UNL     1      -1.433  -0.534   0.013  0.00  0.00    +0.077 C 
ENDBRANCH  19  33
ENDBRANCH  18  23
ENDBRANCH   1  18
TORSDOF 8
