REMARK  Name = ZINC39582276
REMARK  9 active torsions:
REMARK  status: ('A' for Active; 'I' for Inactive)
REMARK    1  A    between atoms: C_1  and  C_2
REMARK    2  A    between atoms: C_7  and  C_30
REMARK    3  A    between atoms: C_9  and  N_12
REMARK    4  A    between atoms: C_13  and  C_15
REMARK    5  A    between atoms: C_15  and  C_17
REMARK    6  A    between atoms: C_15  and  N_18
REMARK    7  A    between atoms: N_21  and  C_24
REMARK    8  A    between atoms: C_30  and  O_32
REMARK    9  A    between atoms: O_32  and  C_33
REMARK                            x       y       z     vdW  Elec       q    Type
REMARK                         _______ _______ _______ _____ _____    ______ ____
ROOT
ATOM      1  N   UNL     1       0.027  -2.834   4.164  0.00  0.00    -0.288 N 
ATOM      2  C   UNL     1      -0.300  -1.630   4.674  0.00  0.00    +0.203 C 
ATOM      3  O   UNL     1      -0.721  -0.758   3.945  0.00  0.00    -0.277 OA
ATOM      4  H   UNL     1       0.280  -3.559   4.757  0.00  0.00    +0.155 HD
ENDROOT
BRANCH   1  12
ATOM      5  C   UNL     1       0.724  -7.970   2.188  0.00  0.00    +0.044 C 
ATOM      6  C   UNL     1       0.493  -6.564   1.696  0.00  0.00    -0.050 A 
ATOM      7  C   UNL     1       0.404  -6.330   0.321  0.00  0.00    +0.005 A 
ATOM      8  C   UNL     1       0.197  -5.089  -0.182  0.00  0.00    +0.026 A 
ATOM      9  C   UNL     1       0.064  -3.983   0.698  0.00  0.00    +0.045 A 
ATOM     10  N   UNL     1      -0.138  -2.703   0.465  0.00  0.00    -0.367 N 
ATOM     11  C   UNL     1      -0.196  -1.986   1.743  0.00  0.00    +0.234 C 
ATOM     12  C   UNL     1       0.004  -3.033   2.817  0.00  0.00    +0.053 C 
ATOM     13  C   UNL     1       0.159  -4.234   2.147  0.00  0.00    +0.018 A 
ATOM     14  C   UNL     1       0.371  -5.559   2.597  0.00  0.00    +0.015 A 
ATOM     15  H   UNL     1      -0.233  -2.298  -0.412  0.00  0.00    +0.161 HD
BRANCH  11  16
ATOM     16  C   UNL     1       0.901  -0.955   1.810  0.00  0.00    +0.335 C 
ATOM     17  O   UNL     1       1.914  -1.108   1.170  0.00  0.00    -0.248 OA
BRANCH  16  18
ATOM     18  O   UNL     1       0.753   0.133   2.582  0.00  0.00    -0.466 OA
ATOM     19  C   UNL     1       1.833   1.069   2.598  0.00  0.00    +0.280 C 
ENDBRANCH  16  18
ENDBRANCH  11  16
ENDBRANCH   1  12
BRANCH   2  20
ATOM     20  C   UNL     1      -0.145  -1.369   6.150  0.00  0.00    +0.017 C 
ATOM     21  C   UNL     1      -1.112  -2.261   6.931  0.00  0.00    -0.004 C 
BRANCH  20  22
ATOM     22  N   UNL     1      -0.444   0.041   6.432  0.00  0.00    +0.389 N 
ATOM     23  C   UNL     1      -0.140   0.332   7.839  0.00  0.00    -0.059 C 
ATOM     24  C   UNL     1      -0.342   1.828   8.105  0.00  0.00    +0.086 C 
ATOM     25  N   UNL     1      -1.704   2.195   7.689  0.00  0.00    -0.333 N 
ATOM     26  C   UNL     1      -2.151   1.796   6.346  0.00  0.00    +0.086 C 
ATOM     27  C   UNL     1      -1.863   0.302   6.163  0.00  0.00    -0.059 C 
ATOM     28  H   UNL     1       0.123   0.629   5.839  0.00  0.00    -0.081 HD
BRANCH  25  29
ATOM     29  C   UNL     1      -2.550   2.904   8.546  0.00  0.00    +0.030 A 
ATOM     30  C   UNL     1      -2.071   3.378   9.761  0.00  0.00    +0.023 A 
ATOM     31  C   UNL     1      -2.910   4.079  10.605  0.00  0.00    +0.002 A 
ATOM     32  C   UNL     1      -4.225   4.308  10.243  0.00  0.00    +0.000 A 
ATOM     33  C   UNL     1      -4.704   3.838   9.034  0.00  0.00    +0.002 A 
ATOM     34  C   UNL     1      -3.869   3.141   8.183  0.00  0.00    +0.023 A 
ENDBRANCH  25  29
ENDBRANCH  20  22
ENDBRANCH   2  20
TORSDOF 6
