REMARK  Name = ZINC05345614
REMARK  8 active torsions:
REMARK  status: ('A' for Active; 'I' for Inactive)
REMARK    1  A    between atoms: C_1  and  C_2
REMARK    2  A    between atoms: C_2  and  C_3
REMARK    3  A    between atoms: C_3  and  C_5
REMARK    4  A    between atoms: C_3  and  N_6
REMARK    5  A    between atoms: C_20  and  C_25
REMARK    6  A    between atoms: C_26  and  C_28
REMARK    7  A    between atoms: C_28  and  C_29
REMARK    8  A    between atoms: C_28  and  C_30
REMARK                            x       y       z     vdW  Elec       q    Type
REMARK                         _______ _______ _______ _____ _____    ______ ____
ROOT
ATOM      1  N   UNL     1       1.067   1.996   0.003  0.00  0.00    -0.239 N 
ATOM      2  C   UNL     1      -0.014   1.208   0.009  0.00  0.00    +0.224 C 
ATOM      3  O   UNL     1       0.002  -0.004   0.002  0.00  0.00    -0.275 OA
ATOM      4  C   UNL     1      -1.260   2.065   0.019  0.00  0.00    +0.073 C 
ATOM      5  C   UNL     1      -0.698   3.514   0.036  0.00  0.00    +0.088 C 
ATOM      6  C   UNL     1       0.799   3.307   0.016  0.00  0.00    +0.225 C 
ATOM      7  O   UNL     1       1.629   4.191   0.012  0.00  0.00    -0.275 OA
ATOM      8  C   UNL     1      -1.155   4.133  -1.290  0.00  0.00    +0.050 C 
ATOM      9  C   UNL     1      -0.059   4.108  -2.317  0.00  0.00    -0.027 A 
ATOM     10  C   UNL     1       0.679   3.098  -2.893  0.00  0.00    +0.004 A 
ATOM     11  C   UNL     1       1.645   3.397  -3.836  0.00  0.00    +0.001 A 
ATOM     12  C   UNL     1       1.870   4.713  -4.199  0.00  0.00    +0.005 A 
ATOM     13  C   UNL     1       1.134   5.729  -3.624  0.00  0.00    -0.029 A 
ATOM     14  C   UNL     1       0.159   5.436  -2.673  0.00  0.00    +0.039 A 
ATOM     15  N   UNL     1      -0.701   6.275  -1.960  0.00  0.00    -0.286 N 
ATOM     16  C   UNL     1      -1.504   5.587  -1.126  0.00  0.00    +0.211 C 
ATOM     17  O   UNL     1      -2.346   6.051  -0.386  0.00  0.00    -0.277 OA
ATOM     18  C   UNL     1       1.386   7.159  -4.026  0.00  0.00    +0.045 C 
ATOM     19  C   UNL     1      -1.976   1.932  -1.343  0.00  0.00    -0.055 C 
ATOM     20  H   UNL     1      -0.718   7.240  -2.056  0.00  0.00    +0.155 HD
ATOM     21  N   UNL     1      -2.290   3.315  -1.716  0.00  0.00    +0.394 N 
ATOM     22  H   UNL     1      -2.416   3.388  -2.732  0.00  0.00    -0.083 HD
ATOM     23  H   UNL     1      -3.146   3.624  -1.241  0.00  0.00    -0.083 HD
ENDROOT
BRANCH  19  24
ATOM     24  C   UNL     1      -3.248   1.094  -1.196  0.00  0.00    -0.031 C 
ATOM     25  C   UNL     1      -3.940   0.976  -2.555  0.00  0.00    +0.005 C 
ATOM     26  C   UNL     1      -2.882  -0.302  -0.687  0.00  0.00    +0.005 C 
ENDBRANCH  19  24
BRANCH   1  27
ATOM     27  C   UNL     1       2.433   1.466  -0.017  0.00  0.00    +0.081 C 
ATOM     28  C   UNL     1       2.634   0.620  -1.275  0.00  0.00    +0.028 C 
BRANCH  27  30
ATOM     29  C   UNL     1       2.584   1.472   2.477  0.00  0.00    +0.006 C 
ATOM     30  C   UNL     1       2.661   0.599   1.223  0.00  0.00    +0.019 C 
ENDBRANCH  27  30
ENDBRANCH   1  27
TORSDOF 3
