REMARK  Name = ZINC13501218
REMARK  10 active torsions:
REMARK  status: ('A' for Active; 'I' for Inactive)
REMARK    1  A    between atoms: C_1  and  C_2
REMARK    2  A    between atoms: C_2  and  C_3
REMARK    3  A    between atoms: C_3  and  C_5
REMARK    4  A    between atoms: C_3  and  N_72
REMARK    5  A    between atoms: N_9  and  C_10
REMARK    6  A    between atoms: C_10  and  C_11
REMARK    7  A    between atoms: C_11  and  C_12
REMARK    8  A    between atoms: C_18  and  C_19
REMARK    9  A    between atoms: C_18  and  N_72
REMARK   10  A    between atoms: C_34  and  N_72
REMARK                            x       y       z     vdW  Elec       q    Type
REMARK                         _______ _______ _______ _____ _____    ______ ____
ROOT
ATOM      1  N   UNL     1       3.575   1.935   0.754  0.00  0.00    +0.391 N 
ATOM      2  H   UNL     1       3.125   2.850   0.637  0.00  0.00    -0.080 HD
ENDROOT
BRANCH   1   3
ATOM      3  C   UNL     1       2.807   1.145   1.739  0.00  0.00    -0.067 C 
ATOM      4  C   UNL     1       1.675   0.403   1.025  0.00  0.00    -0.015 C 
ATOM      5  C   UNL     1       0.862  -0.393   2.047  0.00  0.00    -0.002 C 
ATOM      6  C   UNL     1       0.270   0.564   3.084  0.00  0.00    -0.000 C 
ATOM      7  C   UNL     1       1.401   1.306   3.799  0.00  0.00    -0.002 C 
ATOM      8  C   UNL     1       2.215   2.102   2.776  0.00  0.00    -0.015 C 
ENDBRANCH   1   3
BRANCH   1   9
ATOM      9  C   UNL     1       3.592   1.238  -0.549  0.00  0.00    +0.003 C 
BRANCH   9  10
ATOM     10  C   UNL     1       3.849   2.252  -1.634  0.00  0.00    +0.138 A 
ATOM     11  N   UNL     1       4.727   3.224  -1.605  0.00  0.00    -0.115 NA
ATOM     12  N   UNL     1       4.642   3.871  -2.716  0.00  0.00    -0.023 NA
ATOM     13  N   UNL     1       3.732   3.337  -3.453  0.00  0.00    -0.044 NA
ATOM     14  N   UNL     1       3.219   2.336  -2.821  0.00  0.00    -0.231 N 
BRANCH  14  15
ATOM     15  C   UNL     1       2.152   1.455  -3.305  0.00  0.00    +0.152 C 
BRANCH  15  16
ATOM     16  C   UNL     1       2.768   0.274  -4.057  0.00  0.00    +0.058 C 
BRANCH  16  17
ATOM     17  C   UNL     1       1.670  -0.631  -4.554  0.00  0.00    -0.046 A 
ATOM     18  C   UNL     1       1.223  -1.673  -3.764  0.00  0.00    +0.004 A 
ATOM     19  C   UNL     1       0.212  -2.501  -4.218  0.00  0.00    +0.000 A 
ATOM     20  C   UNL     1      -0.343  -2.292  -5.467  0.00  0.00    +0.000 A 
ATOM     21  C   UNL     1       0.109  -1.254  -6.259  0.00  0.00    +0.000 A 
ATOM     22  C   UNL     1       1.115  -0.423  -5.803  0.00  0.00    +0.004 A 
ENDBRANCH  16  17
ENDBRANCH  15  16
ENDBRANCH  14  15
ENDBRANCH   9  10
BRANCH   9  24
ATOM     23  C   UNL     1       4.366  -0.921   0.442  0.00  0.00    +0.002 C 
ATOM     24  C   UNL     1       4.693   0.176  -0.574  0.00  0.00    -0.011 C 
ENDBRANCH   9  24
ENDBRANCH   1   9
BRANCH   1  25
ATOM     25  C   UNL     1       4.957   2.137   1.236  0.00  0.00    -0.036 C 
BRANCH  25  26
ATOM     26  C   UNL     1       4.940   3.168   2.336  0.00  0.00    +0.001 A 
ATOM     27  C   UNL     1       5.026   2.775   3.632  0.00  0.00    +0.017 A 
ATOM     28  C   UNL     1       5.012   3.799   4.676  0.00  0.00    +0.002 A 
ATOM     29  C   UNL     1       5.102   3.452   6.030  0.00  0.00    +0.059 A 
ATOM     30  C   UNL     1       5.084   4.439   6.990  0.00  0.00    +0.167 A 
ATOM     31  C   UNL     1       4.975   5.785   6.617  0.00  0.00    +0.168 A 
ATOM     32  C   UNL     1       4.884   6.136   5.283  0.00  0.00    +0.075 A 
ATOM     33  C   UNL     1       4.901   5.153   4.302  0.00  0.00    +0.053 A 
ATOM     34  N   UNL     1       4.811   5.485   2.966  0.00  0.00    -0.322 N 
ATOM     35  H   UNL     1       4.734   6.417   2.709  0.00  0.00    +0.169 HD
ATOM     36  C   UNL     1       4.829   4.535   2.014  0.00  0.00    +0.251 A 
ATOM     37  O   UNL     1       4.747   4.866   0.843  0.00  0.00    -0.268 OA
ATOM     38  O   UNL     1       4.981   6.549   7.748  0.00  0.00    -0.453 OA
ATOM     39  C   UNL     1       5.506   5.699   8.785  0.00  0.00    +0.466 C 
ATOM     40  O   UNL     1       5.156   4.371   8.352  0.00  0.00    -0.453 OA
ENDBRANCH  25  26
ENDBRANCH   1  25
TORSDOF 9
