REMARK  Name = ZINC59166094
REMARK  7 active torsions:
REMARK  status: ('A' for Active; 'I' for Inactive)
REMARK    1  A    between atoms: C_3  and  O_13
REMARK    2  A    between atoms: C_6  and  C_7
REMARK    3  A    between atoms: O_13  and  C_14
REMARK    4  A    between atoms: C_14  and  C_15
REMARK    5  A    between atoms: N_17  and  N_18
REMARK    6  A    between atoms: C_19  and  C_20
REMARK    7  A    between atoms: C_25  and  O_26
REMARK                            x       y       z     vdW  Elec       q    Type
REMARK                         _______ _______ _______ _____ _____    ______ ____
ROOT
ATOM      1  C   UNL     1       5.940   2.274  -0.043  0.00  0.00    +0.270 C 
ATOM      2  O   UNL     1       5.766   3.474  -0.036  0.00  0.00    -0.270 OA
ATOM      3  N   UNL     1       7.192   1.774  -0.058  0.00  0.00    -0.204 N 
ATOM      4  H   UNL     1       7.331   0.814  -0.064  0.00  0.00    +0.177 HD
ENDROOT
BRANCH   3   5
ATOM      5  N   UNL     1       8.292   2.642  -0.064  0.00  0.00    -0.188 NA
ATOM      6  C   UNL     1       9.497   2.161  -0.078  0.00  0.00    +0.142 C 
BRANCH   6   7
ATOM      7  C   UNL     1      10.655   3.073  -0.085  0.00  0.00    +0.037 A 
ATOM      8  C   UNL     1      11.954   2.560  -0.106  0.00  0.00    +0.028 A 
ATOM      9  C   UNL     1      13.033   3.420  -0.113  0.00  0.00    +0.019 A 
ATOM     10  C   UNL     1      12.833   4.790  -0.098  0.00  0.00    +0.019 A 
ATOM     11  C   UNL     1      11.553   5.310  -0.077  0.00  0.00    +0.047 A 
ATOM     12  C   UNL     1      10.458   4.461  -0.076  0.00  0.00    +0.126 A 
ATOM     13 BR   UNL     1      14.791   2.724  -0.141  0.00  0.00    -0.050 Br
BRANCH  12  14
ATOM     14  O   UNL     1       9.199   4.971  -0.061  0.00  0.00    -0.506 OA
ATOM     15  H   UNL     1       8.844   5.114   0.827  0.00  0.00    +0.292 HD
ENDBRANCH  12  14
ENDBRANCH   6   7
ENDBRANCH   3   5
BRANCH   1  16
ATOM     16  C   UNL     1       4.756   1.341  -0.036  0.00  0.00    +0.326 C 
BRANCH  16  17
ATOM     17  O   UNL     1       3.548   2.104  -0.021  0.00  0.00    -0.483 OA
BRANCH  17  20
ATOM     18  C   UNL     1      -0.017   1.378   0.010  0.00  0.00    +0.007 A 
ATOM     19  C   UNL     1       1.169   2.087   0.002  0.00  0.00    +0.046 A 
ATOM     20  C   UNL     1       2.380   1.409  -0.013  0.00  0.00    +0.121 A 
ATOM     21  C   UNL     1       2.396   0.022  -0.021  0.00  0.00    +0.046 A 
ATOM     22  C   UNL     1       1.207  -0.681  -0.013  0.00  0.00    +0.007 A 
ATOM     23  C   UNL     1       0.002  -0.004   0.002  0.00  0.00    -0.044 A 
BRANCH  23  24
ATOM     24  C   UNL     1      -1.293  -0.774   0.011  0.00  0.00    +0.019 C 
ATOM     25  C   UNL     1      -1.351  -1.661   1.256  0.00  0.00    +0.008 C 
ATOM     26  C   UNL     1      -2.666  -2.443   1.265  0.00  0.00    +0.001 C 
ATOM     27  C   UNL     1      -2.748  -3.317   0.011  0.00  0.00    +0.000 C 
ATOM     28  C   UNL     1      -2.691  -2.429  -1.234  0.00  0.00    +0.001 C 
ATOM     29  C   UNL     1      -1.376  -1.648  -1.242  0.00  0.00    +0.008 C 
ENDBRANCH  23  24
ENDBRANCH  17  20
ENDBRANCH  16  17
ENDBRANCH   1  16
TORSDOF 7
