REMARK  Name = ZINC39531457
REMARK  12 active torsions:
REMARK  status: ('A' for Active; 'I' for Inactive)
REMARK    1  A    between atoms: C_1  and  C_2
REMARK    2  A    between atoms: C_2  and  C_3
REMARK    3  A    between atoms: C_2  and  S_4
REMARK    4  A    between atoms: S_4  and  C_7
REMARK    5  A    between atoms: N_10  and  C_14
REMARK    6  A    between atoms: C_14  and  C_16
REMARK    7  A    between atoms: C_14  and  C_25
REMARK    8  A    between atoms: C_16  and  N_17
REMARK    9  A    between atoms: N_17  and  C_18
REMARK   10  A    between atoms: C_23  and  O_24
REMARK   11  A    between atoms: C_28  and  C_31
REMARK   12  A    between atoms: C_31  and  C_32
REMARK                            x       y       z     vdW  Elec       q    Type
REMARK                         _______ _______ _______ _____ _____    ______ ____
ROOT
ATOM      1  C   UNL     1       5.555  -0.022  -3.526  0.00  0.00    +0.104 C 
ENDROOT
BRANCH   1   4
ATOM      2  C   UNL     1       3.148   0.114  -0.632  0.00  0.00    +0.212 C 
ATOM      3  C   UNL     1       3.727  -0.348  -1.971  0.00  0.00    +0.127 C 
ATOM      4  N   UNL     1       5.003   0.339  -2.213  0.00  0.00    -0.290 NA
ATOM      5  C   UNL     1       5.965   0.050  -1.141  0.00  0.00    +0.100 C 
ATOM      6  C   UNL     1       5.386   0.513   0.199  0.00  0.00    +0.098 C 
ATOM      7  N   UNL     1       4.110  -0.174   0.441  0.00  0.00    -0.293 NA
ATOM      8  H   UNL     1       3.731   0.074   1.343  0.00  0.00    +0.124 HD
BRANCH   2   9
ATOM      9  S   UNL     1       1.596  -0.768  -0.307  0.00  0.00    -0.012 S 
ATOM     10  O   UNL     1       1.890  -2.148  -0.139  0.00  0.00    -0.173 OA
ATOM     11  O   UNL     1       0.644  -0.378  -1.287  0.00  0.00    -0.173 OA
BRANCH   9  13
ATOM     12  C   UNL     1       0.884   1.420   1.172  0.00  0.00    +0.031 C 
ATOM     13  C   UNL     1       1.079  -0.092   1.295  0.00  0.00    +0.126 C 
ATOM     14  C   UNL     1      -0.238  -0.743   1.722  0.00  0.00    +0.031 C 
ENDBRANCH   9  13
ENDBRANCH   2   9
ENDBRANCH   1   4
BRANCH   1  15
ATOM     15  C   UNL     1       5.864  -1.496  -3.553  0.00  0.00    -0.029 A 
ATOM     16  C   UNL     1       5.085  -2.353  -4.308  0.00  0.00    +0.005 A 
ATOM     17  C   UNL     1       5.369  -3.705  -4.332  0.00  0.00    +0.004 A 
ATOM     18  C   UNL     1       6.433  -4.201  -3.602  0.00  0.00    -0.043 A 
ATOM     19  C   UNL     1       7.213  -3.345  -2.848  0.00  0.00    +0.004 A 
ATOM     20  C   UNL     1       6.931  -1.992  -2.827  0.00  0.00    +0.005 A 
BRANCH  18  21
ATOM     21  C   UNL     1       6.742  -5.676  -3.628  0.00  0.00    +0.070 C 
BRANCH  21  22
ATOM     22  C   UNL     1       7.703  -5.968  -4.751  0.00  0.00    -0.043 A 
ATOM     23  C   UNL     1       7.222  -6.277  -6.010  0.00  0.00    +0.004 A 
ATOM     24  C   UNL     1       8.104  -6.545  -7.040  0.00  0.00    +0.000 A 
ATOM     25  C   UNL     1       9.466  -6.504  -6.813  0.00  0.00    +0.000 A 
ATOM     26  C   UNL     1       9.948  -6.194  -5.554  0.00  0.00    +0.000 A 
ATOM     27  C   UNL     1       9.066  -5.922  -4.525  0.00  0.00    +0.004 A 
ENDBRANCH  21  22
ENDBRANCH  18  21
ENDBRANCH   1  15
BRANCH   1  28
ATOM     28  C   UNL     1       6.838   0.774  -3.776  0.00  0.00    +0.125 C 
BRANCH  28  29
ATOM     29  N   UNL     1       6.561   2.205  -3.632  0.00  0.00    -0.339 N 
ATOM     30  H   UNL     1       5.666   2.506  -3.410  0.00  0.00    +0.146 HD
BRANCH  29  31
ATOM     31  C   UNL     1       7.587   3.138  -3.816  0.00  0.00    +0.069 A 
ATOM     32  C   UNL     1       8.867   2.710  -4.140  0.00  0.00    +0.026 A 
ATOM     33  C   UNL     1       9.879   3.634  -4.322  0.00  0.00    +0.002 A 
ATOM     34  C   UNL     1       9.620   4.985  -4.181  0.00  0.00    +0.004 A 
ATOM     35  C   UNL     1       8.347   5.419  -3.858  0.00  0.00    +0.047 A 
ATOM     36  C   UNL     1       7.326   4.500  -3.680  0.00  0.00    +0.138 A 
BRANCH  36  37
ATOM     37  O   UNL     1       6.073   4.926  -3.367  0.00  0.00    -0.505 OA
ATOM     38  H   UNL     1       5.908   5.001  -2.417  0.00  0.00    +0.292 HD
ENDBRANCH  36  37
ENDBRANCH  29  31
ENDBRANCH  28  29
ENDBRANCH   1  28
TORSDOF 10
