REMARK  Name = ZINC12002231
REMARK  6 active torsions:
REMARK  status: ('A' for Active; 'I' for Inactive)
REMARK    1  A    between atoms: C_3  and  N_8
REMARK    2  A    between atoms: C_21  and  C_22
REMARK    3  A    between atoms: C_21  and  N_53
REMARK    4  A    between atoms: C_22  and  C_23
REMARK    5  A    between atoms: C_26  and  S_29
REMARK    6  A    between atoms: S_29  and  N_32
REMARK                            x       y       z     vdW  Elec       q    Type
REMARK                         _______ _______ _______ _____ _____    ______ ____
ROOT
ATOM      1  N   UNL     1       6.851   5.631  -1.842  0.00  0.00    -0.270 N 
ATOM      2  C   UNL     1       5.885   5.821  -2.908  0.00  0.00    +0.090 C 
ATOM      3  C   UNL     1       6.478   5.760  -4.323  0.00  0.00    +0.187 C 
ATOM      4  S   UNL     1       5.026   5.210  -5.319  0.00  0.00    -0.031 S 
ATOM      5  O   UNL     1       5.324   3.958  -5.920  0.00  0.00    -0.174 OA
ATOM      6  O   UNL     1       4.586   6.290  -6.132  0.00  0.00    -0.174 OA
ATOM      7  C   UNL     1       3.805   4.949  -3.956  0.00  0.00    +0.152 C 
ATOM      8  C   UNL     1       4.775   4.765  -2.767  0.00  0.00    -0.024 C 
ATOM      9  C   UNL     1       5.082   4.575  -0.404  0.00  0.00    +0.020 C 
ATOM     10  C   UNL     1       6.462   5.101  -0.669  0.00  0.00    +0.203 C 
ATOM     11  O   UNL     1       7.275   5.043   0.229  0.00  0.00    -0.277 OA
ATOM     12  N   UNL     1       4.140   4.974  -1.466  0.00  0.00    +0.390 N 
ATOM     13  H   UNL     1       3.909   5.968  -1.358  0.00  0.00    -0.081 HD
ENDROOT
BRANCH   1  16
ATOM     14  C   UNL     1       9.846   7.703  -2.357  0.00  0.00    +0.003 A 
ATOM     15  C   UNL     1       8.526   7.341  -2.167  0.00  0.00    +0.023 A 
ATOM     16  C   UNL     1       8.187   6.001  -2.034  0.00  0.00    +0.038 A 
ATOM     17  C   UNL     1       9.178   5.028  -2.086  0.00  0.00    +0.043 A 
ATOM     18  C   UNL     1      10.495   5.396  -2.281  0.00  0.00    +0.043 A 
ATOM     19  C   UNL     1      10.829   6.733  -2.414  0.00  0.00    +0.020 A 
ATOM     20 CL   UNL     1      11.733   4.182  -2.353  0.00  0.00    -0.083 Cl
ENDBRANCH   1  16
BRANCH  12  21
ATOM     21  C   UNL     1       2.895   4.177  -1.371  0.00  0.00    -0.073 C 
BRANCH  21  22
ATOM     22  C   UNL     1       2.389   4.200   0.072  0.00  0.00    +0.016 C 
BRANCH  22  23
ATOM     23  C   UNL     1       1.115   3.401   0.171  0.00  0.00    -0.049 A 
ATOM     24  C   UNL     1       1.167   2.049   0.455  0.00  0.00    +0.005 A 
ATOM     25  C   UNL     1      -0.002   1.316   0.546  0.00  0.00    +0.029 A 
ATOM     26  C   UNL     1      -1.222   1.934   0.347  0.00  0.00    +0.105 A 
ATOM     27  C   UNL     1      -1.275   3.287   0.068  0.00  0.00    +0.029 A 
ATOM     28  C   UNL     1      -0.106   4.020  -0.023  0.00  0.00    +0.005 A 
BRANCH  26  29
ATOM     29  S   UNL     1      -2.711   0.998   0.456  0.00  0.00    +0.056 S 
ATOM     30  O   UNL     1      -3.686   1.695  -0.308  0.00  0.00    -0.153 OA
ATOM     31  O   UNL     1      -2.362  -0.354   0.194  0.00  0.00    -0.153 OA
BRANCH  29  32
ATOM     32  N   UNL     1      -3.214   1.060   2.033  0.00  0.00    -0.204 NA
ATOM     33  H   UNL     1      -4.160   1.011   2.243  0.00  0.00    +0.144 HD
ATOM     34  H   UNL     1      -2.563   1.145   2.747  0.00  0.00    +0.144 HD
ENDBRANCH  29  32
ENDBRANCH  26  29
ENDBRANCH  22  23
ENDBRANCH  21  22
ENDBRANCH  12  21
TORSDOF 6
