REMARK  Name = ZINC39243119
REMARK  7 active torsions:
REMARK  status: ('A' for Active; 'I' for Inactive)
REMARK    1  A    between atoms: C_1  and  C_2
REMARK    2  A    between atoms: C_8  and  C_11
REMARK    3  A    between atoms: C_11  and  C_12
REMARK    4  A    between atoms: C_12  and  N_13
REMARK    5  A    between atoms: C_14  and  C_16
REMARK    6  A    between atoms: C_21  and  C_30
REMARK    7  A    between atoms: C_23  and  C_26
REMARK                            x       y       z     vdW  Elec       q    Type
REMARK                         _______ _______ _______ _____ _____    ______ ____
ROOT
ATOM      1  C   UNL     1       4.623  -0.116  -7.496  0.00  0.00    +0.185 C 
ATOM      2  C   UNL     1       5.633   0.173  -6.410  0.00  0.00    +0.047 C 
ATOM      3  C   UNL     1       6.406  -0.929  -6.293  0.00  0.00    +0.138 C 
ATOM      4  N   UNL     1       7.447  -1.148  -5.453  0.00  0.00    -0.228 NA
ATOM      5  C   UNL     1       8.104  -2.293  -5.466  0.00  0.00    +0.110 C 
ATOM      6  C   UNL     1       7.701  -3.344  -6.403  0.00  0.00    +0.061 C 
ATOM      7  C   UNL     1       6.666  -3.117  -7.233  0.00  0.00    +0.133 C 
ATOM      8  N   UNL     1       6.006  -1.909  -7.189  0.00  0.00    -0.213 N 
ATOM      9  N   UNL     1       4.940  -1.484  -7.943  0.00  0.00    -0.218 NA
ATOM     10  H   UNL     1       4.146  -2.095  -7.826  0.00  0.00    +0.146 HD
ENDROOT
BRANCH   5  11
ATOM     11  C   UNL     1       9.232  -2.512  -4.547  0.00  0.00    +0.153 A 
ATOM     12  C   UNL     1       9.700  -1.620  -3.628  0.00  0.00    +0.051 A 
ATOM     13  C   UNL     1      10.779  -2.241  -2.974  0.00  0.00    +0.042 A 
ATOM     14  C   UNL     1      10.918  -3.469  -3.518  0.00  0.00    +0.196 A 
ATOM     15  O   UNL     1       9.979  -3.631  -4.462  0.00  0.00    -0.461 OA
ENDBRANCH   5  11
BRANCH   1  17
ATOM     16  N   UNL     1       2.745   1.103  -6.445  0.00  0.00    -0.313 N 
ATOM     17  C   UNL     1       3.223  -0.055  -6.942  0.00  0.00    +0.236 C 
ATOM     18  O   UNL     1       2.526  -1.048  -6.944  0.00  0.00    -0.274 OA
ATOM     19  H   UNL     1       3.302   1.897  -6.444  0.00  0.00    +0.149 HD
BRANCH  16  20
ATOM     20  C   UNL     1       1.384   1.162  -5.906  0.00  0.00    +0.109 C 
BRANCH  20  21
ATOM     21  C   UNL     1       1.093   2.580  -5.410  0.00  0.00    +0.056 C 
BRANCH  21  29
ATOM     22  C   UNL     1      -0.013   1.086   0.008  0.00  0.00    +0.044 C 
ATOM     23  C   UNL     1      -0.742   1.585  -1.213  0.00  0.00    -0.050 A 
ATOM     24  C   UNL     1      -2.112   1.796  -1.158  0.00  0.00    +0.005 A 
ATOM     25  C   UNL     1      -2.798   2.251  -2.263  0.00  0.00    +0.026 A 
ATOM     26  C   UNL     1      -2.112   2.504  -3.446  0.00  0.00    +0.047 A 
ATOM     27  N   UNL     1      -2.498   2.952  -4.689  0.00  0.00    -0.360 N 
ATOM     28  C   UNL     1      -1.411   3.028  -5.516  0.00  0.00    +0.087 A 
ATOM     29  C   UNL     1      -0.307   2.641  -4.856  0.00  0.00    -0.021 A 
ATOM     30  C   UNL     1      -0.722   2.289  -3.496  0.00  0.00    +0.003 A 
ATOM     31  C   UNL     1      -0.047   1.832  -2.363  0.00  0.00    +0.013 A 
ATOM     32  H   UNL     1      -3.407   3.180  -4.942  0.00  0.00    +0.165 HD
ENDBRANCH  21  29
ENDBRANCH  20  21
ENDBRANCH  16  20
ENDBRANCH   1  17
BRANCH   7  33
ATOM     33  C   UNL     1       6.231  -4.181  -8.207  0.00  0.00    +0.432 C 
ATOM     34  F   UNL     1       7.048  -5.307  -8.063  0.00  0.00    -0.165 F 
ATOM     35  F   UNL     1       4.901  -4.533  -7.950  0.00  0.00    -0.165 F 
ATOM     36  F   UNL     1       6.339  -3.690  -9.513  0.00  0.00    -0.165 F 
ENDBRANCH   7  33
TORSDOF 6
