REMARK  Name = ZINC16675917
REMARK  1 active torsions:
REMARK  status: ('A' for Active; 'I' for Inactive)
REMARK    1  A    between atoms: C_4  and  C_7
REMARK                            x       y       z     vdW  Elec       q    Type
REMARK                         _______ _______ _______ _____ _____    ______ ____
ROOT
ATOM      1  C   UNL     1       1.173   0.475  -4.590  0.00  0.00    +0.157 A 
ATOM      2  C   UNL     1       1.899   1.221  -3.620  0.00  0.00    +0.279 A 
ATOM      3  O   UNL     1       3.063   1.530  -3.808  0.00  0.00    -0.265 OA
ATOM      4  N   UNL     1       1.258   1.578  -2.483  0.00  0.00    -0.292 N 
ATOM      5  H   UNL     1       1.716   2.087  -1.796  0.00  0.00    +0.172 HD
ATOM      6  C   UNL     1      -0.043   1.208  -2.323  0.00  0.00    +0.219 A 
ATOM      7  N   UNL     1      -0.665   0.510  -3.257  0.00  0.00    -0.114 NA
ATOM      8  N   UNL     1      -0.086   0.160  -4.350  0.00  0.00    -0.141 NA
ATOM      9  N   UNL     1      -0.711   1.557  -1.181  0.00  0.00    -0.295 N 
ATOM     10  C   UNL     1      -1.004   2.999  -1.162  0.00  0.00    +0.113 C 
ATOM     11  C   UNL     1      -2.048   3.267  -0.078  0.00  0.00    +0.054 C 
ATOM     12  C   UNL     1      -1.619   2.630   1.219  0.00  0.00    -0.041 A 
ATOM     13  C   UNL     1      -2.231   3.042   2.393  0.00  0.00    +0.004 A 
ATOM     14  C   UNL     1      -1.869   2.481   3.602  0.00  0.00    +0.000 A 
ATOM     15  C   UNL     1      -0.892   1.504   3.642  0.00  0.00    +0.000 A 
ATOM     16  C   UNL     1      -0.282   1.094   2.474  0.00  0.00    +0.005 A 
ATOM     17  C   UNL     1      -0.647   1.657   1.256  0.00  0.00    -0.027 A 
ATOM     18  C   UNL     1       0.054   1.180   0.011  0.00  0.00    +0.143 C 
ENDROOT
BRANCH   1  22
ATOM     19  C   UNL     1       3.037  -0.726  -8.216  0.00  0.00    +0.000 A 
ATOM     20  C   UNL     1       3.443   0.437  -7.585  0.00  0.00    +0.001 A 
ATOM     21  C   UNL     1       2.841   0.832  -6.408  0.00  0.00    +0.010 A 
ATOM     22  C   UNL     1       1.823   0.057  -5.853  0.00  0.00    +0.007 A 
ATOM     23  C   UNL     1       1.423  -1.118  -6.491  0.00  0.00    +0.010 A 
ATOM     24  C   UNL     1       2.028  -1.500  -7.671  0.00  0.00    +0.001 A 
ENDBRANCH   1  22
TORSDOF 1
