REMARK  Name = ZINC55349628
REMARK  6 active torsions:
REMARK  status: ('A' for Active; 'I' for Inactive)
REMARK    1  A    between atoms: C_4  and  C_7
REMARK    2  A    between atoms: C_8  and  C_9
REMARK    3  A    between atoms: C_9  and  N_10
REMARK    4  A    between atoms: N_13  and  C_16
REMARK    5  A    between atoms: C_16  and  N_17
REMARK    6  A    between atoms: C_24  and  N_28
REMARK                            x       y       z     vdW  Elec       q    Type
REMARK                         _______ _______ _______ _____ _____    ______ ____
ROOT
ATOM      1  N   UNL     1       5.087  -3.681   1.066  0.00  0.00    +0.384 N 
ATOM      2  C   UNL     1       4.061  -4.718   0.889  0.00  0.00    -0.063 C 
ATOM      3  C   UNL     1       4.104  -5.685   2.075  0.00  0.00    +0.067 C 
ATOM      4  N   UNL     1       5.437  -6.298   2.155  0.00  0.00    -0.290 NA
ATOM      5  C   UNL     1       6.477  -5.271   2.306  0.00  0.00    +0.067 C 
ATOM      6  C   UNL     1       6.414  -4.307   1.119  0.00  0.00    -0.063 C 
ATOM      7  H   UNL     1       4.916  -3.182   1.926  0.00  0.00    -0.081 HD
ENDROOT
BRANCH   1   8
ATOM      8  C   UNL     1       5.033  -2.743  -0.063  0.00  0.00    -0.051 C 
BRANCH   8  10
ATOM      9  C   UNL     1       3.695  -0.685  -0.038  0.00  0.00    +0.002 C 
ATOM     10  C   UNL     1       3.716  -2.010  -0.046  0.00  0.00    -0.045 C 
BRANCH   9  14
ATOM     11  C   UNL     1      -0.017   1.379   0.010  0.00  0.00    +0.000 A 
ATOM     12  C   UNL     1       1.168   2.093   0.002  0.00  0.00    +0.001 A 
ATOM     13  C   UNL     1       2.377   1.429  -0.013  0.00  0.00    +0.008 A 
ATOM     14  C   UNL     1       2.403   0.034  -0.021  0.00  0.00    -0.025 A 
ATOM     15  C   UNL     1       1.204  -0.681  -0.013  0.00  0.00    +0.008 A 
ATOM     16  C   UNL     1       0.002  -0.004   0.002  0.00  0.00    +0.001 A 
ENDBRANCH   9  14
ENDBRANCH   8  10
ENDBRANCH   1   8
BRANCH   4  17
ATOM     17  C   UNL     1       5.501  -7.277   3.248  0.00  0.00    +0.203 C 
BRANCH  17  18
ATOM     18  N   UNL     1       6.546  -8.263   2.960  0.00  0.00    -0.220 N 
ATOM     19  C   UNL     1       6.347  -9.407   2.281  0.00  0.00    +0.255 C 
ATOM     20  O   UNL     1       5.289  -9.781   1.815  0.00  0.00    -0.269 OA
ATOM     21  C   UNL     1       7.632 -10.132   2.196  0.00  0.00    +0.051 A 
ATOM     22  C   UNL     1       8.031 -11.331   1.632  0.00  0.00    +0.014 A 
ATOM     23  C   UNL     1       9.355 -11.737   1.731  0.00  0.00    +0.003 A 
ATOM     24  C   UNL     1      10.281 -10.957   2.388  0.00  0.00    +0.023 A 
ATOM     25  C   UNL     1       9.900  -9.743   2.964  0.00  0.00    +0.038 A 
ATOM     26  C   UNL     1       8.574  -9.325   2.870  0.00  0.00    +0.070 A 
ATOM     27  C   UNL     1       7.832  -8.141   3.335  0.00  0.00    +0.257 C 
ATOM     28  O   UNL     1       8.303  -7.209   3.956  0.00  0.00    -0.269 OA
BRANCH  25  29
ATOM     29  N   UNL     1      10.835  -8.960   3.625  0.00  0.00    -0.357 N 
ATOM     30  H   UNL     1      11.757  -9.254   3.688  0.00  0.00    +0.142 HD
ATOM     31  H   UNL     1      10.566  -8.117   4.024  0.00  0.00    +0.142 HD
ENDBRANCH  25  29
ENDBRANCH  17  18
ENDBRANCH   4  17
TORSDOF 6
