REMARK  Name = ZINC66354633
REMARK  5 active torsions:
REMARK  status: ('A' for Active; 'I' for Inactive)
REMARK    1  A    between atoms: C_1  and  N_2
REMARK    2  A    between atoms: C_3  and  C_5
REMARK    3  A    between atoms: N_12  and  C_17
REMARK    4  A    between atoms: N_20  and  C_23
REMARK    5  A    between atoms: C_23  and  C_24
REMARK                            x       y       z     vdW  Elec       q    Type
REMARK                         _______ _______ _______ _____ _____    ______ ____
ROOT
ATOM      1  C   UNL     1       1.005  -7.362  -1.632  0.00  0.00    +0.089 C 
ATOM      2  C   UNL     1      -0.170  -8.242  -2.070  0.00  0.00    +0.006 C 
ATOM      3  C   UNL     1       0.361  -9.423  -2.886  0.00  0.00    -0.076 C 
ATOM      4  N   UNL     1       1.286 -10.213  -2.064  0.00  0.00    +0.386 N 
ATOM      5  C   UNL     1       2.450  -9.397  -1.700  0.00  0.00    -0.076 C 
ATOM      6  C   UNL     1       2.000  -8.214  -0.839  0.00  0.00    +0.006 C 
ATOM      7  H   UNL     1       0.814 -10.517  -1.226  0.00  0.00    -0.081 HD
ENDROOT
BRANCH   1  15
ATOM      8  C   UNL     1       0.605  -2.139  -1.026  0.00  0.00    +0.074 A 
ATOM      9  C   UNL     1       0.015  -2.853   0.020  0.00  0.00    +0.043 A 
ATOM     10  C   UNL     1       0.037  -4.233   0.007  0.00  0.00    +0.068 A 
ATOM     11  C   UNL     1       0.649  -4.915  -1.051  0.00  0.00    +0.073 A 
ATOM     12  C   UNL     1       1.236  -4.206  -2.091  0.00  0.00    +0.067 A 
ATOM     13  C   UNL     1       1.211  -2.826  -2.086  0.00  0.00    +0.138 A 
ATOM     14  F   UNL     1       1.777  -2.138  -3.101  0.00  0.00    -0.205 F 
ATOM     15  N   UNL     1       0.511  -6.272  -0.787  0.00  0.00    -0.289 N 
ATOM     16  C   UNL     1      -0.151  -6.416   0.375  0.00  0.00    +0.328 A 
ATOM     17  O   UNL     1      -0.436  -7.480   0.892  0.00  0.00    -0.247 OA
ATOM     18  N   UNL     1      -0.452  -5.205   0.880  0.00  0.00    -0.306 N 
ATOM     19  H   UNL     1      -0.927  -5.036   1.709  0.00  0.00    +0.170 HD
BRANCH   8  22
ATOM     20  C   UNL     1      -0.018   1.461   0.010  0.00  0.00    +0.128 C 
ATOM     21  N   UNL     1       0.002  -0.004   0.002  0.00  0.00    -0.314 N 
ATOM     22  C   UNL     1       0.585  -0.664  -1.018  0.00  0.00    +0.247 C 
ATOM     23  O   UNL     1       1.095  -0.044  -1.932  0.00  0.00    -0.270 OA
ATOM     24  H   UNL     1      -0.404  -0.499   0.731  0.00  0.00    +0.149 HD
ENDBRANCH   8  22
ENDBRANCH   1  15
BRANCH   4  25
ATOM     25  C   UNL     1       1.732 -11.388  -2.824  0.00  0.00    +0.019 C 
BRANCH  25  26
ATOM     26  C   UNL     1       2.584 -12.264  -1.942  0.00  0.00    +0.199 C 
ATOM     27  O   UNL     1       2.798 -11.941  -0.792  0.00  0.00    -0.278 OA
ATOM     28  N   UNL     1       3.107 -13.406  -2.429  0.00  0.00    -0.303 N 
ATOM     29  C   UNL     1       2.859 -13.802  -3.821  0.00  0.00    +0.108 C 
ATOM     30  C   UNL     1       4.205 -13.982  -4.532  0.00  0.00    +0.026 C 
ATOM     31  C   UNL     1       5.088 -14.908  -3.689  0.00  0.00    -0.026 C 
ATOM     32  C   UNL     1       5.004 -16.410  -3.960  0.00  0.00    +0.007 C 
ATOM     33  C   UNL     1       6.243 -15.622  -4.390  0.00  0.00    +0.007 C 
ATOM     34  C   UNL     1       5.302 -14.458  -2.240  0.00  0.00    +0.026 C 
ATOM     35  C   UNL     1       3.938 -14.265  -1.577  0.00  0.00    +0.108 C 
ENDBRANCH  25  26
ENDBRANCH   4  25
TORSDOF 4
