REMARK  Name = ZINC24093623
REMARK  9 active torsions:
REMARK  status: ('A' for Active; 'I' for Inactive)
REMARK    1  A    between atoms: C_1  and  C_2
REMARK    2  A    between atoms: C_2  and  C_3
REMARK    3  A    between atoms: C_2  and  N_4
REMARK    4  A    between atoms: C_14  and  S_15
REMARK    5  A    between atoms: S_15  and  C_16
REMARK    6  A    between atoms: C_16  and  C_17
REMARK    7  A    between atoms: C_24  and  C_28
REMARK    8  A    between atoms: C_28  and  O_30
REMARK    9  A    between atoms: O_30  and  C_31
REMARK                            x       y       z     vdW  Elec       q    Type
REMARK                         _______ _______ _______ _____ _____    ______ ____
ROOT
ATOM      1  C   UNL     1      -1.353   2.051   0.019  0.00  0.00    +0.151 C 
ENDROOT
BRANCH   1   2
ATOM      2  C   UNL     1      -0.016   1.354   0.009  0.00  0.00    +0.122 A 
ATOM      3  N   UNL     1       0.002  -0.004   0.002  0.00  0.00    -0.195 NA
ATOM      4  C   UNL     1       1.176  -0.677  -0.013  0.00  0.00    +0.281 A 
ATOM      5  O   UNL     1       1.207  -1.894  -0.020  0.00  0.00    -0.265 OA
ATOM      6  C   UNL     1       2.414   0.120  -0.020  0.00  0.00    +0.065 A 
ATOM      7  C   UNL     1       3.673  -0.479  -0.036  0.00  0.00    +0.016 A 
ATOM      8  C   UNL     1       4.796   0.298  -0.043  0.00  0.00    +0.016 A 
ATOM      9  C   UNL     1       4.695   1.695  -0.035  0.00  0.00    +0.061 A 
ATOM     10  C   UNL     1       3.450   2.312  -0.019  0.00  0.00    +0.041 A 
ATOM     11  C   UNL     1       2.296   1.527  -0.012  0.00  0.00    +0.054 A 
ATOM     12  N   UNL     1       1.058   2.083   0.003  0.00  0.00    -0.342 N 
ATOM     13  H   UNL     1       0.979   3.180   0.010  0.00  0.00    +0.167 HD
BRANCH   9  14
ATOM     14  C   UNL     1       5.924   2.520  -0.042  0.00  0.00    +0.339 C 
ATOM     15  O   UNL     1       5.841   3.731  -0.035  0.00  0.00    -0.245 OA
BRANCH  14  16
ATOM     16  O   UNL     1       7.133   1.927  -0.057  0.00  0.00    -0.464 OA
ATOM     17  C   UNL     1       8.294   2.798  -0.064  0.00  0.00    +0.280 C 
ENDBRANCH  14  16
ENDBRANCH   9  14
ENDBRANCH   1   2
BRANCH   1  18
ATOM     18  S   UNL     1      -1.099   3.843   0.028  0.00  0.00    -0.080 S 
BRANCH  18  29
ATOM     19  N   UNL     1      -3.020   5.733   0.053  0.00  0.00    -0.285 N 
ATOM     20  C   UNL     1      -4.291   6.198   0.057  0.00  0.00    +0.263 A 
ATOM     21  O   UNL     1      -4.525   7.393   0.065  0.00  0.00    -0.267 OA
ATOM     22  C   UNL     1      -5.377   5.210   0.056  0.00  0.00    +0.065 A 
ATOM     23  C   UNL     1      -6.718   5.592   0.065  0.00  0.00    +0.017 A 
ATOM     24  C   UNL     1      -7.694   4.635   0.064  0.00  0.00    +0.021 A 
ATOM     25  C   UNL     1      -7.365   3.284   0.054  0.00  0.00    +0.043 A 
ATOM     26  C   UNL     1      -6.048   2.879   0.046  0.00  0.00    +0.048 A 
ATOM     27  C   UNL     1      -5.032   3.839   0.047  0.00  0.00    +0.080 A 
ATOM     28  N   UNL     1      -3.725   3.488   0.038  0.00  0.00    -0.223 NA
ATOM     29  C   UNL     1      -2.774   4.389   0.039  0.00  0.00    +0.173 A 
ATOM     30 CL   UNL     1      -8.628   2.093   0.053  0.00  0.00    -0.083 Cl
BRANCH  19  32
ATOM     31  C   UNL     1      -1.979   7.569  -1.182  0.00  0.00    +0.031 C 
ATOM     32  C   UNL     1      -1.900   6.677   0.059  0.00  0.00    +0.087 C 
ATOM     33  C   UNL     1      -1.971   7.545   1.317  0.00  0.00    +0.031 C 
ENDBRANCH  19  32
ENDBRANCH  18  29
ENDBRANCH   1  18
TORSDOF 6
