REMARK  Name = ZINC56779229
REMARK  3 active torsions:
REMARK  status: ('A' for Active; 'I' for Inactive)
REMARK    1  A    between atoms: C_3  and  N_4
REMARK    2  A    between atoms: C_5  and  C_7
REMARK    3  A    between atoms: N_15  and  C_16
REMARK                            x       y       z     vdW  Elec       q    Type
REMARK                         _______ _______ _______ _____ _____    ______ ____
ROOT
ATOM      1  C   UNL     1      -1.286  -2.625  -2.469  0.00  0.00    +0.078 C 
ATOM      2  C   UNL     1      -2.389  -1.824  -3.164  0.00  0.00    +0.032 C 
ATOM      3  C   UNL     1      -2.770  -2.518  -4.475  0.00  0.00    +0.110 C 
ATOM      4  N   UNL     1      -3.129  -3.913  -4.184  0.00  0.00    -0.286 N 
ATOM      5  C   UNL     1      -2.176  -4.747  -3.439  0.00  0.00    +0.110 C 
ATOM      6  C   UNL     1      -1.802  -4.027  -2.139  0.00  0.00    +0.032 C 
ATOM      7  C   UNL     1      -4.311  -4.417  -4.592  0.00  0.00    +0.303 C 
ATOM      8  O   UNL     1      -5.130  -3.693  -5.123  0.00  0.00    -0.253 OA
ATOM      9  N   UNL     1      -4.584  -5.725  -4.412  0.00  0.00    -0.294 N 
ATOM     10  H   UNL     1      -3.961  -6.287  -3.925  0.00  0.00    +0.151 HD
ENDROOT
BRANCH   9  11
ATOM     11  C   UNL     1      -5.820  -6.296  -4.951  0.00  0.00    +0.037 C 
ATOM     12  C   UNL     1      -7.024  -5.579  -4.336  0.00  0.00    +0.029 C 
ATOM     13  C   UNL     1      -8.315  -6.175  -4.899  0.00  0.00    -0.008 C 
ATOM     14  C   UNL     1      -8.380  -7.665  -4.557  0.00  0.00    +0.007 C 
ATOM     15  C   UNL     1      -7.177  -8.382  -5.172  0.00  0.00    -0.008 C 
ATOM     16  C   UNL     1      -5.885  -7.786  -4.609  0.00  0.00    +0.029 C 
ATOM     17  C   UNL     1      -7.200  -8.206  -6.692  0.00  0.00    +0.007 C 
ATOM     18  C   UNL     1      -7.135  -6.716  -7.034  0.00  0.00    -0.008 C 
ATOM     19  C   UNL     1      -8.338  -5.999  -6.419  0.00  0.00    +0.007 C 
ATOM     20  C   UNL     1      -5.843  -6.120  -6.471  0.00  0.00    +0.029 C 
ENDBRANCH   9  11
BRANCH   1  22
ATOM     21  N   UNL     1      -0.397  -0.670  -1.241  0.00  0.00    -0.312 N 
ATOM     22  C   UNL     1      -0.884  -1.926  -1.195  0.00  0.00    +0.216 C 
ATOM     23  O   UNL     1      -0.999  -2.494  -0.130  0.00  0.00    -0.276 OA
ATOM     24  H   UNL     1      -0.304  -0.216  -2.093  0.00  0.00    +0.149 HD
BRANCH  21  27
ATOM     25  C   UNL     1      -0.025   1.539  -0.000  0.00  0.00    +0.024 C 
ATOM     26  C   UNL     1       1.309   0.791  -0.010  0.00  0.00    +0.024 C 
ATOM     27  C   UNL     1      -0.006   0.009  -0.003  0.00  0.00    +0.073 C 
ENDBRANCH  21  27
ENDBRANCH   1  22
TORSDOF 3
