REMARK  Name = ZINC37646352
REMARK  6 active torsions:
REMARK  status: ('A' for Active; 'I' for Inactive)
REMARK    1  A    between atoms: C_1  and  N_2
REMARK    2  A    between atoms: C_5  and  C_8
REMARK    3  A    between atoms: C_8  and  N_9
REMARK    4  A    between atoms: N_9  and  S_10
REMARK    5  A    between atoms: S_10  and  C_13
REMARK    6  A    between atoms: C_15  and  C_20
REMARK                            x       y       z     vdW  Elec       q    Type
REMARK                         _______ _______ _______ _____ _____    ______ ____
ROOT
ATOM      1  S   UNL     1       1.768  -5.509   2.132  0.00  0.00    +0.059 S 
ATOM      2  O   UNL     1       2.681  -6.491   1.662  0.00  0.00    -0.153 OA
ATOM      3  O   UNL     1       1.890  -4.906   3.413  0.00  0.00    -0.153 OA
ENDROOT
BRANCH   1   4
ATOM      4  C   UNL     1       0.166  -6.240   2.071  0.00  0.00    +0.120 A 
ATOM      5  C   UNL     1      -0.660  -6.180   3.173  0.00  0.00    +0.044 A 
ATOM      6  C   UNL     1      -1.931  -6.760   3.123  0.00  0.00    +0.065 A 
ATOM      7  C   UNL     1      -2.355  -7.398   1.953  0.00  0.00    +0.016 A 
ATOM      8  C   UNL     1      -1.519  -7.450   0.858  0.00  0.00    +0.018 A 
ATOM      9  C   UNL     1      -0.263  -6.868   0.913  0.00  0.00    +0.044 A 
ATOM     10 BR   UNL     1       0.874  -6.937  -0.596  0.00  0.00    -0.048 Br
BRANCH   6  11
ATOM     11  C   UNL     1      -2.819  -6.701   4.298  0.00  0.00    +0.387 C 
ATOM     12  O   UNL     1      -2.445  -6.143   5.320  0.00  0.00    -0.241 OA
ATOM     13  O   UNL     1      -3.930  -7.210   4.251  0.00  0.00    -0.241 OA
ENDBRANCH   6  11
ENDBRANCH   1   4
BRANCH   1  14
ATOM     14  N   UNL     1       1.787  -4.277   1.026  0.00  0.00    -0.190 NA
ATOM     15  H   UNL     1       2.374  -4.325   0.256  0.00  0.00    +0.148 HD
BRANCH  14  16
ATOM     16  C   UNL     1       0.916  -3.113   1.210  0.00  0.00    +0.107 C 
BRANCH  16  21
ATOM     17  C   UNL     1      -0.280   1.015  -0.962  0.00  0.00    -0.096 C 
ATOM     18  N   UNL     1      -0.160  -0.436  -0.765  0.00  0.00    +0.378 N 
ATOM     19  C   UNL     1       0.703  -1.027  -1.820  0.00  0.00    -0.079 C 
ATOM     20  C   UNL     1       1.180  -2.357  -1.184  0.00  0.00    -0.016 C 
ATOM     21  C   UNL     1       1.385  -1.976   0.301  0.00  0.00    -0.014 C 
ATOM     22  C   UNL     1       0.517  -0.722   0.518  0.00  0.00    -0.075 C 
ATOM     23  H   UNL     1      -1.073  -0.866  -0.780  0.00  0.00    -0.082 HD
ENDBRANCH  16  21
ENDBRANCH  14  16
ENDBRANCH   1  14
TORSDOF 5
