REMARK  Name = ZINC12279951
REMARK  6 active torsions:
REMARK  status: ('A' for Active; 'I' for Inactive)
REMARK    1  A    between atoms: C_3  and  C_8
REMARK    2  A    between atoms: C_8  and  N_9
REMARK    3  A    between atoms: C_20  and  N_58
REMARK    4  A    between atoms: C_24  and  C_25
REMARK    5  A    between atoms: C_24  and  N_58
REMARK    6  A    between atoms: C_25  and  O_31
REMARK                            x       y       z     vdW  Elec       q    Type
REMARK                         _______ _______ _______ _____ _____    ______ ____
ROOT
ATOM      1  N   UNL     1       1.435   5.615  -1.119  0.00  0.00    -0.294 N 
ATOM      2  C   UNL     1       2.770   5.835  -1.049  0.00  0.00    +0.203 A 
ATOM      3  N   UNL     1       3.629   4.913  -0.671  0.00  0.00    -0.230 NA
ATOM      4  C   UNL     1       3.141   3.720  -0.348  0.00  0.00    +0.116 A 
ATOM      5  C   UNL     1       1.767   3.393  -0.388  0.00  0.00    +0.076 A 
ATOM      6  C   UNL     1       0.864   4.428  -0.807  0.00  0.00    +0.263 A 
ATOM      7  O   UNL     1      -0.340   4.249  -0.875  0.00  0.00    -0.267 OA
ATOM      8  C   UNL     1       1.419   2.039  -0.001  0.00  0.00    -0.023 A 
ATOM      9  C   UNL     1       2.441   1.228   0.360  0.00  0.00    -0.006 A 
ATOM     10  S   UNL     1       3.902   2.224   0.199  0.00  0.00    -0.073 S 
ATOM     11  C   UNL     1       2.355  -0.201   0.798  0.00  0.00    +0.027 C 
ATOM     12  C   UNL     1       0.891  -0.518   1.138  0.00  0.00    -0.067 C 
ATOM     13  C   UNL     1       0.002  -0.004   0.002  0.00  0.00    -0.011 C 
ATOM     14  C   UNL     1      -0.019   1.524   0.010  0.00  0.00    +0.035 C 
ENDROOT
BRANCH  12  15
ATOM     15  N   UNL     1       0.718  -1.977   1.270  0.00  0.00    +0.383 N 
ATOM     16  H   UNL     1       1.341  -2.454   0.607  0.00  0.00    -0.085 HD
ATOM     17  H   UNL     1      -0.257  -2.223   1.062  0.00  0.00    -0.085 HD
BRANCH  15  18
ATOM     18  C   UNL     1       1.047  -2.409   2.642  0.00  0.00    -0.047 C 
BRANCH  18  19
ATOM     19  C   UNL     1       0.858  -3.924   2.749  0.00  0.00    +0.051 C 
ATOM     20  C   UNL     1      -0.560  -4.293   2.311  0.00  0.00    +0.033 C 
ATOM     21  C   UNL     1      -0.749  -5.808   2.418  0.00  0.00    +0.003 C 
ATOM     22  C   UNL     1      -0.531  -6.248   3.867  0.00  0.00    +0.000 C 
ATOM     23  C   UNL     1       0.887  -5.878   4.305  0.00  0.00    +0.003 C 
ATOM     24  C   UNL     1       1.076  -4.364   4.198  0.00  0.00    +0.033 C 
BRANCH  19  25
ATOM     25  O   UNL     1       1.804  -4.582   1.904  0.00  0.00    -0.390 OA
ATOM     26  H   UNL     1       1.725  -4.350   0.969  0.00  0.00    +0.210 HD
ENDBRANCH  19  25
ENDBRANCH  18  19
ENDBRANCH  15  18
ENDBRANCH  12  15
BRANCH   1  27
ATOM     27  C   UNL     1       0.569   6.714  -1.554  0.00  0.00    +0.161 C 
BRANCH  27  30
ATOM     28  C   UNL     1      -1.431   7.907   1.418  0.00  0.00    +0.002 A 
ATOM     29  C   UNL     1      -1.031   7.176   0.314  0.00  0.00    +0.005 A 
ATOM     30  C   UNL     1       0.131   7.513  -0.354  0.00  0.00    -0.026 A 
ATOM     31  C   UNL     1       0.888   8.588   0.074  0.00  0.00    +0.025 A 
ATOM     32  C   UNL     1       0.486   9.322   1.175  0.00  0.00    +0.041 A 
ATOM     33  C   UNL     1      -0.675   8.980   1.847  0.00  0.00    +0.020 A 
ATOM     34 CL   UNL     1       1.436  10.671   1.713  0.00  0.00    -0.084 Cl
ENDBRANCH  27  30
ENDBRANCH   1  27
TORSDOF 6
