REMARK  Name = ZINC59310644
REMARK  7 active torsions:
REMARK  status: ('A' for Active; 'I' for Inactive)
REMARK    1  A    between atoms: C_1  and  C_2
REMARK    2  A    between atoms: C_2  and  C_22
REMARK    3  A    between atoms: N_3  and  N_4
REMARK    4  A    between atoms: C_7  and  S_10
REMARK    5  A    between atoms: S_10  and  C_11
REMARK    6  A    between atoms: C_11  and  C_12
REMARK    7  A    between atoms: N_14  and  C_15
REMARK                            x       y       z     vdW  Elec       q    Type
REMARK                         _______ _______ _______ _____ _____    ______ ____
ROOT
ATOM      1  N   UNL     1       0.086   0.042   2.322  0.00  0.00    -0.205 N 
ATOM      2  C   UNL     1       0.097  -0.656   3.517  0.00  0.00    +0.232 A 
ATOM      3  N   UNL     1       0.113  -1.965   3.647  0.00  0.00    -0.186 NA
ATOM      4  C   UNL     1       0.120  -2.288   4.946  0.00  0.00    +0.211 A 
ATOM      5  N   UNL     1       0.109  -1.186   5.658  0.00  0.00    -0.144 NA
ATOM      6  N   UNL     1       0.100  -0.113   4.753  0.00  0.00    -0.245 N 
ATOM      7  H   UNL     1       0.079   1.012   2.327  0.00  0.00    +0.177 HD
ATOM      8  H   UNL     1       0.094   0.832   4.972  0.00  0.00    +0.192 HD
ENDROOT
BRANCH   1  11
ATOM      9  C   UNL     1       0.063   1.500   0.007  0.00  0.00    +0.063 C 
ATOM     10  C   UNL     1       0.074  -0.006  -0.000  0.00  0.00    +0.040 C 
ATOM     11  N   UNL     1       0.084  -0.652   1.105  0.00  0.00    -0.189 NA
BRANCH  10  12
ATOM     12  C   UNL     1       0.072  -0.753  -1.309  0.00  0.00    +0.011 C 
ATOM     13  C   UNL     1       1.314  -0.371  -2.116  0.00  0.00    +0.016 C 
ATOM     14  C   UNL     1       1.312  -1.129  -3.445  0.00  0.00    -0.010 C 
ATOM     15  C   UNL     1       1.325  -2.635  -3.173  0.00  0.00    +0.007 C 
ATOM     16  C   UNL     1       0.082  -3.017  -2.366  0.00  0.00    -0.010 C 
ATOM     17  C   UNL     1       0.084  -2.259  -1.037  0.00  0.00    +0.016 C 
ATOM     18  C   UNL     1      -1.174  -2.652  -3.160  0.00  0.00    +0.007 C 
ATOM     19  C   UNL     1      -1.186  -1.147  -3.432  0.00  0.00    -0.010 C 
ATOM     20  C   UNL     1       0.056  -0.764  -4.239  0.00  0.00    +0.007 C 
ATOM     21  C   UNL     1      -1.184  -0.389  -2.103  0.00  0.00    +0.016 C 
ENDBRANCH  10  12
ENDBRANCH   1  11
BRANCH   4  22
ATOM     22  S   UNL     1       0.141  -3.926   5.594  0.00  0.00    -0.075 S 
BRANCH  22  23
ATOM     23  C   UNL     1       0.143  -3.687   7.392  0.00  0.00    +0.173 C 
BRANCH  23  24
ATOM     24  C   UNL     1       0.160  -5.029   8.077  0.00  0.00    +0.228 C 
ATOM     25  O   UNL     1       0.170  -6.046   7.418  0.00  0.00    -0.275 OA
ATOM     26  N   UNL     1       0.165  -5.098   9.423  0.00  0.00    -0.284 N 
ATOM     27  H   UNL     1       0.223  -4.286   9.950  0.00  0.00    +0.155 HD
BRANCH  26  28
ATOM     28  C   UNL     1       0.086  -6.341  10.060  0.00  0.00    +0.047 A 
ATOM     29  C   UNL     1       0.693  -7.454   9.493  0.00  0.00    +0.024 A 
ATOM     30  C   UNL     1       0.614  -8.680  10.124  0.00  0.00    +0.002 A 
ATOM     31  C   UNL     1      -0.070  -8.801  11.320  0.00  0.00    +0.001 A 
ATOM     32  C   UNL     1      -0.677  -7.696  11.888  0.00  0.00    +0.017 A 
ATOM     33  C   UNL     1      -0.596  -6.465  11.265  0.00  0.00    +0.039 A 
ATOM     34 BR   UNL     1      -1.419  -4.952  12.046  0.00  0.00    -0.048 Br
ENDBRANCH  26  28
ENDBRANCH  23  24
ENDBRANCH  22  23
ENDBRANCH   4  22
TORSDOF 6
