REMARK  Name = ZINC09356409
REMARK  5 active torsions:
REMARK  status: ('A' for Active; 'I' for Inactive)
REMARK    1  A    between atoms: C_1  and  N_2
REMARK    2  A    between atoms: C_6  and  N_13
REMARK    3  A    between atoms: N_9  and  C_12
REMARK    4  A    between atoms: N_13  and  S_14
REMARK    5  A    between atoms: S_14  and  C_17
REMARK                            x       y       z     vdW  Elec       q    Type
REMARK                         _______ _______ _______ _____ _____    ______ ____
ROOT
ATOM      1  C   UNL     1       2.005  -3.123  -0.115  0.00  0.00    +0.154 C 
ATOM      2  N   UNL     1       1.012  -2.046  -0.129  0.00  0.00    -0.295 N 
ATOM      3  C   UNL     1       1.288  -0.679  -0.085  0.00  0.00    +0.070 A 
ATOM      4  C   UNL     1       2.466   0.051  -0.020  0.00  0.00    +0.030 A 
ATOM      5  C   UNL     1       2.421   1.430   0.011  0.00  0.00    +0.026 A 
ATOM      6  C   UNL     1       1.198   2.091  -0.022  0.00  0.00    +0.050 A 
ATOM      7  C   UNL     1       0.017   1.367  -0.088  0.00  0.00    +0.052 A 
ATOM      8  C   UNL     1       0.059  -0.018  -0.120  0.00  0.00    +0.071 A 
ATOM      9  N   UNL     1      -0.926  -1.001  -0.184  0.00  0.00    -0.295 N 
ATOM     10  C   UNL     1      -0.324  -2.205  -0.188  0.00  0.00    +0.330 A 
ATOM     11  O   UNL     1      -0.900  -3.276  -0.238  0.00  0.00    -0.246 OA
ATOM     12  C   UNL     1      -2.370  -0.765  -0.237  0.00  0.00    +0.154 C 
ENDROOT
BRANCH   6  13
ATOM     13  N   UNL     1       1.159   3.490   0.010  0.00  0.00    -0.216 N 
ATOM     14  H   UNL     1       0.590   3.973  -0.609  0.00  0.00    +0.174 HD
BRANCH  13  15
ATOM     15  S   UNL     1       2.085   4.319   1.104  0.00  0.00    +0.072 S 
ATOM     16  O   UNL     1       3.414   3.839   0.958  0.00  0.00    -0.150 OA
ATOM     17  O   UNL     1       1.751   5.692   0.960  0.00  0.00    -0.150 OA
BRANCH  15  18
ATOM     18  C   UNL     1       1.549   3.836   2.712  0.00  0.00    +0.109 A 
ATOM     19  C   UNL     1       0.473   4.472   3.302  0.00  0.00    +0.030 A 
ATOM     20  C   UNL     1       0.050   4.090   4.561  0.00  0.00    +0.017 A 
ATOM     21  C   UNL     1       0.709   3.078   5.235  0.00  0.00    +0.018 A 
ATOM     22  C   UNL     1       1.789   2.445   4.646  0.00  0.00    +0.017 A 
ATOM     23  C   UNL     1       2.209   2.824   3.385  0.00  0.00    +0.030 A 
ATOM     24 BR   UNL     1       0.135   2.559   6.960  0.00  0.00    -0.050 Br
ENDBRANCH  15  18
ENDBRANCH  13  15
ENDBRANCH   6  13
TORSDOF 3
