REMARK  Name = ZINC49978488
REMARK  7 active torsions:
REMARK  status: ('A' for Active; 'I' for Inactive)
REMARK    1  A    between atoms: C_1  and  C_2
REMARK    2  A    between atoms: C_2  and  C_3
REMARK    3  A    between atoms: C_6  and  N_9
REMARK    4  A    between atoms: N_9  and  C_10
REMARK    5  A    between atoms: N_9  and  S_11
REMARK    6  A    between atoms: S_11  and  C_14
REMARK    7  A    between atoms: C_19  and  N_20
REMARK                            x       y       z     vdW  Elec       q    Type
REMARK                         _______ _______ _______ _____ _____    ______ ____
ROOT
ATOM      1  S   UNL     1      -5.878  -2.658  -1.272  0.00  0.00    +0.076 S 
ATOM      2  O   UNL     1      -4.853  -3.328  -1.993  0.00  0.00    -0.150 OA
ATOM      3  O   UNL     1      -6.993  -3.344  -0.719  0.00  0.00    -0.150 OA
ENDROOT
BRANCH   1   4
ATOM      4  C   UNL     1      -6.527  -1.424  -2.348  0.00  0.00    +0.131 A 
ATOM      5  C   UNL     1      -6.017  -1.281  -3.624  0.00  0.00    +0.050 A 
ATOM      6  C   UNL     1      -6.527  -0.313  -4.470  0.00  0.00    +0.043 A 
ATOM      7  C   UNL     1      -7.549   0.516  -4.041  0.00  0.00    +0.022 A 
ATOM      8  C   UNL     1      -8.063   0.378  -2.767  0.00  0.00    +0.026 A 
ATOM      9  C   UNL     1      -7.557  -0.598  -1.917  0.00  0.00    +0.052 A 
ATOM     10 CL   UNL     1      -5.883  -0.136  -6.073  0.00  0.00    -0.083 Cl
BRANCH   9  11
ATOM     11  N   UNL     1      -8.079  -0.744  -0.629  0.00  0.00    -0.356 N 
ATOM     12  H   UNL     1      -7.793  -1.483  -0.071  0.00  0.00    +0.142 HD
ATOM     13  H   UNL     1      -8.728  -0.105  -0.294  0.00  0.00    +0.142 HD
ENDBRANCH   9  11
ENDBRANCH   1   4
BRANCH   1  14
ATOM     14  N   UNL     1      -5.136  -1.872  -0.017  0.00  0.00    -0.206 N 
ATOM     15  C   UNL     1      -5.859  -1.651   1.238  0.00  0.00    +0.157 C 
BRANCH  14  19
ATOM     16  C   UNL     1      -1.218  -0.525  -0.428  0.00  0.00    -0.048 A 
ATOM     17  C   UNL     1      -1.539  -1.415   0.580  0.00  0.00    +0.005 A 
ATOM     18  C   UNL     1      -2.838  -1.864   0.720  0.00  0.00    +0.025 A 
ATOM     19  C   UNL     1      -3.822  -1.420  -0.155  0.00  0.00    +0.051 A 
ATOM     20  C   UNL     1      -3.496  -0.526  -1.167  0.00  0.00    +0.025 A 
ATOM     21  C   UNL     1      -2.196  -0.077  -1.297  0.00  0.00    +0.005 A 
BRANCH  16  23
ATOM     22  C   UNL     1       0.396   1.227   0.260  0.00  0.00    +0.009 C 
ATOM     23  C   UNL     1       0.201  -0.038  -0.577  0.00  0.00    +0.032 C 
ENDBRANCH  16  23
ENDBRANCH  14  19
ENDBRANCH   1  14
TORSDOF 5
