REMARK  Name = ZINC40758450
REMARK  5 active torsions:
REMARK  status: ('A' for Active; 'I' for Inactive)
REMARK    1  A    between atoms: C_4  and  C_7
REMARK    2  A    between atoms: C_7  and  N_8
REMARK    3  A    between atoms: C_16  and  N_32
REMARK    4  A    between atoms: C_17  and  N_21
REMARK    5  A    between atoms: N_21  and  C_22
REMARK                            x       y       z     vdW  Elec       q    Type
REMARK                         _______ _______ _______ _____ _____    ______ ____
ROOT
ATOM      1  N   UNL     1       3.954  -0.918   1.540  0.00  0.00    -0.264 N 
ATOM      2  C   UNL     1       2.571  -0.940   1.687  0.00  0.00    +0.127 A 
ATOM      3  C   UNL     1       1.820  -1.897   1.012  0.00  0.00    +0.044 A 
ATOM      4  C   UNL     1       0.446  -1.907   1.167  0.00  0.00    +0.005 A 
ATOM      5  C   UNL     1      -0.134  -0.956   1.996  0.00  0.00    +0.020 A 
ATOM      6  C   UNL     1       0.671  -0.035   2.636  0.00  0.00    +0.113 A 
ATOM      7  N   UNL     1       1.980  -0.053   2.473  0.00  0.00    -0.240 NA
ATOM      8  C   UNL     1       4.724  -0.074   2.333  0.00  0.00    +0.153 A 
ATOM      9  C   UNL     1       5.298  -0.541   3.517  0.00  0.00    +0.104 A 
ATOM     10  C   UNL     1       6.063   0.349   4.274  0.00  0.00    +0.126 A 
ATOM     11  N   UNL     1       6.214   1.599   3.842  0.00  0.00    -0.333 N 
ATOM     12  C   UNL     1       5.654   1.999   2.718  0.00  0.00    +0.200 A 
ATOM     13  N   UNL     1       4.931   1.190   1.971  0.00  0.00    -0.220 NA
ATOM     14  H   UNL     1       6.743   2.224   4.362  0.00  0.00    +0.168 HD
ENDROOT
BRANCH   9  15
ATOM     15  N   UNL     1       5.112  -1.867   3.934  0.00  0.00    -0.353 N 
ATOM     16  H   UNL     1       4.645  -2.495   3.361  0.00  0.00    +0.143 HD
ATOM     17  H   UNL     1       5.450  -2.157   4.796  0.00  0.00    +0.143 HD
ENDBRANCH   9  15
BRANCH  10  18
ATOM     18  N   UNL     1       6.656  -0.064   5.462  0.00  0.00    -0.298 N 
ATOM     19  H   UNL     1       6.501  -0.961   5.795  0.00  0.00    +0.154 HD
BRANCH  18  20
ATOM     20  C   UNL     1       7.475   0.813   6.173  0.00  0.00    +0.059 A 
ATOM     21  C   UNL     1       8.835   0.598   6.234  0.00  0.00    +0.025 A 
ATOM     22  C   UNL     1       9.663   1.465   6.940  0.00  0.00    +0.003 A 
ATOM     23  C   UNL     1       9.153   2.547   7.590  0.00  0.00    +0.010 A 
ATOM     24  C   UNL     1       7.773   2.801   7.553  0.00  0.00    +0.002 A 
ATOM     25  C   UNL     1       6.918   1.930   6.833  0.00  0.00    +0.092 A 
ATOM     26  N   UNL     1       5.605   2.171   6.791  0.00  0.00    -0.253 NA
ATOM     27  C   UNL     1       5.082   3.206   7.402  0.00  0.00    +0.111 A 
ATOM     28  C   UNL     1       5.865   4.105   8.122  0.00  0.00    +0.020 A 
ATOM     29  C   UNL     1       7.214   3.911   8.214  0.00  0.00    +0.011 A 
ENDBRANCH  18  20
ENDBRANCH  10  18
BRANCH   1  30
ATOM     30  C   UNL     1       4.599  -1.785   0.551  0.00  0.00    +0.149 C 
BRANCH  30  34
ATOM     31  C   UNL     1       4.887   0.277  -3.179  0.00  0.00    +0.000 A 
ATOM     32  C   UNL     1       5.910   0.374  -2.255  0.00  0.00    +0.000 A 
ATOM     33  C   UNL     1       5.817  -0.293  -1.048  0.00  0.00    +0.005 A 
ATOM     34  C   UNL     1       4.700  -1.057  -0.765  0.00  0.00    -0.030 A 
ATOM     35  C   UNL     1       3.677  -1.154  -1.689  0.00  0.00    +0.005 A 
ATOM     36  C   UNL     1       3.771  -0.488  -2.897  0.00  0.00    +0.000 A 
ENDBRANCH  30  34
ENDBRANCH   1  30
TORSDOF 5
