REMARK  Name = ZINC02307369
REMARK  12 active torsions:
REMARK  status: ('A' for Active; 'I' for Inactive)
REMARK    1  A    between atoms: C_1  and  C_2
REMARK    2  A    between atoms: C_7  and  O_8
REMARK    3  A    between atoms: O_8  and  C_9
REMARK    4  A    between atoms: C_9  and  C_10
REMARK    5  A    between atoms: C_10  and  O_11
REMARK    6  A    between atoms: O_11  and  C_12
REMARK    7  A    between atoms: C_13  and  O_31
REMARK    8  A    between atoms: C_15  and  C_19
REMARK    9  A    between atoms: N_20  and  N_21
REMARK   10  A    between atoms: C_22  and  C_24
REMARK   11  A    between atoms: C_24  and  C_25
REMARK   12  A    between atoms: O_31  and  C_32
REMARK                            x       y       z     vdW  Elec       q    Type
REMARK                         _______ _______ _______ _____ _____    ______ ____
ROOT
ATOM      1  C   UNL     1      -3.651  -2.174   0.024  0.00  0.00    +0.176 A 
ATOM      2  C   UNL     1      -2.438  -2.859   0.009  0.00  0.00    +0.163 A 
ATOM      3  C   UNL     1      -1.248  -2.156  -0.004  0.00  0.00    +0.059 A 
ATOM      4  C   UNL     1      -1.264  -0.758   0.010  0.00  0.00    -0.001 A 
ATOM      5  C   UNL     1      -2.484  -0.078   0.025  0.00  0.00    +0.028 A 
ATOM      6  C   UNL     1      -3.669  -0.787   0.032  0.00  0.00    +0.064 A 
ATOM      7 BR   UNL     1      -5.320   0.136   0.054  0.00  0.00    -0.046 Br
ENDROOT
BRANCH   4   8
ATOM      8  C   UNL     1       0.002  -0.004   0.002  0.00  0.00    +0.138 C 
ATOM      9  N   UNL     1      -0.015   1.294   0.009  0.00  0.00    -0.188 NA
BRANCH   9  10
ATOM     10  N   UNL     1       1.188   2.011   0.002  0.00  0.00    -0.207 N 
ATOM     11  C   UNL     1       1.170   3.358   0.009  0.00  0.00    +0.239 C 
ATOM     12  O   UNL     1       0.111   3.950   0.022  0.00  0.00    -0.274 OA
ATOM     13  H   UNL     1       2.035   1.537  -0.009  0.00  0.00    +0.177 HD
BRANCH  11  14
ATOM     14  C   UNL     1       2.465   4.129   0.001  0.00  0.00    +0.162 C 
BRANCH  14  15
ATOM     15  C   UNL     1       2.169   5.607   0.011  0.00  0.00    +0.112 A 
ATOM     16  N   UNL     1       2.013   6.432   1.027  0.00  0.00    -0.144 NA
ATOM     17  N   UNL     1       1.767   7.658   0.865  0.00  0.00    -0.126 NA
ATOM     18  C   UNL     1       1.649   8.194  -0.342  0.00  0.00    +0.179 A 
ATOM     19  S   UNL     1       1.938   6.744  -1.352  0.00  0.00    -0.035 S 
ATOM     20  N   UNL     1       1.385   9.504  -0.716  0.00  0.00    -0.336 N 
ATOM     21  H   UNL     1       1.255  10.185  -0.037  0.00  0.00    +0.144 HD
ATOM     22  H   UNL     1       1.330   9.739  -1.655  0.00  0.00    +0.144 HD
ENDBRANCH  14  15
ENDBRANCH  11  14
ENDBRANCH   9  10
ENDBRANCH   4   8
BRANCH   2  23
ATOM     23  O   UNL     1      -2.424  -4.218   0.002  0.00  0.00    -0.491 OA
ATOM     24  C   UNL     1      -1.145  -4.855  -0.013  0.00  0.00    +0.277 C 
ENDBRANCH   2  23
BRANCH   1  25
ATOM     25  O   UNL     1      -4.821  -2.867   0.031  0.00  0.00    -0.484 OA
BRANCH  25  26
ATOM     26  C   UNL     1      -5.391  -3.191  -1.239  0.00  0.00    +0.270 C 
BRANCH  26  27
ATOM     27  C   UNL     1      -6.693  -3.966  -1.030  0.00  0.00    +0.270 C 
BRANCH  27  28
ATOM     28  O   UNL     1      -7.652  -3.122  -0.390  0.00  0.00    -0.488 OA
BRANCH  28  35
ATOM     29  C   UNL     1      -9.562  -1.469   0.876  0.00  0.00    +0.047 C 
ATOM     30  C   UNL     1      -9.851  -2.897   0.490  0.00  0.00    -0.009 A 
ATOM     31  C   UNL     1     -11.091  -3.447   0.753  0.00  0.00    +0.007 A 
ATOM     32  C   UNL     1     -11.357  -4.757   0.398  0.00  0.00    +0.000 A 
ATOM     33  C   UNL     1     -10.383  -5.519  -0.221  0.00  0.00    +0.004 A 
ATOM     34  C   UNL     1      -9.144  -4.973  -0.490  0.00  0.00    +0.046 A 
ATOM     35  C   UNL     1      -8.873  -3.660  -0.130  0.00  0.00    +0.124 A 
ENDBRANCH  28  35
ENDBRANCH  27  28
ENDBRANCH  26  27
ENDBRANCH  25  26
ENDBRANCH   1  25
TORSDOF 10
