REMARK  Name = ZINC20701197
REMARK  4 active torsions:
REMARK  status: ('A' for Active; 'I' for Inactive)
REMARK    1  A    between atoms: C_1  and  C_2
REMARK    2  A    between atoms: C_5  and  N_27
REMARK    3  A    between atoms: C_9  and  C_18
REMARK    4  A    between atoms: C_23  and  O_24
REMARK                            x       y       z     vdW  Elec       q    Type
REMARK                         _______ _______ _______ _____ _____    ______ ____
ROOT
ATOM      1  C   UNL     1       2.988   4.772  -1.732  0.00  0.00    +0.045 C 
ATOM      2  C   UNL     1       1.592   4.891  -1.178  0.00  0.00    -0.029 A 
ATOM      3  C   UNL     1       1.084   6.133  -0.858  0.00  0.00    +0.007 A 
ATOM      4  C   UNL     1      -0.197   6.241  -0.349  0.00  0.00    +0.033 A 
ATOM      5  C   UNL     1      -0.964   5.108  -0.162  0.00  0.00    +0.132 A 
ATOM      6  C   UNL     1      -0.461   3.854  -0.481  0.00  0.00    +0.011 A 
ATOM      7  C   UNL     1       0.820   3.746  -0.990  0.00  0.00    +0.037 A 
ATOM      8  N   UNL     1       1.383   2.515  -1.328  0.00  0.00    -0.336 N 
ATOM      9  C   UNL     1       0.360   1.542  -1.714  0.00  0.00    +0.109 C 
ATOM     10  C   UNL     1      -0.625   1.344  -0.572  0.00  0.00    +0.029 C 
ATOM     11  C   UNL     1      -1.374   2.652  -0.244  0.00  0.00    +0.051 C 
ATOM     12  C   UNL     1      -1.645   2.533   1.246  0.00  0.00    -0.023 C 
ATOM     13  C   UNL     1      -0.812   1.685   1.801  0.00  0.00    -0.030 C 
ATOM     14  C   UNL     1       0.131   1.114   0.759  0.00  0.00    +0.033 C 
ATOM     15  H   UNL     1       2.445   2.228  -1.332  0.00  0.00    +0.147 HD
ENDROOT
BRANCH   9  16
ATOM     16  C   UNL     1      -0.377   2.044  -2.929  0.00  0.00    +0.017 A 
ATOM     17  C   UNL     1      -1.756   1.981  -2.976  0.00  0.00    +0.029 A 
ATOM     18  C   UNL     1      -2.433   2.443  -4.091  0.00  0.00    +0.043 A 
ATOM     19  C   UNL     1      -1.730   2.967  -5.161  0.00  0.00    +0.043 A 
ATOM     20  C   UNL     1      -0.350   3.032  -5.118  0.00  0.00    +0.084 A 
ATOM     21  C   UNL     1       0.330   2.575  -3.997  0.00  0.00    +0.140 A 
ATOM     22 CL   UNL     1       0.531   3.691  -6.460  0.00  0.00    -0.080 Cl
ATOM     23 CL   UNL     1      -4.166   2.362  -4.147  0.00  0.00    -0.083 Cl
BRANCH  21  24
ATOM     24  O   UNL     1       1.687   2.643  -3.950  0.00  0.00    -0.505 OA
ATOM     25  H   UNL     1       2.246   3.064  -4.798  0.00  0.00    +0.292 HD
ENDBRANCH  21  24
ENDBRANCH   9  16
BRANCH   5  26
ATOM     26  N   UNL     1      -2.334   5.232   0.383  0.00  0.00    +0.057 N 
ATOM     27  O   UNL     1      -3.224   4.515  -0.039  0.00  0.00    -0.126 OA
ATOM     28  O   UNL     1      -2.572   6.051   1.252  0.00  0.00    -0.126 OA
ENDBRANCH   5  26
TORSDOF 3
