REMARK  Name = ZINC03360917
REMARK  15 active torsions:
REMARK  status: ('A' for Active; 'I' for Inactive)
REMARK    1  A    between atoms: C_1  and  C_2
REMARK    2  A    between atoms: C_2  and  C_3
REMARK    3  A    between atoms: C_6  and  O_9
REMARK    4  A    between atoms: O_9  and  C_10
REMARK    5  A    between atoms: C_10  and  C_11
REMARK    6  A    between atoms: C_14  and  S_25
REMARK    7  A    between atoms: N_15  and  C_16
REMARK    8  A    between atoms: C_16  and  C_18
REMARK    9  A    between atoms: C_16  and  C_19
REMARK   10  A    between atoms: S_25  and  C_26
REMARK   11  A    between atoms: C_26  and  C_27
REMARK   12  A    between atoms: C_27  and  C_29
REMARK   13  A    between atoms: C_30  and  N_39
REMARK   14  A    between atoms: N_31  and  C_38
REMARK   15  A    between atoms: N_34  and  C_37
REMARK                            x       y       z     vdW  Elec       q    Type
REMARK                         _______ _______ _______ _____ _____    ______ ____
ROOT
ATOM      1  C   UNL     1      -7.054  -2.603  -1.373  0.00  0.00    +0.172 A 
ATOM      2  N   UNL     1      -7.515  -3.816  -1.252  0.00  0.00    -0.130 NA
ATOM      3  N   UNL     1      -8.784  -3.787  -1.052  0.00  0.00    -0.122 NA
ATOM      4  C   UNL     1      -9.205  -2.544  -1.034  0.00  0.00    +0.193 A 
ATOM      5  N   UNL     1      -8.113  -1.749  -1.233  0.00  0.00    -0.296 N 
ENDROOT
BRANCH   5   6
ATOM      6  C   UNL     1      -8.082  -0.286  -1.289  0.00  0.00    +0.118 C 
ATOM      7  C   UNL     1      -9.463   0.268  -0.932  0.00  0.00    +0.036 C 
BRANCH   6   8
ATOM      8  C   UNL     1      -7.709   0.157  -2.680  0.00  0.00    -0.025 A 
ATOM      9  C   UNL     1      -8.531  -0.152  -3.748  0.00  0.00    +0.005 A 
ATOM     10  C   UNL     1      -8.188   0.253  -5.024  0.00  0.00    +0.000 A 
ATOM     11  C   UNL     1      -7.023   0.968  -5.233  0.00  0.00    +0.000 A 
ATOM     12  C   UNL     1      -6.201   1.277  -4.165  0.00  0.00    +0.000 A 
ATOM     13  C   UNL     1      -6.546   0.875  -2.889  0.00  0.00    +0.005 A 
ENDBRANCH   6   8
ENDBRANCH   5   6
BRANCH   1  14
ATOM     14  C   UNL     1      -5.619  -2.214  -1.616  0.00  0.00    +0.305 C 
BRANCH  14  15
ATOM     15  O   UNL     1      -4.952  -2.045  -0.364  0.00  0.00    -0.484 OA
BRANCH  15  19
ATOM     16  C   UNL     1      -0.971  -0.971  -0.489  0.00  0.00    -0.047 A 
ATOM     17  C   UNL     1      -1.599  -1.151   0.729  0.00  0.00    +0.007 A 
ATOM     18  C   UNL     1      -2.932  -1.510   0.774  0.00  0.00    +0.046 A 
ATOM     19  C   UNL     1      -3.641  -1.691  -0.405  0.00  0.00    +0.121 A 
ATOM     20  C   UNL     1      -3.008  -1.510  -1.626  0.00  0.00    +0.046 A 
ATOM     21  C   UNL     1      -1.677  -1.145  -1.666  0.00  0.00    +0.007 A 
BRANCH  16  23
ATOM     22  C   UNL     1       0.601   0.946  -0.532  0.00  0.00    +0.009 C 
ATOM     23  C   UNL     1       0.483  -0.579  -0.535  0.00  0.00    +0.032 C 
ENDBRANCH  16  23
ENDBRANCH  15  19
ENDBRANCH  14  15
ENDBRANCH   1  14
BRANCH   4  24
ATOM     24  S   UNL     1     -10.864  -2.003  -0.791  0.00  0.00    -0.078 S 
BRANCH  24  25
ATOM     25  C   UNL     1     -11.801  -3.542  -0.581  0.00  0.00    +0.157 C 
BRANCH  25  26
ATOM     26  C   UNL     1     -13.257  -3.217  -0.362  0.00  0.00    +0.182 C 
ATOM     27  O   UNL     1     -13.626  -2.060  -0.349  0.00  0.00    -0.291 OA
BRANCH  26  28
ATOM     28  C   UNL     1     -14.191  -4.258  -0.172  0.00  0.00    +0.120 A 
ATOM     29  C   UNL     1     -15.567  -3.990  -0.078  0.00  0.00    +0.116 A 
ATOM     30  N   UNL     1     -16.432  -5.030   0.105  0.00  0.00    -0.284 N 
ATOM     31  C   UNL     1     -15.993  -6.295   0.198  0.00  0.00    +0.333 A 
ATOM     32  O   UNL     1     -16.803  -7.186   0.361  0.00  0.00    -0.246 OA
ATOM     33  N   UNL     1     -14.690  -6.612   0.115  0.00  0.00    -0.263 N 
ATOM     34  C   UNL     1     -13.756  -5.657  -0.071  0.00  0.00    +0.269 A 
ATOM     35  O   UNL     1     -12.577  -5.949  -0.151  0.00  0.00    -0.267 OA
ATOM     36  C   UNL     1     -14.280  -8.014   0.224  0.00  0.00    +0.157 C 
ATOM     37  C   UNL     1     -17.869  -4.761   0.204  0.00  0.00    +0.155 C 
BRANCH  29  38
ATOM     38  N   UNL     1     -16.030  -2.713  -0.168  0.00  0.00    -0.344 N 
ATOM     39  H   UNL     1     -15.406  -1.972  -0.202  0.00  0.00    +0.144 HD
ATOM     40  H   UNL     1     -16.985  -2.545  -0.199  0.00  0.00    +0.144 HD
ENDBRANCH  29  38
ENDBRANCH  26  28
ENDBRANCH  25  26
ENDBRANCH  24  25
ENDBRANCH   4  24
TORSDOF 11
