REMARK  Name = ZINC20572174
REMARK  9 active torsions:
REMARK  status: ('A' for Active; 'I' for Inactive)
REMARK    1  A    between atoms: C_1  and  C_2
REMARK    2  A    between atoms: C_7  and  C_12
REMARK    3  A    between atoms: N_14  and  N_15
REMARK    4  A    between atoms: N_15  and  C_16
REMARK    5  A    between atoms: C_16  and  N_18
REMARK    6  A    between atoms: N_18  and  C_19
REMARK    7  A    between atoms: C_20  and  C_28
REMARK    8  A    between atoms: C_28  and  O_30
REMARK    9  A    between atoms: O_30  and  C_31
REMARK                            x       y       z     vdW  Elec       q    Type
REMARK                         _______ _______ _______ _____ _____    ______ ____
ROOT
ATOM      1  C   UNL     1      -4.815  -0.249   0.046  0.00  0.00    +0.151 C 
ATOM      2  S   UNL     1      -6.269  -1.153   0.055  0.00  0.00    -0.017 S 
ENDROOT
BRANCH   1   3
ATOM      3  N   UNL     1      -3.626  -0.885   0.031  0.00  0.00    -0.245 N 
ATOM      4  H   UNL     1      -3.591  -1.984   0.025  0.00  0.00    +0.172 HD
BRANCH   3   7
ATOM      5  C   UNL     1      -1.248  -0.781   0.009  0.00  0.00    +0.261 C 
ATOM      6  O   UNL     1      -1.209  -1.997   0.002  0.00  0.00    -0.269 OA
ATOM      7  N   UNL     1      -2.436  -0.145   0.024  0.00  0.00    -0.231 N 
ATOM      8  H   UNL     1      -2.472   0.954   0.031  0.00  0.00    +0.173 HD
BRANCH   5  14
ATOM      9  C   UNL     1       5.324  -2.218   0.034  0.00  0.00    +0.008 C 
ATOM     10  C   UNL     1       3.912  -1.710   0.335  0.00  0.00    -0.009 C 
ATOM     11  C   UNL     1       2.895  -2.497  -0.497  0.00  0.00    +0.008 C 
ATOM     12  C   UNL     1       1.476  -2.176  -0.025  0.00  0.00    +0.037 C 
ATOM     13  C   UNL     1       1.294  -0.664  -0.014  0.00  0.00    -0.025 A 
ATOM     14  C   UNL     1       0.002  -0.004   0.002  0.00  0.00    +0.049 A 
ATOM     15  C   UNL     1      -0.017   1.373   0.010  0.00  0.00    +0.058 A 
ATOM     16  S   UNL     1       1.665   1.793  -0.004  0.00  0.00    -0.101 S 
ATOM     17  C   UNL     1       2.362   0.166  -0.019  0.00  0.00    -0.006 A 
ATOM     18  C   UNL     1       3.808  -0.223  -0.034  0.00  0.00    +0.046 C 
ENDBRANCH   5  14
ENDBRANCH   3   7
ENDBRANCH   1   3
BRANCH   1  19
ATOM     19  N   UNL     1      -4.858   1.098   0.054  0.00  0.00    -0.290 N 
ATOM     20  H   UNL     1      -3.924   1.678   0.049  0.00  0.00    +0.154 HD
BRANCH  19  21
ATOM     21  C   UNL     1      -6.080   1.751   0.070  0.00  0.00    +0.086 A 
ATOM     22  C   UNL     1      -6.328   3.118   0.085  0.00  0.00    +0.091 A 
ATOM     23  C   UNL     1      -7.716   3.547   0.095  0.00  0.00    -0.021 A 
ATOM     24  C   UNL     1      -8.627   2.550   0.098  0.00  0.00    -0.004 A 
ATOM     25  S   UNL     1      -7.669   1.062   0.081  0.00  0.00    -0.077 S 
ATOM     26  C   UNL     1     -10.118   2.689   0.114  0.00  0.00    +0.043 C 
ATOM     27  C   UNL     1     -10.466   4.134   0.504  0.00  0.00    +0.005 C 
ATOM     28  C   UNL     1      -9.613   5.089  -0.336  0.00  0.00    +0.005 C 
ATOM     29  C   UNL     1      -8.151   5.008   0.106  0.00  0.00    +0.037 C 
BRANCH  22  30
ATOM     30  C   UNL     1      -5.232   4.088   0.088  0.00  0.00    +0.342 C 
ATOM     31  O   UNL     1      -4.784   4.503  -0.964  0.00  0.00    -0.245 OA
BRANCH  30  32
ATOM     32  O   UNL     1      -4.719   4.523   1.258  0.00  0.00    -0.464 OA
ATOM     33  C   UNL     1      -3.634   5.485   1.185  0.00  0.00    +0.280 C 
ENDBRANCH  30  32
ENDBRANCH  22  30
ENDBRANCH  19  21
ENDBRANCH   1  19
TORSDOF 7
