REMARK  Name = ZINC37575695
REMARK  3 active torsions:
REMARK  status: ('A' for Active; 'I' for Inactive)
REMARK    1  A    between atoms: C_4  and  N_8
REMARK    2  A    between atoms: N_8  and  S_9
REMARK    3  A    between atoms: S_9  and  C_12
REMARK                            x       y       z     vdW  Elec       q    Type
REMARK                         _______ _______ _______ _____ _____    ______ ____
ROOT
ATOM      1  S   UNL     1       3.645  -2.309  -0.047  0.00  0.00    +0.093 S 
ATOM      2  O   UNL     1       3.113  -2.729   1.202  0.00  0.00    -0.148 OA
ATOM      3  O   UNL     1       3.088  -2.716  -1.288  0.00  0.00    -0.148 OA
ENDROOT
BRANCH   1   4
ATOM      4  C   UNL     1       5.336  -2.805  -0.067  0.00  0.00    +0.124 A 
ATOM      5  C   UNL     1       5.866  -3.496   1.007  0.00  0.00    +0.031 A 
ATOM      6  C   UNL     1       7.192  -3.886   0.991  0.00  0.00    +0.017 A 
ATOM      7  C   UNL     1       7.989  -3.585  -0.099  0.00  0.00    +0.019 A 
ATOM      8  C   UNL     1       7.459  -2.894  -1.173  0.00  0.00    +0.032 A 
ATOM      9  C   UNL     1       6.131  -2.508  -1.159  0.00  0.00    +0.046 A 
ATOM     10 BR   UNL     1       5.403  -1.570  -2.631  0.00  0.00    -0.048 Br
ATOM     11 BR   UNL     1       9.803  -4.119  -0.119  0.00  0.00    -0.050 Br
ENDBRANCH   1   4
BRANCH   1  12
ATOM     12  N   UNL     1       3.622  -0.653  -0.037  0.00  0.00    -0.095 NA
BRANCH  12  16
ATOM     13  C   UNL     1      -0.017   1.379   0.010  0.00  0.00    +0.023 A 
ATOM     14  C   UNL     1       1.170   2.090   0.002  0.00  0.00    +0.042 A 
ATOM     15  C   UNL     1       2.379   1.420  -0.013  0.00  0.00    +0.148 A 
ATOM     16  C   UNL     1       2.401   0.029  -0.021  0.00  0.00    +0.111 A 
ATOM     17  C   UNL     1       1.208  -0.681  -0.013  0.00  0.00    +0.049 A 
ATOM     18  C   UNL     1       0.002  -0.004   0.002  0.00  0.00    +0.043 A 
ATOM     19 CL   UNL     1      -1.490  -0.891   0.012  0.00  0.00    -0.083 Cl
ATOM     20  F   UNL     1       3.537   2.115  -0.022  0.00  0.00    -0.203 F 
ENDBRANCH  12  16
ENDBRANCH   1  12
TORSDOF 3
