REMARK  Name = ZINC54414422
REMARK  3 active torsions:
REMARK  status: ('A' for Active; 'I' for Inactive)
REMARK    1  A    between atoms: C_3  and  N_19
REMARK    2  A    between atoms: C_4  and  N_18
REMARK    3  A    between atoms: C_6  and  C_7
REMARK                            x       y       z     vdW  Elec       q    Type
REMARK                         _______ _______ _______ _____ _____    ______ ____
ROOT
ATOM      1  C   UNL     1       0.925  -0.316   0.883  0.00  0.00    +0.015 A 
ATOM      2  C   UNL     1       2.114   0.381   0.972  0.00  0.00    +0.035 A 
ATOM      3  C   UNL     1       2.391   1.401   0.082  0.00  0.00    +0.147 A 
ATOM      4  C   UNL     1       1.474   1.732  -0.910  0.00  0.00    +0.056 A 
ATOM      5  C   UNL     1       0.278   1.039  -1.007  0.00  0.00    +0.038 A 
ATOM      6  C   UNL     1      -0.002   0.010  -0.108  0.00  0.00    +0.039 A 
ENDROOT
BRANCH   6   7
ATOM      7  C   UNL     1      -1.276  -0.735  -0.205  0.00  0.00    +0.247 C 
ATOM      8  O   UNL     1      -1.316  -1.912   0.093  0.00  0.00    -0.270 OA
ATOM      9  N   UNL     1      -2.392  -0.107  -0.626  0.00  0.00    -0.293 N 
ATOM     10  C   UNL     1      -3.639  -0.861  -0.829  0.00  0.00    +0.113 C 
ATOM     11  C   UNL     1      -4.678  -0.356   0.184  0.00  0.00    +0.061 C 
ATOM     12  C   UNL     1      -4.609   1.136   0.237  0.00  0.00    -0.004 A 
ATOM     13  C   UNL     1      -3.612   1.944  -0.216  0.00  0.00    -0.020 A 
ATOM     14  C   UNL     1      -3.788   3.315  -0.036  0.00  0.00    +0.013 A 
ATOM     15  C   UNL     1      -4.910   3.781   0.558  0.00  0.00    +0.046 A 
ATOM     16  S   UNL     1      -5.798   2.270   0.904  0.00  0.00    -0.101 S 
ATOM     17  C   UNL     1      -2.382   1.339  -0.881  0.00  0.00    +0.144 C 
ENDBRANCH   6   7
BRANCH   4  18
ATOM     18  N   UNL     1       1.759   2.764  -1.807  0.00  0.00    -0.356 N 
ATOM     19  H   UNL     1       2.640   3.169  -1.817  0.00  0.00    +0.142 HD
ATOM     20  H   UNL     1       1.075   3.076  -2.421  0.00  0.00    +0.142 HD
ENDBRANCH   4  18
BRANCH   3  21
ATOM     21  N   UNL     1       3.668   2.143   0.184  0.00  0.00    +0.058 N 
ATOM     22  O   UNL     1       4.685   1.558   0.476  0.00  0.00    -0.126 OA
ATOM     23  O   UNL     1       3.693   3.333  -0.024  0.00  0.00    -0.126 OA
ENDBRANCH   3  21
TORSDOF 3
