REMARK  Name = ZINC44935839
REMARK  11 active torsions:
REMARK  status: ('A' for Active; 'I' for Inactive)
REMARK    1  A    between atoms: C_1  and  C_2
REMARK    2  A    between atoms: C_2  and  C_3
REMARK    3  A    between atoms: C_3  and  C_5
REMARK    4  A    between atoms: C_3  and  N_12
REMARK    5  A    between atoms: C_8  and  C_11
REMARK    6  A    between atoms: C_13  and  C_15
REMARK    7  A    between atoms: C_18  and  C_21
REMARK    8  A    between atoms: C_21  and  N_22
REMARK    9  A    between atoms: N_25  and  S_28
REMARK   10  A    between atoms: S_28  and  C_31
REMARK   11  A    between atoms: C_34  and  C_37
REMARK                            x       y       z     vdW  Elec       q    Type
REMARK                         _______ _______ _______ _____ _____    ______ ____
ROOT
ATOM      1  C   UNL     1      -3.318   1.422   2.672  0.00  0.00    +0.037 A 
ATOM      2  C   UNL     1      -3.329   0.529   3.744  0.00  0.00    +0.013 A 
ATOM      3  C   UNL     1      -3.941   0.886   4.928  0.00  0.00    +0.005 A 
ATOM      4  C   UNL     1      -4.543   2.126   5.054  0.00  0.00    -0.033 A 
ATOM      5  C   UNL     1      -4.535   3.015   3.994  0.00  0.00    +0.005 A 
ATOM      6  C   UNL     1      -3.922   2.674   2.807  0.00  0.00    +0.013 A 
ENDROOT
BRANCH   1   8
ATOM      7  N   UNL     1      -2.082  -0.162   1.273  0.00  0.00    -0.305 N 
ATOM      8  C   UNL     1      -2.664   1.047   1.400  0.00  0.00    +0.245 C 
ATOM      9  O   UNL     1      -2.651   1.829   0.469  0.00  0.00    -0.270 OA
ATOM     10  H   UNL     1      -2.092  -0.785   2.016  0.00  0.00    +0.150 HD
BRANCH   7  11
ATOM     11  C   UNL     1      -1.433  -0.534   0.013  0.00  0.00    +0.103 C 
BRANCH  11  12
ATOM     12  C   UNL     1      -1.416  -2.035  -0.119  0.00  0.00    -0.027 A 
ATOM     13  C   UNL     1      -1.159  -2.823   0.987  0.00  0.00    +0.006 A 
ATOM     14  C   UNL     1      -1.143  -4.200   0.866  0.00  0.00    +0.004 A 
ATOM     15  C   UNL     1      -1.385  -4.789  -0.361  0.00  0.00    -0.050 A 
ATOM     16  C   UNL     1      -1.642  -4.000  -1.467  0.00  0.00    +0.004 A 
ATOM     17  C   UNL     1      -1.662  -2.624  -1.345  0.00  0.00    +0.006 A 
ATOM     18  C   UNL     1      -1.366  -6.290  -0.494  0.00  0.00    +0.044 C 
ENDBRANCH  11  12
BRANCH  11  20
ATOM     19  C   UNL     1      -0.019   1.526   0.010  0.00  0.00    +0.006 C 
ATOM     20  C   UNL     1       0.002  -0.004   0.002  0.00  0.00    +0.024 C 
ENDBRANCH  11  20
ENDBRANCH   7  11
ENDBRANCH   1   8
BRANCH   4  21
ATOM     21  C   UNL     1      -5.210   2.508   6.350  0.00  0.00    +0.119 C 
BRANCH  21  22
ATOM     22  N   UNL     1      -4.232   3.166   7.228  0.00  0.00    -0.296 NA
ATOM     23  C   UNL     1      -3.175   2.230   7.633  0.00  0.00    +0.102 C 
ATOM     24  C   UNL     1      -2.086   2.993   8.394  0.00  0.00    +0.125 C 
ATOM     25  N   UNL     1      -2.717   3.734   9.496  0.00  0.00    -0.174 NA
ATOM     26  C   UNL     1      -3.873   4.589   9.188  0.00  0.00    +0.125 C 
ATOM     27  C   UNL     1      -4.893   3.763   8.396  0.00  0.00    +0.102 C 
BRANCH  25  28
ATOM     28  S   UNL     1      -2.141   3.609  11.044  0.00  0.00    +0.061 S 
ATOM     29  O   UNL     1      -3.220   3.940  11.907  0.00  0.00    -0.153 OA
ATOM     30  O   UNL     1      -1.456   2.366  11.123  0.00  0.00    -0.153 OA
BRANCH  28  31
ATOM     31  C   UNL     1      -0.926   4.868  11.251  0.00  0.00    +0.105 A 
ATOM     32  C   UNL     1       0.398   4.607  10.950  0.00  0.00    +0.029 A 
ATOM     33  C   UNL     1       1.351   5.595  11.112  0.00  0.00    +0.005 A 
ATOM     34  C   UNL     1       0.981   6.843  11.575  0.00  0.00    -0.050 A 
ATOM     35  C   UNL     1      -0.343   7.104  11.875  0.00  0.00    +0.005 A 
ATOM     36  C   UNL     1      -1.297   6.118  11.709  0.00  0.00    +0.029 A 
ATOM     37  C   UNL     1       2.021   7.920  11.753  0.00  0.00    +0.044 C 
ENDBRANCH  28  31
ENDBRANCH  25  28
ENDBRANCH  21  22
ENDBRANCH   4  21
TORSDOF 8
