REMARK  Name = ZINC40404627
REMARK  18 active torsions:
REMARK  status: ('A' for Active; 'I' for Inactive)
REMARK    1  A    between atoms: C_1  and  C_2
REMARK    2  A    between atoms: C_2  and  C_3
REMARK    3  A    between atoms: C_2  and  C_4
REMARK    4  A    between atoms: C_4  and  O_5
REMARK    5  A    between atoms: O_5  and  C_6
REMARK    6  A    between atoms: C_6  and  C_7
REMARK    7  A    between atoms: C_7  and  C_9
REMARK    8  A    between atoms: C_7  and  O_39
REMARK    9  A    between atoms: C_9  and  N_10
REMARK   10  A    between atoms: N_10  and  C_11
REMARK   11  A    between atoms: N_10  and  C_17
REMARK   12  A    between atoms: C_11  and  C_12
REMARK   13  A    between atoms: C_17  and  C_18
REMARK   14  A    between atoms: C_24  and  C_29
REMARK   15  A    between atoms: C_32  and  O_37
REMARK   16  A    between atoms: C_33  and  O_35
REMARK   17  A    between atoms: O_35  and  C_36
REMARK   18  A    between atoms: O_37  and  C_38
REMARK                            x       y       z     vdW  Elec       q    Type
REMARK                         _______ _______ _______ _____ _____    ______ ____
ROOT
ATOM      1  C   UNL     1      -0.646   0.194   9.599  0.00  0.00    +0.094 A 
ATOM      2  N   UNL     1      -0.200   0.085  10.877  0.00  0.00    -0.312 N 
ATOM      3  H   UNL     1       0.672  -0.304  11.044  0.00  0.00    +0.170 HD
ATOM      4  C   UNL     1      -0.945   0.506  11.916  0.00  0.00    +0.260 A 
ATOM      5  O   UNL     1      -0.530   0.402  13.057  0.00  0.00    -0.267 OA
ATOM      6  C   UNL     1      -2.231   1.079  11.660  0.00  0.00    +0.080 A 
ATOM      7  C   UNL     1      -3.212   1.603  12.603  0.00  0.00    +0.004 A 
ATOM      8  C   UNL     1      -4.376   2.103  12.123  0.00  0.00    +0.056 A 
ATOM      9  S   UNL     1      -4.217   1.897  10.359  0.00  0.00    -0.076 S 
ATOM     10  C   UNL     1      -2.608   1.151  10.309  0.00  0.00    +0.116 A 
ATOM     11  N   UNL     1      -1.813   0.717   9.334  0.00  0.00    -0.229 NA
ENDROOT
BRANCH   7  12
ATOM     12  C   UNL     1      -2.942   1.587  14.061  0.00  0.00    -0.013 A 
ATOM     13  C   UNL     1      -2.505   0.416  14.678  0.00  0.00    +0.012 A 
ATOM     14  C   UNL     1      -2.253   0.402  16.035  0.00  0.00    +0.050 A 
ATOM     15  C   UNL     1      -2.434   1.552  16.787  0.00  0.00    +0.162 A 
ATOM     16  C   UNL     1      -2.870   2.725  16.177  0.00  0.00    +0.162 A 
ATOM     17  C   UNL     1      -3.119   2.746  14.816  0.00  0.00    +0.058 A 
BRANCH  16  18
ATOM     18  O   UNL     1      -3.047   3.852  16.917  0.00  0.00    -0.491 OA
ATOM     19  C   UNL     1      -3.496   5.019  16.226  0.00  0.00    +0.277 C 
ENDBRANCH  16  18
BRANCH  15  20
ATOM     20  O   UNL     1      -2.186   1.535  18.125  0.00  0.00    -0.491 OA
ATOM     21  C   UNL     1      -1.742   0.298  18.686  0.00  0.00    +0.277 C 
ENDBRANCH  15  20
ENDBRANCH   7  12
BRANCH   1  22
ATOM     22  C   UNL     1       0.223  -0.290   8.468  0.00  0.00    -0.003 C 
BRANCH  22  23
ATOM     23  N   UNL     1      -0.465  -0.063   7.190  0.00  0.00    +0.391 N 
ATOM     24  H   UNL     1      -1.379  -0.487   7.220  0.00  0.00    -0.080 HD
BRANCH  23  25
ATOM     25  C   UNL     1       0.317  -0.660   6.099  0.00  0.00    -0.044 C 
BRANCH  25  26
ATOM     26  C   UNL     1       0.295  -2.184   6.231  0.00  0.00    +0.124 C 
BRANCH  26  27
ATOM     27  O   UNL     1       1.036  -2.573   7.389  0.00  0.00    -0.391 OA
ATOM     28  H   UNL     1       1.964  -2.302   7.371  0.00  0.00    +0.210 HD
ENDBRANCH  26  27
BRANCH  26  29
ATOM     29  C   UNL     1       0.925  -2.814   4.987  0.00  0.00    +0.189 C 
BRANCH  29  30
ATOM     30  O   UNL     1       0.799  -4.235   5.057  0.00  0.00    -0.377 OA
BRANCH  30  31
ATOM     31  C   UNL     1       1.359  -4.924   3.937  0.00  0.00    +0.163 C 
BRANCH  31  33
ATOM     32  C   UNL     1      -0.326  -6.763   4.091  0.00  0.00    +0.009 C 
ATOM     33  C   UNL     1       1.168  -6.431   4.117  0.00  0.00    +0.009 C 
ATOM     34  C   UNL     1       1.875  -7.174   2.982  0.00  0.00    +0.009 C 
ENDBRANCH  31  33
ENDBRANCH  30  31
ENDBRANCH  29  30
ENDBRANCH  26  29
ENDBRANCH  25  26
ENDBRANCH  23  25
BRANCH  23  35
ATOM     35  C   UNL     1      -0.603   1.381   6.959  0.00  0.00    -0.002 C 
BRANCH  35  36
ATOM     36  C   UNL     1      -1.433   1.615   5.723  0.00  0.00    +0.089 A 
ATOM     37  C   UNL     1      -2.759   1.842   5.698  0.00  0.00    +0.042 A 
ATOM     38  C   UNL     1      -3.121   2.006   4.341  0.00  0.00    +0.041 A 
ATOM     39  C   UNL     1      -1.994   1.869   3.618  0.00  0.00    +0.195 A 
ATOM     40  O   UNL     1      -0.975   1.638   4.461  0.00  0.00    -0.470 OA
ENDBRANCH  35  36
ENDBRANCH  23  35
ENDBRANCH  22  23
ENDBRANCH   1  22
TORSDOF 14
