REMARK  Name = ZINC00755278
REMARK  10 active torsions:
REMARK  status: ('A' for Active; 'I' for Inactive)
REMARK    1  A    between atoms: C_1  and  C_2
REMARK    2  A    between atoms: C_2  and  C_3
REMARK    3  A    between atoms: C_2  and  C_4
REMARK    4  A    between atoms: C_2  and  C_5
REMARK    5  A    between atoms: N_16  and  C_24
REMARK    6  A    between atoms: C_17  and  S_19
REMARK    7  A    between atoms: S_19  and  C_20
REMARK    8  A    between atoms: C_20  and  C_21
REMARK    9  A    between atoms: C_27  and  O_30
REMARK   10  A    between atoms: O_30  and  C_31
REMARK                            x       y       z     vdW  Elec       q    Type
REMARK                         _______ _______ _______ _____ _____    ______ ____
ROOT
ATOM      1  C   UNL     1       0.394   0.575  -2.742  0.00  0.00    -0.000 C 
ATOM      2  C   UNL     1       0.046  -0.916  -2.755  0.00  0.00    +0.009 C 
ATOM      3  C   UNL     1       0.827  -1.623  -3.861  0.00  0.00    +0.037 C 
ATOM      4  C   UNL     1       2.310  -1.294  -3.712  0.00  0.00    -0.023 A 
ATOM      5  C   UNL     1       2.708  -0.229  -2.979  0.00  0.00    -0.004 A 
ATOM      6  S   UNL     1       4.480  -0.231  -3.079  0.00  0.00    -0.073 S 
ATOM      7  C   UNL     1       4.685  -1.657  -4.099  0.00  0.00    +0.117 A 
ATOM      8  C   UNL     1       3.359  -2.088  -4.331  0.00  0.00    +0.076 A 
ATOM      9  C   UNL     1       3.182  -3.253  -5.146  0.00  0.00    +0.268 A 
ATOM     10  O   UNL     1       2.077  -3.702  -5.403  0.00  0.00    -0.267 OA
ATOM     11  N   UNL     1       4.316  -3.826  -5.613  0.00  0.00    -0.255 N 
ATOM     12  C   UNL     1       5.560  -3.340  -5.338  0.00  0.00    +0.178 A 
ATOM     13  N   UNL     1       5.758  -2.265  -4.588  0.00  0.00    -0.215 NA
ATOM     14  C   UNL     1       1.836   0.742  -2.244  0.00  0.00    +0.046 C 
ENDROOT
BRANCH  11  15
ATOM     15  C   UNL     1       4.207  -4.971  -6.416  0.00  0.00    +0.052 A 
ATOM     16  C   UNL     1       4.096  -4.844  -7.794  0.00  0.00    +0.030 A 
ATOM     17  C   UNL     1       3.993  -5.972  -8.585  0.00  0.00    +0.047 A 
ATOM     18  C   UNL     1       3.990  -7.230  -8.001  0.00  0.00    +0.120 A 
ATOM     19  C   UNL     1       4.096  -7.357  -6.624  0.00  0.00    +0.047 A 
ATOM     20  C   UNL     1       4.204  -6.231  -5.833  0.00  0.00    +0.030 A 
BRANCH  18  21
ATOM     21  O   UNL     1       3.883  -8.340  -8.779  0.00  0.00    -0.495 OA
ATOM     22  C   UNL     1       3.778  -8.135 -10.190  0.00  0.00    +0.277 C 
ENDBRANCH  18  21
ENDBRANCH  11  15
BRANCH   1  24
ATOM     23  C   UNL     1      -0.206   2.805  -1.788  0.00  0.00    +0.011 C 
ATOM     24  C   UNL     1      -0.562   1.317  -1.805  0.00  0.00    -0.035 C 
ATOM     25  C   UNL     1      -0.435   0.747  -0.391  0.00  0.00    +0.011 C 
ATOM     26  C   UNL     1      -1.999   1.142  -2.298  0.00  0.00    +0.011 C 
ENDBRANCH   1  24
BRANCH  12  27
ATOM     27  S   UNL     1       6.960  -4.175  -6.006  0.00  0.00    -0.078 S 
BRANCH  27  28
ATOM     28  C   UNL     1       8.289  -3.138  -5.345  0.00  0.00    +0.172 C 
BRANCH  28  29
ATOM     29  C   UNL     1       9.620  -3.678  -5.800  0.00  0.00    +0.221 C 
ATOM     30  O   UNL     1       9.666  -4.666  -6.502  0.00  0.00    -0.275 OA
ATOM     31  N   UNL     1      10.760  -3.062  -5.428  0.00  0.00    -0.329 N 
ATOM     32  H   UNL     1      10.723  -2.272  -4.867  0.00  0.00    +0.145 HD
ATOM     33  H   UNL     1      11.617  -3.410  -5.720  0.00  0.00    +0.145 HD
ENDBRANCH  28  29
ENDBRANCH  27  28
ENDBRANCH  12  27
TORSDOF 6
