REMARK  Name = ZINC04713095
REMARK  3 active torsions:
REMARK  status: ('A' for Active; 'I' for Inactive)
REMARK    1  A    between atoms: C_4  and  C_7
REMARK    2  A    between atoms: N_13  and  N_14
REMARK    3  A    between atoms: C_15  and  C_16
REMARK                            x       y       z     vdW  Elec       q    Type
REMARK                         _______ _______ _______ _____ _____    ______ ____
ROOT
ATOM      1  C   UNL     1       3.703  -0.685   0.013  0.00  0.00    +0.018 A 
ATOM      2  C   UNL     1       4.912   0.014  -0.002  0.00  0.00    +0.124 A 
ATOM      3  N   UNL     1       6.045  -0.665  -0.028  0.00  0.00    -0.221 NA
ATOM      4  C   UNL     1       6.043  -1.991  -0.041  0.00  0.00    +0.233 A 
ATOM      5  N   UNL     1       4.917  -2.689  -0.028  0.00  0.00    -0.221 NA
ATOM      6  C   UNL     1       3.744  -2.082   0.004  0.00  0.00    +0.124 A 
ATOM      7  N   UNL     1       7.252  -2.664  -0.069  0.00  0.00    -0.228 N 
ATOM      8  H   UNL     1       8.084  -2.167  -0.080  0.00  0.00    +0.175 HD
ENDROOT
BRANCH   1  12
ATOM      9  C   UNL     1      -0.011   1.385   0.099  0.00  0.00    +0.000 A 
ATOM     10  C   UNL     1       1.175   2.097   0.080  0.00  0.00    +0.001 A 
ATOM     11  C   UNL     1       2.383   1.430   0.052  0.00  0.00    +0.008 A 
ATOM     12  C   UNL     1       2.407   0.037   0.043  0.00  0.00    -0.015 A 
ATOM     13  C   UNL     1       1.209  -0.675   0.063  0.00  0.00    +0.008 A 
ATOM     14  C   UNL     1       0.007   0.002   0.090  0.00  0.00    +0.001 A 
ENDBRANCH   1  12
BRANCH   7  15
ATOM     15  N   UNL     1       7.272  -4.065  -0.083  0.00  0.00    -0.311 N 
ATOM     16  C   UNL     1       8.450  -4.722  -0.111  0.00  0.00    +0.111 C 
ATOM     17  H   UNL     1       6.440  -4.563  -0.073  0.00  0.00    +0.184 HD
BRANCH  16  18
ATOM     18  C   UNL     1       8.475  -6.104  -0.019  0.00  0.00    +0.047 A 
ATOM     19  C   UNL     1       9.748  -6.837   0.082  0.00  0.00    -0.006 A 
ATOM     20  C   UNL     1      10.969  -6.163   0.090  0.00  0.00    +0.009 A 
ATOM     21  C   UNL     1      12.140  -6.880   0.186  0.00  0.00    +0.001 A 
ATOM     22  C   UNL     1      12.114  -8.266   0.276  0.00  0.00    +0.001 A 
ATOM     23  C   UNL     1      10.932  -8.947   0.271  0.00  0.00    +0.008 A 
ATOM     24  C   UNL     1       9.721  -8.245   0.174  0.00  0.00    -0.017 A 
ATOM     25  C   UNL     1       8.487  -8.937   0.168  0.00  0.00    +0.012 A 
ATOM     26  C   UNL     1       7.306  -8.294   0.076  0.00  0.00    +0.052 A 
ATOM     27  C   UNL     1       7.232  -6.886  -0.014  0.00  0.00    +0.188 A 
ATOM     28  O   UNL     1       6.149  -6.327  -0.091  0.00  0.00    -0.287 OA
ENDBRANCH  16  18
ENDBRANCH   7  15
TORSDOF 3
