REMARK  Name = ZINC32860139
REMARK  11 active torsions:
REMARK  status: ('A' for Active; 'I' for Inactive)
REMARK    1  A    between atoms: C_1  and  C_2
REMARK    2  A    between atoms: C_15  and  C_17
REMARK    3  A    between atoms: C_17  and  N_18
REMARK    4  A    between atoms: N_18  and  C_19
REMARK    5  A    between atoms: N_18  and  C_20
REMARK    6  A    between atoms: C_20  and  C_22
REMARK    7  A    between atoms: C_20  and  C_23
REMARK    8  A    between atoms: N_25  and  C_26
REMARK    9  A    between atoms: C_29  and  C_32
REMARK   10  A    between atoms: C_32  and  C_33
REMARK   11  A    between atoms: C_32  and  C_34
REMARK                            x       y       z     vdW  Elec       q    Type
REMARK                         _______ _______ _______ _____ _____    ______ ____
ROOT
ATOM      1  N   UNL     1      -3.261   6.179   6.301  0.00  0.00    +0.391 N 
ATOM      2  C   UNL     1      -1.869   6.647   6.255  0.00  0.00    -0.094 C 
ATOM      3  H   UNL     1      -3.780   6.576   5.416  0.00  0.00    -0.080 HD
ENDROOT
BRANCH   1   4
ATOM      4  C   UNL     1      -3.325   4.713   6.243  0.00  0.00    +0.017 C 
ATOM      5  C   UNL     1      -2.547   4.121   7.420  0.00  0.00    -0.004 C 
BRANCH   4   6
ATOM      6  C   UNL     1      -2.719   4.234   4.949  0.00  0.00    +0.203 C 
ATOM      7  O   UNL     1      -2.277   5.036   4.153  0.00  0.00    -0.277 OA
ATOM      8  N   UNL     1      -2.668   2.915   4.676  0.00  0.00    -0.287 N 
ATOM      9  H   UNL     1      -3.137   2.193   5.361  0.00  0.00    +0.155 HD
BRANCH   8  10
ATOM     10  C   UNL     1      -2.019   2.465   3.521  0.00  0.00    +0.033 A 
ATOM     11  C   UNL     1      -2.068   3.219   2.356  0.00  0.00    +0.023 A 
ATOM     12  C   UNL     1      -1.427   2.772   1.217  0.00  0.00    +0.006 A 
ATOM     13  C   UNL     1      -0.736   1.574   1.237  0.00  0.00    -0.045 A 
ATOM     14  C   UNL     1      -0.689   0.818   2.394  0.00  0.00    +0.006 A 
ATOM     15  C   UNL     1      -1.325   1.262   3.537  0.00  0.00    +0.023 A 
BRANCH  13  16
ATOM     16  C   UNL     1      -0.036   1.089  -0.007  0.00  0.00    +0.013 C 
ATOM     17  C   UNL     1      -0.613  -0.266  -0.420  0.00  0.00    +0.012 C 
ATOM     18  C   UNL     1       1.460   0.942   0.274  0.00  0.00    +0.012 C 
ENDBRANCH  13  16
ENDBRANCH   8  10
ENDBRANCH   4   6
ENDBRANCH   1   4
BRANCH   1  19
ATOM     19  C   UNL     1      -3.949   6.689   7.494  0.00  0.00    +0.020 C 
BRANCH  19  33
ATOM     20  C   UNL     1      -6.244  10.691   7.903  0.00  0.00    +0.029 C 
ATOM     21  C   UNL     1      -4.812  10.333   8.309  0.00  0.00    +0.087 C 
ATOM     22  C   UNL     1      -4.500  10.957   9.670  0.00  0.00    +0.118 C 
ATOM     23  C   UNL     1      -3.278  10.311  10.268  0.00  0.00    +0.219 C 
ATOM     24  O   UNL     1      -2.221  10.907  10.267  0.00  0.00    -0.275 OA
ATOM     25  N   UNL     1      -3.350   9.073  10.806  0.00  0.00    -0.284 N 
ATOM     26  C   UNL     1      -4.537   8.335  10.737  0.00  0.00    +0.055 A 
ATOM     27  C   UNL     1      -5.061   7.722  11.863  0.00  0.00    +0.025 A 
ATOM     28  C   UNL     1      -6.219   6.972  11.761  0.00  0.00    +0.002 A 
ATOM     29  C   UNL     1      -6.853   6.832  10.540  0.00  0.00    +0.002 A 
ATOM     30  C   UNL     1      -6.343   7.452   9.414  0.00  0.00    +0.025 A 
ATOM     31  C   UNL     1      -5.196   8.216   9.508  0.00  0.00    +0.058 A 
ATOM     32  N   UNL     1      -4.679   8.878   8.387  0.00  0.00    -0.268 N 
ATOM     33  C   UNL     1      -4.077   8.188   7.398  0.00  0.00    +0.204 C 
ATOM     34  O   UNL     1      -3.639   8.773   6.430  0.00  0.00    -0.277 OA
ATOM     35  H   UNL     1      -2.470   8.637  11.302  0.00  0.00    +0.155 HD
ENDBRANCH  19  33
ENDBRANCH   1  19
TORSDOF 6
