REMARK  Name = ZINC39510372
REMARK  5 active torsions:
REMARK  status: ('A' for Active; 'I' for Inactive)
REMARK    1  A    between atoms: C_1  and  O_2
REMARK    2  A    between atoms: O_2  and  N_3
REMARK    3  A    between atoms: C_7  and  O_22
REMARK    4  A    between atoms: C_12  and  C_15
REMARK    5  A    between atoms: C_20  and  O_21
REMARK                            x       y       z     vdW  Elec       q    Type
REMARK                         _______ _______ _______ _____ _____    ______ ____
ROOT
ATOM      1  N   UNL     1      -1.326  -0.617   0.011  0.00  0.00    -0.180 NA
ATOM      2  C   UNL     1      -1.542  -1.386   1.244  0.00  0.00    +0.115 C 
ATOM      3  C   UNL     1      -2.983  -1.902   1.279  0.00  0.00    +0.020 C 
ATOM      4  C   UNL     1      -3.232  -2.792   0.058  0.00  0.00    +0.034 C 
ATOM      5  C   UNL     1      -2.958  -1.986  -1.215  0.00  0.00    +0.137 C 
ATOM      6  C   UNL     1      -1.528  -1.452  -1.176  0.00  0.00    +0.073 C 
ATOM      7  C   UNL     1      -1.235  -0.639  -2.446  0.00  0.00    +0.028 C 
ATOM      8  C   UNL     1      -0.070  -1.353  -3.164  0.00  0.00    +0.010 C 
ATOM      9  C   UNL     1       0.645  -2.141  -2.038  0.00  0.00    +0.025 C 
ATOM     10  C   UNL     1      -0.534  -2.629  -1.160  0.00  0.00    +0.035 C 
ENDROOT
BRANCH   9  11
ATOM     11  C   UNL     1       1.411  -3.308  -2.607  0.00  0.00    -0.003 A 
ATOM     12  C   UNL     1       0.752  -4.277  -3.339  0.00  0.00    +0.007 A 
ATOM     13  C   UNL     1       1.454  -5.348  -3.860  0.00  0.00    +0.001 A 
ATOM     14  C   UNL     1       2.817  -5.452  -3.651  0.00  0.00    +0.004 A 
ATOM     15  C   UNL     1       3.480  -4.485  -2.920  0.00  0.00    +0.046 A 
ATOM     16  C   UNL     1       2.779  -3.407  -2.400  0.00  0.00    +0.120 A 
BRANCH  16  17
ATOM     17  O   UNL     1       3.430  -2.452  -1.686  0.00  0.00    -0.506 OA
ATOM     18  H   UNL     1       3.473  -2.632  -0.737  0.00  0.00    +0.292 HD
ENDBRANCH  16  17
ENDBRANCH   9  11
BRANCH   1  20
ATOM     19  C   UNL     1      -0.017   1.425   0.010  0.00  0.00    +0.221 C 
ATOM     20  O   UNL     1       0.002  -0.004   0.002  0.00  0.00    -0.300 OA
ENDBRANCH   1  20
BRANCH   5  21
ATOM     21  O   UNL     1      -3.874  -0.892  -1.294  0.00  0.00    -0.390 OA
ATOM     22  H   UNL     1      -4.803  -1.158  -1.320  0.00  0.00    +0.210 HD
ENDBRANCH   5  21
TORSDOF 4
