REMARK  Name = ZINC12890947
REMARK  7 active torsions:
REMARK  status: ('A' for Active; 'I' for Inactive)
REMARK    1  A    between atoms: C_1  and  C_2
REMARK    2  A    between atoms: C_5  and  S_8
REMARK    3  A    between atoms: S_8  and  N_11
REMARK    4  A    between atoms: C_16  and  C_18
REMARK    5  A    between atoms: N_20  and  C_21
REMARK    6  A    between atoms: C_24  and  C_27
REMARK    7  A    between atoms: C_30  and  C_32
REMARK                            x       y       z     vdW  Elec       q    Type
REMARK                         _______ _______ _______ _____ _____    ______ ____
ROOT
ATOM      1  N   UNL     1      -2.405   8.389   0.140  0.00  0.00    -0.165 NA
ATOM      2  C   UNL     1      -2.563   9.838  -0.047  0.00  0.00    +0.110 C 
ATOM      3  C   UNL     1      -1.835  10.255  -1.329  0.00  0.00    +0.017 C 
ATOM      4  C   UNL     1      -0.380   9.785  -1.260  0.00  0.00    +0.003 C 
ATOM      5  C   UNL     1      -0.339   8.259  -1.156  0.00  0.00    +0.030 C 
ATOM      6  C   UNL     1      -1.051   7.819   0.127  0.00  0.00    +0.166 C 
ENDROOT
BRANCH   6   7
ATOM      7  C   UNL     1      -1.135   6.315   0.168  0.00  0.00    +0.236 C 
ATOM      8  O   UNL     1      -1.409   5.695  -0.838  0.00  0.00    -0.274 OA
ATOM      9  N   UNL     1      -0.906   5.658   1.322  0.00  0.00    -0.284 N 
ATOM     10  H   UNL     1      -0.753   6.155   2.141  0.00  0.00    +0.155 HD
BRANCH   9  11
ATOM     11  C   UNL     1      -0.888   4.259   1.340  0.00  0.00    +0.033 A 
ATOM     12  C   UNL     1      -0.443   3.558   0.226  0.00  0.00    +0.024 A 
ATOM     13  C   UNL     1      -0.424   2.179   0.241  0.00  0.00    +0.012 A 
ATOM     14  C   UNL     1      -0.851   1.489   1.374  0.00  0.00    +0.004 A 
ATOM     15  C   UNL     1      -1.303   2.195   2.488  0.00  0.00    +0.012 A 
ATOM     16  C   UNL     1      -1.315   3.574   2.470  0.00  0.00    +0.024 A 
BRANCH  14  17
ATOM     17  C   UNL     1      -0.832   0.006   1.393  0.00  0.00    +0.109 A 
ATOM     18  C   UNL     1      -1.211  -0.790   2.423  0.00  0.00    +0.225 A 
ATOM     19  O   UNL     1      -1.037  -2.063   2.020  0.00  0.00    -0.448 OA
ATOM     20  C   UNL     1      -0.552  -2.039   0.771  0.00  0.00    +0.193 A 
ATOM     21  N   UNL     1      -0.426  -0.803   0.388  0.00  0.00    -0.214 NA
ATOM     22  C   UNL     1      -0.208  -3.251  -0.056  0.00  0.00    +0.109 C 
ENDBRANCH  14  17
ENDBRANCH   9  11
ENDBRANCH   6   7
BRANCH   1  23
ATOM     23  S   UNL     1      -3.728   7.416   0.355  0.00  0.00    +0.062 S 
ATOM     24  O   UNL     1      -3.245   6.182   0.870  0.00  0.00    -0.153 OA
ATOM     25  O   UNL     1      -4.700   8.197   1.036  0.00  0.00    -0.153 OA
BRANCH  23  30
ATOM     26  C   UNL     1      -5.986   6.236  -5.114  0.00  0.00    +0.044 C 
ATOM     27  C   UNL     1      -5.422   6.530  -3.748  0.00  0.00    -0.050 A 
ATOM     28  C   UNL     1      -4.464   5.697  -3.201  0.00  0.00    +0.005 A 
ATOM     29  C   UNL     1      -3.947   5.968  -1.948  0.00  0.00    +0.029 A 
ATOM     30  C   UNL     1      -4.387   7.071  -1.242  0.00  0.00    +0.106 A 
ATOM     31  C   UNL     1      -5.349   7.901  -1.786  0.00  0.00    +0.029 A 
ATOM     32  C   UNL     1      -5.864   7.633  -3.041  0.00  0.00    +0.005 A 
ENDBRANCH  23  30
ENDBRANCH   1  23
TORSDOF 5
