REMARK  Name = ZINC39510108
REMARK  7 active torsions:
REMARK  status: ('A' for Active; 'I' for Inactive)
REMARK    1  A    between atoms: C_1  and  C_2
REMARK    2  A    between atoms: C_3  and  C_10
REMARK    3  A    between atoms: N_6  and  C_8
REMARK    4  A    between atoms: C_10  and  N_11
REMARK    5  A    between atoms: C_24  and  C_26
REMARK    6  A    between atoms: C_30  and  O_32
REMARK    7  A    between atoms: O_32  and  C_33
REMARK                            x       y       z     vdW  Elec       q    Type
REMARK                         _______ _______ _______ _____ _____    ______ ____
ROOT
ATOM      1  N   UNL     1      -3.007  -0.140  -1.507  0.00  0.00    +0.391 N 
ATOM      2  C   UNL     1      -2.400   0.892  -2.358  0.00  0.00    -0.072 C 
ATOM      3  C   UNL     1      -2.841   0.681  -3.813  0.00  0.00    +0.019 C 
ATOM      4  C   UNL     1      -4.341   0.526  -3.823  0.00  0.00    -0.022 A 
ATOM      5  C   UNL     1      -5.267   0.605  -4.929  0.00  0.00    +0.003 A 
ATOM      6  C   UNL     1      -5.098   0.838  -6.298  0.00  0.00    +0.010 A 
ATOM      7  C   UNL     1      -6.231   0.843  -7.073  0.00  0.00    +0.001 A 
ATOM      8  C   UNL     1      -7.490   0.629  -6.537  0.00  0.00    +0.002 A 
ATOM      9  C   UNL     1      -7.688   0.396  -5.186  0.00  0.00    +0.026 A 
ATOM     10  C   UNL     1      -6.556   0.385  -4.375  0.00  0.00    +0.047 A 
ATOM     11  N   UNL     1      -6.394   0.191  -3.033  0.00  0.00    -0.359 N 
ATOM     12  C   UNL     1      -5.068   0.276  -2.709  0.00  0.00    +0.011 A 
ATOM     13  H   UNL     1      -7.112   0.019  -2.403  0.00  0.00    +0.166 HD
ATOM     14  C   UNL     1      -4.446   0.119  -1.342  0.00  0.00    +0.011 C 
ATOM     15  H   UNL     1      -2.878  -1.044  -1.936  0.00  0.00    -0.080 HD
ENDROOT
BRANCH  14  16
ATOM     16  C   UNL     1      -4.644   1.385  -0.549  0.00  0.00    -0.052 A 
ATOM     17  C   UNL     1      -4.494   2.615  -1.163  0.00  0.00    +0.005 A 
ATOM     18  C   UNL     1      -4.675   3.779  -0.438  0.00  0.00    +0.042 A 
ATOM     19  C   UNL     1      -5.006   3.715   0.903  0.00  0.00    +0.165 A 
ATOM     20  C   UNL     1      -5.158   2.480   1.521  0.00  0.00    +0.155 A 
ATOM     21  C   UNL     1      -4.981   1.315   0.789  0.00  0.00    +0.051 A 
ATOM     22  F   UNL     1      -5.183   4.852   1.611  0.00  0.00    -0.202 F 
BRANCH  20  23
ATOM     23  O   UNL     1      -5.484   2.413   2.839  0.00  0.00    -0.492 OA
ATOM     24  C   UNL     1      -5.623   1.110   3.408  0.00  0.00    +0.277 C 
ENDBRANCH  20  23
ENDBRANCH  14  16
BRANCH   1  25
ATOM     25  C   UNL     1      -2.357  -0.129  -0.190  0.00  0.00    -0.042 C 
BRANCH  25  28
ATOM     26  C   UNL     1      -0.003   1.808  -0.473  0.00  0.00    +0.061 C 
ATOM     27  C   UNL     1       0.115   0.306  -0.464  0.00  0.00    +0.016 C 
ATOM     28  C   UNL     1      -0.908  -0.515  -0.342  0.00  0.00    -0.035 C 
ATOM     29  C   UNL     1      -0.348  -1.921  -0.383  0.00  0.00    +0.192 C 
ATOM     30  N   UNL     1       1.107  -1.728  -0.543  0.00  0.00    -0.211 NA
ATOM     31  N   UNL     1       1.308  -0.379  -0.590  0.00  0.00    -0.281 N 
ATOM     32  C   UNL     1       1.845  -2.337   0.572  0.00  0.00    +0.129 C 
ATOM     33 CL   UNL     1      -0.707  -2.788   1.157  0.00  0.00    -0.098 Cl
ATOM     34  H   UNL     1       2.175   0.044  -0.695  0.00  0.00    +0.166 HD
ENDBRANCH  25  28
ENDBRANCH   1  25
TORSDOF 4
