REMARK  Name = ZINC35453299
REMARK  4 active torsions:
REMARK  status: ('A' for Active; 'I' for Inactive)
REMARK    1  A    between atoms: C_1  and  N_2
REMARK    2  A    between atoms: C_9  and  C_11
REMARK    3  A    between atoms: C_13  and  C_16
REMARK    4  A    between atoms: C_16  and  C_17
REMARK                            x       y       z     vdW  Elec       q    Type
REMARK                         _______ _______ _______ _____ _____    ______ ____
ROOT
ATOM      1  C   UNL     1       0.095  -4.100   3.829  0.00  0.00    +0.202 A 
ATOM      2  N   UNL     1       0.102  -3.995   5.170  0.00  0.00    -0.191 NA
ATOM      3  C   UNL     1       0.126  -5.180   5.710  0.00  0.00    +0.232 A 
ATOM      4  O   UNL     1       0.135  -6.093   4.731  0.00  0.00    -0.337 OA
ATOM      5  N   UNL     1       0.110  -5.371   3.509  0.00  0.00    -0.056 NA
ENDROOT
BRANCH   1  14
ATOM      6  C   UNL     1      -0.018   1.461   0.010  0.00  0.00    +0.150 C 
ATOM      7  N   UNL     1       0.002  -0.004   0.002  0.00  0.00    -0.333 N 
ATOM      8  C   UNL     1       0.009  -0.804  -1.099  0.00  0.00    +0.200 A 
ATOM      9  N   UNL     1       0.027  -2.055  -0.743  0.00  0.00    -0.236 NA
ATOM     10  C   UNL     1       0.034  -2.143   0.613  0.00  0.00    +0.090 A 
ATOM     11  C   UNL     1       0.024  -0.827   1.109  0.00  0.00    +0.068 A 
ATOM     12  C   UNL     1       0.033  -0.599   2.479  0.00  0.00    +0.028 A 
ATOM     13  C   UNL     1       0.056  -1.652   3.349  0.00  0.00    +0.014 A 
ATOM     14  C   UNL     1       0.070  -2.966   2.872  0.00  0.00    +0.025 A 
ATOM     15  C   UNL     1       0.052  -3.215   1.506  0.00  0.00    +0.041 A 
ENDBRANCH   1  14
BRANCH   3  16
ATOM     16  C   UNL     1       0.140  -5.474   7.188  0.00  0.00    +0.138 C 
BRANCH  16  17
ATOM     17  C   UNL     1      -1.276  -5.596   7.690  0.00  0.00    +0.015 A 
ATOM     18  C   UNL     1      -1.948  -4.476   8.149  0.00  0.00    +0.128 A 
ATOM     19  C   UNL     1      -3.248  -4.590   8.609  0.00  0.00    +0.039 A 
ATOM     20  C   UNL     1      -3.876  -5.822   8.610  0.00  0.00    +0.004 A 
ATOM     21  C   UNL     1      -3.205  -6.940   8.152  0.00  0.00    +0.020 A 
ATOM     22  C   UNL     1      -1.907  -6.827   7.686  0.00  0.00    +0.047 A 
ATOM     23 CL   UNL     1      -1.069  -8.231   7.104  0.00  0.00    -0.083 Cl
ATOM     24  F   UNL     1      -1.334  -3.272   8.148  0.00  0.00    -0.205 F 
ENDBRANCH  16  17
ENDBRANCH   3  16
TORSDOF 3
