REMARK  Name = ZINC66397889
REMARK  7 active torsions:
REMARK  status: ('A' for Active; 'I' for Inactive)
REMARK    1  A    between atoms: C_1  and  C_2
REMARK    2  A    between atoms: C_7  and  C_8
REMARK    3  A    between atoms: C_8  and  C_10
REMARK    4  A    between atoms: C_8  and  N_12
REMARK    5  A    between atoms: C_13  and  C_15
REMARK    6  A    between atoms: C_18  and  N_21
REMARK    7  A    between atoms: C_25  and  C_28
REMARK                            x       y       z     vdW  Elec       q    Type
REMARK                         _______ _______ _______ _____ _____    ______ ____
ROOT
ATOM      1  C   UNL     1      -1.756  -1.114   5.652  0.00  0.00    +0.037 A 
ATOM      2  C   UNL     1      -1.629  -2.504   5.568  0.00  0.00    +0.015 A 
ATOM      3  C   UNL     1      -2.158  -3.303   6.556  0.00  0.00    +0.024 A 
ATOM      4  C   UNL     1      -2.819  -2.728   7.638  0.00  0.00    +0.030 A 
ATOM      5  C   UNL     1      -2.947  -1.345   7.724  0.00  0.00    +0.024 A 
ATOM      6  C   UNL     1      -2.416  -0.540   6.743  0.00  0.00    +0.015 A 
ENDROOT
BRANCH   4   7
ATOM      7  N   UNL     1      -3.353  -3.538   8.634  0.00  0.00    -0.329 N 
ATOM      8  C   UNL     1      -4.170  -2.961   9.710  0.00  0.00    +0.105 C 
ATOM      9  C   UNL     1      -5.505  -3.710   9.771  0.00  0.00    +0.020 C 
ATOM     10  C   UNL     1      -5.239  -5.209   9.919  0.00  0.00    +0.016 C 
ATOM     11  C   UNL     1      -4.457  -5.713   8.703  0.00  0.00    +0.092 C 
ATOM     12  C   UNL     1      -3.115  -4.988   8.627  0.00  0.00    +0.117 C 
BRANCH  11  13
ATOM     13  C   UNL     1      -4.224  -7.196   8.835  0.00  0.00    +0.215 C 
ATOM     14  O   UNL     1      -3.092  -7.632   8.864  0.00  0.00    -0.276 OA
ATOM     15  N   UNL     1      -5.272  -8.038   8.919  0.00  0.00    -0.329 N 
ATOM     16  H   UNL     1      -6.178  -7.690   8.895  0.00  0.00    +0.145 HD
ATOM     17  H   UNL     1      -5.122  -8.993   9.003  0.00  0.00    +0.145 HD
ENDBRANCH  11  13
ENDBRANCH   4   7
BRANCH   1  19
ATOM     18  N   UNL     1      -0.554  -0.809   3.544  0.00  0.00    -0.292 N 
ATOM     19  C   UNL     1      -1.190  -0.255   4.595  0.00  0.00    +0.245 C 
ATOM     20  O   UNL     1      -1.296   0.954   4.672  0.00  0.00    -0.270 OA
ATOM     21  H   UNL     1      -0.469  -1.774   3.482  0.00  0.00    +0.151 HD
BRANCH  18  22
ATOM     22  C   UNL     1       0.008   0.044   2.494  0.00  0.00    +0.207 C 
BRANCH  22  29
ATOM     23  C   UNL     1      -0.074   1.514   0.008  0.00  0.00    +0.044 C 
ATOM     24  C   UNL     1      -0.050   0.007  -0.008  0.00  0.00    -0.045 A 
ATOM     25  C   UNL     1      -0.061  -0.672  -1.212  0.00  0.00    +0.004 A 
ATOM     26  C   UNL     1      -0.039  -2.054  -1.227  0.00  0.00    +0.000 A 
ATOM     27  C   UNL     1      -0.005  -2.757  -0.037  0.00  0.00    +0.000 A 
ATOM     28  C   UNL     1       0.007  -2.079   1.167  0.00  0.00    +0.007 A 
ATOM     29  C   UNL     1      -0.011  -0.696   1.182  0.00  0.00    -0.010 A 
ENDBRANCH  22  29
BRANCH  22  30
ATOM     30  C   UNL     1       1.395   0.397   2.839  0.00  0.00    +0.090 C 
ATOM     31  N   UNL     1       2.465   0.669   3.105  0.00  0.00    -0.194 NA
ENDBRANCH  22  30
ENDBRANCH  18  22
ENDBRANCH   1  19
TORSDOF 6
