REMARK  Name = ZINC00647890
REMARK  14 active torsions:
REMARK  status: ('A' for Active; 'I' for Inactive)
REMARK    1  A    between atoms: C_1  and  C_2
REMARK    2  A    between atoms: C_3  and  C_35
REMARK    3  A    between atoms: C_4  and  C_25
REMARK    4  A    between atoms: C_10  and  C_15
REMARK    5  A    between atoms: C_18  and  O_23
REMARK    6  A    between atoms: C_19  and  O_21
REMARK    7  A    between atoms: O_21  and  C_22
REMARK    8  A    between atoms: O_23  and  C_24
REMARK    9  A    between atoms: C_28  and  O_33
REMARK   10  A    between atoms: C_30  and  O_31
REMARK   11  A    between atoms: O_31  and  C_32
REMARK   12  A    between atoms: O_33  and  C_34
REMARK   13  A    between atoms: C_35  and  O_37
REMARK   14  A    between atoms: O_37  and  C_38
REMARK                            x       y       z     vdW  Elec       q    Type
REMARK                         _______ _______ _______ _____ _____    ______ ____
ROOT
ATOM      1  C   UNL     1      -0.018   1.503   0.010  0.00  0.00    +0.061 C 
ATOM      2  C   UNL     1       0.002  -0.004   0.002  0.00  0.00    +0.016 C 
ATOM      3  C   UNL     1      -1.155  -0.687   0.004  0.00  0.00    +0.065 C 
ATOM      4  C   UNL     1      -1.174  -2.188   0.004  0.00  0.00    +0.096 C 
ATOM      5  C   UNL     1       0.160  -2.745  -0.427  0.00  0.00    +0.024 C 
ATOM      6  C   UNL     1       1.268  -1.974  -0.407  0.00  0.00    +0.016 C 
ATOM      7  N   UNL     1       1.198  -0.667  -0.013  0.00  0.00    -0.321 N 
ATOM      8  C   UNL     1       2.608  -2.531  -0.819  0.00  0.00    +0.059 C 
ATOM      9  C   UNL     1       2.410  -3.613  -1.883  0.00  0.00    +0.032 C 
ATOM     10  C   UNL     1       1.508  -4.706  -1.303  0.00  0.00    +0.088 C 
ATOM     11  C   UNL     1       0.215  -4.085  -0.850  0.00  0.00    +0.162 C 
ATOM     12  O   UNL     1      -0.800  -4.753  -0.848  0.00  0.00    -0.292 OA
ATOM     13  H   UNL     1       2.006  -0.206   0.263  0.00  0.00    +0.152 HD
ENDROOT
BRANCH   9  14
ATOM     14  C   UNL     1       3.745  -4.201  -2.262  0.00  0.00    -0.040 A 
ATOM     15  C   UNL     1       4.522  -4.823  -1.302  0.00  0.00    +0.008 A 
ATOM     16  C   UNL     1       5.748  -5.364  -1.644  0.00  0.00    +0.049 A 
ATOM     17  C   UNL     1       6.200  -5.283  -2.951  0.00  0.00    +0.161 A 
ATOM     18  C   UNL     1       5.418  -4.657  -3.917  0.00  0.00    +0.162 A 
ATOM     19  C   UNL     1       4.188  -4.122  -3.569  0.00  0.00    +0.053 A 
BRANCH  18  20
ATOM     20  O   UNL     1       5.857  -4.576  -5.202  0.00  0.00    -0.491 OA
ATOM     21  C   UNL     1       5.002  -3.920  -6.140  0.00  0.00    +0.277 C 
ENDBRANCH  18  20
BRANCH  17  22
ATOM     22  O   UNL     1       7.405  -5.814  -3.289  0.00  0.00    -0.491 OA
ATOM     23  C   UNL     1       8.154  -6.441  -2.246  0.00  0.00    +0.277 C 
ENDBRANCH  17  22
ENDBRANCH   9  14
BRANCH   4  24
ATOM     24  C   UNL     1      -1.489  -2.679   1.393  0.00  0.00    +0.007 A 
ATOM     25  C   UNL     1      -0.659  -2.346   2.447  0.00  0.00    +0.012 A 
ATOM     26  C   UNL     1      -0.945  -2.795   3.722  0.00  0.00    +0.046 A 
ATOM     27  C   UNL     1      -2.066  -3.581   3.947  0.00  0.00    +0.124 A 
ATOM     28  C   UNL     1      -2.900  -3.917   2.892  0.00  0.00    +0.091 A 
ATOM     29  C   UNL     1      -2.614  -3.461   1.614  0.00  0.00    +0.128 A 
BRANCH  29  30
ATOM     30  O   UNL     1      -3.432  -3.783   0.578  0.00  0.00    -0.495 OA
ATOM     31  C   UNL     1      -4.572  -4.590   0.878  0.00  0.00    +0.277 C 
ENDBRANCH  29  30
BRANCH  27  32
ATOM     32  O   UNL     1      -2.347  -4.023   5.202  0.00  0.00    -0.495 OA
ATOM     33  C   UNL     1      -1.445  -3.639   6.241  0.00  0.00    +0.277 C 
ENDBRANCH  27  32
ENDBRANCH   4  24
BRANCH   3  34
ATOM     34  C   UNL     1      -2.380   0.021   0.006  0.00  0.00    +0.338 C 
ATOM     35  O   UNL     1      -2.378   1.238   0.007  0.00  0.00    -0.245 OA
BRANCH  34  36
ATOM     36  O   UNL     1      -3.549  -0.652   0.008  0.00  0.00    -0.458 OA
BRANCH  36  37
ATOM     37  C   UNL     1      -4.747   0.128   0.011  0.00  0.00    +0.177 C 
ATOM     38  C   UNL     1      -5.226   0.356   1.459  0.00  0.00    +0.044 C 
ATOM     39  C   UNL     1      -6.770   0.285   1.364  0.00  0.00    +0.004 C 
ATOM     40  C   UNL     1      -6.997  -0.841   0.325  0.00  0.00    +0.004 C 
ATOM     41  C   UNL     1      -5.873  -0.633  -0.710  0.00  0.00    +0.044 C 
ENDBRANCH  36  37
ENDBRANCH  34  36
ENDBRANCH   3  34
TORSDOF 9
