REMARK  Name = ZINC03281415
REMARK  6 active torsions:
REMARK  status: ('A' for Active; 'I' for Inactive)
REMARK    1  A    between atoms: C_1  and  C_2
REMARK    2  A    between atoms: C_4  and  C_29
REMARK    3  A    between atoms: C_6  and  C_24
REMARK    4  A    between atoms: C_10  and  C_11
REMARK    5  A    between atoms: C_14  and  C_19
REMARK    6  A    between atoms: C_14  and  O_23
REMARK                            x       y       z     vdW  Elec       q    Type
REMARK                         _______ _______ _______ _____ _____    ______ ____
ROOT
ATOM      1  C   UNL     1       0.638   4.204  -0.373  0.00  0.00    +0.046 C 
ATOM      2  C   UNL     1      -0.283   4.320   0.814  0.00  0.00    -0.021 A 
ATOM      3  C   UNL     1      -0.682   3.168   1.509  0.00  0.00    +0.023 A 
ATOM      4  C   UNL     1      -0.328   1.815   1.250  0.00  0.00    +0.067 A 
ATOM      5  C   UNL     1      -0.820   0.833   2.052  0.00  0.00    +0.042 A 
ATOM      6  C   UNL     1      -1.673   1.146   3.119  0.00  0.00    +0.079 A 
ATOM      7  N   UNL     1      -2.008   2.411   3.357  0.00  0.00    -0.239 NA
ATOM      8  C   UNL     1      -1.553   3.387   2.606  0.00  0.00    +0.110 A 
ATOM      9  S   UNL     1      -1.768   5.151   2.610  0.00  0.00    -0.064 S 
ATOM     10  C   UNL     1      -0.729   5.542   1.213  0.00  0.00    +0.081 A 
ENDROOT
BRANCH  10  11
ATOM     11  C   UNL     1      -0.436   6.858   0.631  0.00  0.00    +0.272 C 
ATOM     12  O   UNL     1       0.157   6.936  -0.428  0.00  0.00    -0.268 OA
ATOM     13  N   UNL     1      -0.826   7.979   1.270  0.00  0.00    -0.178 N 
ATOM     14  C   UNL     1      -0.587   9.348   0.797  0.00  0.00    +0.253 C 
ATOM     15  C   UNL     1      -1.215  10.260   1.865  0.00  0.00    +0.117 C 
ATOM     16  C   UNL     1      -1.780   9.308   2.895  0.00  0.00    +0.020 C 
ATOM     17  C   UNL     1      -2.416   9.652   3.999  0.00  0.00    +0.030 C 
ATOM     18  N   UNL     1      -1.521   8.014   2.478  0.00  0.00    -0.263 N 
ATOM     19  H   UNL     1      -1.789   7.223   2.970  0.00  0.00    +0.170 HD
BRANCH  14  20
ATOM     20  C   UNL     1      -1.267   9.567  -0.556  0.00  0.00    +0.437 C 
ATOM     21  F   UNL     1      -2.640   9.331  -0.431  0.00  0.00    -0.166 F 
ATOM     22  F   UNL     1      -1.057  10.885  -0.975  0.00  0.00    -0.166 F 
ATOM     23  F   UNL     1      -0.726   8.686  -1.498  0.00  0.00    -0.166 F 
ENDBRANCH  14  20
BRANCH  14  24
ATOM     24  O   UNL     1       0.816   9.599   0.694  0.00  0.00    -0.363 OA
ATOM     25  H   UNL     1       1.274   9.023   0.066  0.00  0.00    +0.212 HD
ENDBRANCH  14  24
ENDBRANCH  10  11
BRANCH   6  26
ATOM     26  C   UNL     1      -2.200   0.071   3.980  0.00  0.00    +0.038 A 
ATOM     27  C   UNL     1      -3.037   0.163   5.062  0.00  0.00    +0.017 A 
ATOM     28  C   UNL     1      -3.398  -0.991   5.718  0.00  0.00    +0.008 A 
ATOM     29  C   UNL     1      -2.916  -2.183   5.277  0.00  0.00    +0.046 A 
ATOM     30  S   UNL     1      -1.920  -1.689   3.880  0.00  0.00    -0.095 S 
ENDBRANCH   6  26
BRANCH   4  31
ATOM     31  C   UNL     1       0.589   1.474   0.103  0.00  0.00    +0.418 C 
ATOM     32  F   UNL     1       0.639   0.085  -0.056  0.00  0.00    -0.166 F 
ATOM     33  F   UNL     1       1.873   1.959   0.372  0.00  0.00    -0.166 F 
ATOM     34  F   UNL     1       0.104   2.061  -1.071  0.00  0.00    -0.166 F 
ENDBRANCH   4  31
TORSDOF 5
