REMARK  Name = ZINC23304274
REMARK  10 active torsions:
REMARK  status: ('A' for Active; 'I' for Inactive)
REMARK    1  A    between atoms: C_1  and  C_2
REMARK    2  A    between atoms: C_2  and  C_3
REMARK    3  A    between atoms: C_2  and  C_4
REMARK    4  A    between atoms: C_2  and  C_5
REMARK    5  A    between atoms: C_8  and  C_11
REMARK    6  A    between atoms: C_11  and  O_12
REMARK    7  A    between atoms: O_12  and  C_13
REMARK    8  A    between atoms: C_16  and  C_20
REMARK    9  A    between atoms: C_20  and  N_21
REMARK   10  A    between atoms: C_28  and  C_30
REMARK                            x       y       z     vdW  Elec       q    Type
REMARK                         _______ _______ _______ _____ _____    ______ ____
ROOT
ATOM      1  C   UNL     1       3.185   1.610   2.372  0.00  0.00    -0.003 C 
ENDROOT
BRANCH   1   2
ATOM      2  N   UNL     1       2.098   1.294   1.435  0.00  0.00    +0.385 N 
ATOM      3  C   UNL     1       1.815  -0.141   1.425  0.00  0.00    -0.077 C 
ATOM      4  C   UNL     1       0.405  -0.481   1.155  0.00  0.00    +0.000 C 
ATOM      5  C   UNL     1       0.008   0.018  -0.257  0.00  0.00    +0.106 C 
ATOM      6  N   UNL     1      -0.040   1.464  -0.263  0.00  0.00    -0.300 N 
ATOM      7  C   UNL     1       1.136   2.305  -0.570  0.00  0.00    +0.089 C 
ATOM      8  C   UNL     1       2.411   1.762   0.102  0.00  0.00    -0.059 C 
ATOM      9  C   UNL     1      -1.210   2.071   0.019  0.00  0.00    +0.260 C 
ATOM     10  O   UNL     1      -2.214   1.409   0.174  0.00  0.00    -0.271 OA
ATOM     11  H   UNL     1       1.192   1.823   1.766  0.00  0.00    -0.081 HD
BRANCH   9  12
ATOM     12  C   UNL     1      -1.270   3.571   0.141  0.00  0.00    +0.296 C 
ATOM     13  C   UNL     1      -0.615   4.010   1.458  0.00  0.00    +0.283 C 
ATOM     14  O   UNL     1      -0.702   5.436   1.548  0.00  0.00    -0.484 OA
ATOM     15  C   UNL     1      -1.906   5.996   1.252  0.00  0.00    +0.162 A 
ATOM     16  C   UNL     1      -2.170   7.297   1.655  0.00  0.00    +0.049 A 
ATOM     17  C   UNL     1      -3.387   7.881   1.359  0.00  0.00    +0.004 A 
ATOM     18  C   UNL     1      -4.346   7.169   0.662  0.00  0.00    +0.004 A 
ATOM     19  C   UNL     1      -4.091   5.872   0.260  0.00  0.00    +0.049 A 
ATOM     20  C   UNL     1      -2.871   5.280   0.554  0.00  0.00    +0.163 A 
ATOM     21  O   UNL     1      -2.636   4.000   0.156  0.00  0.00    -0.473 OA
ENDBRANCH   9  12
ENDBRANCH   1   2
BRANCH   1  25
ATOM     22  C   UNL     1       4.461   5.617   1.762  0.00  0.00    +0.202 A 
ATOM     23  C   UNL     1       5.006   4.580   1.091  0.00  0.00    +0.244 A 
ATOM     24  O   UNL     1       4.588   3.325   1.307  0.00  0.00    -0.466 OA
ATOM     25  C   UNL     1       3.615   3.041   2.179  0.00  0.00    +0.092 A 
ATOM     26  C   UNL     1       3.015   4.016   2.893  0.00  0.00    +0.094 A 
ATOM     27  C   UNL     1       3.427   5.359   2.704  0.00  0.00    +0.226 A 
ATOM     28  O   UNL     1       2.908   6.269   3.332  0.00  0.00    -0.284 OA
BRANCH  22  29
ATOM     29  O   UNL     1       4.894   6.888   1.542  0.00  0.00    -0.481 OA
BRANCH  29  30
ATOM     30  C   UNL     1       5.936   7.061   0.580  0.00  0.00    +0.264 C 
BRANCH  30  34
ATOM     31  C   UNL     1       6.917  11.207   0.269  0.00  0.00    -0.042 A 
ATOM     32  C   UNL     1       7.576  10.408   1.184  0.00  0.00    +0.004 A 
ATOM     33  C   UNL     1       7.259   9.066   1.284  0.00  0.00    +0.007 A 
ATOM     34  C   UNL     1       6.282   8.524   0.470  0.00  0.00    -0.010 A 
ATOM     35  C   UNL     1       5.626   9.322  -0.448  0.00  0.00    +0.007 A 
ATOM     36  C   UNL     1       5.940  10.665  -0.545  0.00  0.00    +0.004 A 
BRANCH  31  38
ATOM     37  C   UNL     1       8.738  12.819  -0.215  0.00  0.00    +0.015 C 
ATOM     38  C   UNL     1       7.262  12.670   0.160  0.00  0.00    -0.013 C 
ATOM     39  C   UNL     1       6.394  13.320  -0.919  0.00  0.00    +0.015 C 
ATOM     40  C   UNL     1       7.006  13.356   1.503  0.00  0.00    +0.015 C 
ENDBRANCH  31  38
ENDBRANCH  30  34
ENDBRANCH  29  30
ENDBRANCH  22  29
ENDBRANCH   1  25
TORSDOF 7
