REMARK  Name = ZINC63375616
REMARK  5 active torsions:
REMARK  status: ('A' for Active; 'I' for Inactive)
REMARK    1  A    between atoms: C_1  and  O_2
REMARK    2  A    between atoms: O_2  and  C_3
REMARK    3  A    between atoms: C_10  and  C_18
REMARK    4  A    between atoms: C_20  and  O_31
REMARK    5  A    between atoms: N_22  and  C_28
REMARK                            x       y       z     vdW  Elec       q    Type
REMARK                         _______ _______ _______ _____ _____    ______ ____
ROOT
ATOM      1  C   UNL     1      -0.202  -1.405   0.694  0.00  0.00    +0.121 A 
ATOM      2  C   UNL     1      -1.230  -0.503   0.366  0.00  0.00    +0.047 A 
ATOM      3  C   UNL     1      -2.501  -0.902   0.148  0.00  0.00    +0.029 A 
ATOM      4  C   UNL     1      -2.850  -2.321   0.250  0.00  0.00    +0.043 A 
ATOM      5  N   UNL     1      -3.992  -2.955   0.111  0.00  0.00    -0.376 N 
ATOM      6  C   UNL     1      -3.742  -4.388   0.233  0.00  0.00    +0.124 C 
ATOM      7  C   UNL     1      -4.591  -5.043   1.326  0.00  0.00    +0.096 C 
ATOM      8  N   UNL     1      -4.067  -6.396   1.570  0.00  0.00    -0.310 NA
ATOM      9  C   UNL     1      -2.726  -6.399   2.161  0.00  0.00    +0.085 C 
ATOM     10  C   UNL     1      -1.709  -5.810   1.166  0.00  0.00    +0.048 C 
ATOM     11  C   UNL     1      -2.288  -4.506   0.663  0.00  0.00    -0.036 C 
ATOM     12  C   UNL     1      -1.768  -3.275   0.606  0.00  0.00    +0.003 A 
ATOM     13  C   UNL     1      -0.419  -2.736   0.812  0.00  0.00    +0.055 A 
ATOM     14  H   UNL     1      -4.710  -6.938   2.128  0.00  0.00    +0.122 HD
ATOM     15  H   UNL     1      -4.855  -2.541  -0.046  0.00  0.00    +0.160 HD
ENDROOT
BRANCH   7  16
ATOM     16  C   UNL     1      -4.505  -4.217   2.611  0.00  0.00    +0.141 C 
ATOM     17  C   UNL     1      -5.228  -4.952   3.741  0.00  0.00    +0.218 C 
ATOM     18  N   UNL     1      -6.675  -4.869   3.532  0.00  0.00    -0.283 N 
ATOM     19  C   UNL     1      -7.235  -3.764   3.013  0.00  0.00    +0.141 C 
ATOM     20  S   UNL     1      -8.941  -3.656   2.923  0.00  0.00    -0.018 S 
ATOM     21  N   UNL     1      -6.488  -2.742   2.563  0.00  0.00    -0.267 N 
ATOM     22  C   UNL     1      -5.159  -2.876   2.392  0.00  0.00    +0.227 C 
ATOM     23  O   UNL     1      -4.489  -1.920   2.063  0.00  0.00    -0.275 OA
ATOM     24  H   UNL     1      -6.913  -1.894   2.359  0.00  0.00    +0.157 HD
BRANCH  18  25
ATOM     25  C   UNL     1      -7.524  -6.008   3.892  0.00  0.00    +0.078 C 
ATOM     26  C   UNL     1      -8.750  -5.727   4.763  0.00  0.00    +0.024 C 
ATOM     27  C   UNL     1      -7.537  -6.442   5.359  0.00  0.00    +0.024 C 
ENDBRANCH  18  25
BRANCH  17  28
ATOM     28  O   UNL     1      -4.827  -6.324   3.750  0.00  0.00    -0.373 OA
ATOM     29  H   UNL     1      -5.247  -6.852   4.443  0.00  0.00    +0.212 HD
ENDBRANCH  17  28
ENDBRANCH   7  16
BRANCH   1  31
ATOM     30  C   UNL     1       1.237   0.486   0.759  0.00  0.00    +0.277 C 
ATOM     31  O   UNL     1       1.053  -0.924   0.894  0.00  0.00    -0.495 OA
ENDBRANCH   1  31
TORSDOF 4
