REMARK  Name = ZINC08835992
REMARK  5 active torsions:
REMARK  status: ('A' for Active; 'I' for Inactive)
REMARK    1  A    between atoms: C_6  and  C_7
REMARK    2  A    between atoms: C_10  and  C_22
REMARK    3  A    between atoms: C_13  and  C_15
REMARK    4  A    between atoms: C_15  and  C_16
REMARK    5  A    between atoms: C_16  and  N_54
REMARK                            x       y       z     vdW  Elec       q    Type
REMARK                         _______ _______ _______ _____ _____    ______ ____
ROOT
ATOM      1  C   UNL     1      -0.787   8.430   0.054  0.00  0.00    +0.137 C 
ATOM      2  C   UNL     1      -1.328   6.986   0.052  0.00  0.00    +0.087 C 
ATOM      3  C   UNL     1      -0.081   6.131   0.035  0.00  0.00    +0.069 C 
ATOM      4  N   UNL     1       0.961   6.888   0.035  0.00  0.00    -0.181 NA
ATOM      5  N   UNL     1       0.673   8.252   0.039  0.00  0.00    -0.185 N 
ATOM      6  C   UNL     1       1.585   9.245   0.035  0.00  0.00    +0.234 C 
ATOM      7  O   UNL     1       1.220  10.402   0.045  0.00  0.00    -0.274 OA
ENDROOT
BRANCH   1  13
ATOM      8  C   UNL     1      -0.546   8.949   2.490  0.00  0.00    +0.006 A 
ATOM      9  C   UNL     1      -0.939   9.620   3.633  0.00  0.00    +0.015 A 
ATOM     10  C   UNL     1      -2.014  10.490   3.590  0.00  0.00    +0.018 A 
ATOM     11  C   UNL     1      -2.691  10.693   2.401  0.00  0.00    +0.015 A 
ATOM     12  C   UNL     1      -2.294  10.026   1.257  0.00  0.00    +0.006 A 
ATOM     13  C   UNL     1      -1.220   9.157   1.301  0.00  0.00    -0.025 A 
ATOM     14 BR   UNL     1      -2.557  11.401   5.155  0.00  0.00    -0.050 Br
ENDBRANCH   1  13
BRANCH   3  15
ATOM     15  C   UNL     1      -0.061   4.656   0.028  0.00  0.00    -0.002 A 
ATOM     16  C   UNL     1       1.156   3.971   0.012  0.00  0.00    +0.011 A 
ATOM     17  C   UNL     1       1.168   2.592   0.005  0.00  0.00    +0.016 A 
ATOM     18  C   UNL     1      -0.024   1.887   0.012  0.00  0.00    +0.018 A 
ATOM     19  C   UNL     1      -1.234   2.560   0.022  0.00  0.00    +0.016 A 
ATOM     20  C   UNL     1      -1.260   3.938   0.035  0.00  0.00    +0.011 A 
ATOM     21 BR   UNL     1       0.002  -0.004   0.002  0.00  0.00    -0.050 Br
ENDBRANCH   3  15
BRANCH   6  22
ATOM     22  C   UNL     1       3.055   8.918   0.019  0.00  0.00    +0.079 C 
BRANCH  22  23
ATOM     23  C   UNL     1       3.866  10.215   0.018  0.00  0.00    -0.070 C 
BRANCH  23  29
ATOM     24  C   UNL     1       5.704   9.227   1.246  0.00  0.00    -0.079 C 
ATOM     25  C   UNL     1       7.164   8.781   1.135  0.00  0.00    -0.019 C 
ATOM     26  C   UNL     1       8.049  10.005   0.882  0.00  0.00    -0.004 C 
ATOM     27  C   UNL     1       7.576  10.712  -0.391  0.00  0.00    -0.019 C 
ATOM     28  C   UNL     1       6.105  11.102  -0.237  0.00  0.00    -0.079 C 
ATOM     29  N   UNL     1       5.304   9.878  -0.020  0.00  0.00    +0.380 N 
ATOM     30  H   UNL     1       5.473   9.227  -0.797  0.00  0.00    -0.082 HD
ENDBRANCH  23  29
ENDBRANCH  22  23
ENDBRANCH   6  22
TORSDOF 5
