REMARK  Name = ZINC20494881
REMARK  6 active torsions:
REMARK  status: ('A' for Active; 'I' for Inactive)
REMARK    1  A    between atoms: C_1  and  O_2
REMARK    2  A    between atoms: O_2  and  C_3
REMARK    3  A    between atoms: C_6  and  S_13
REMARK    4  A    between atoms: S_13  and  N_16
REMARK    5  A    between atoms: C_29  and  C_31
REMARK    6  A    between atoms: C_35  and  N_37
REMARK                            x       y       z     vdW  Elec       q    Type
REMARK                         _______ _______ _______ _____ _____    ______ ____
ROOT
ATOM      1  N   UNL     1      -2.674   0.509  -1.194  0.00  0.00    -0.153 NA
ATOM      2  C   UNL     1      -3.328   1.401  -2.191  0.00  0.00    +0.135 C 
ATOM      3  C   UNL     1      -4.079   0.406  -3.082  0.00  0.00    +0.105 C 
ATOM      4  C   UNL     1      -4.353   0.868  -4.476  0.00  0.00    -0.026 A 
ATOM      5  C   UNL     1      -4.715   2.179  -4.721  0.00  0.00    +0.005 A 
ATOM      6  C   UNL     1      -5.012   2.591  -6.006  0.00  0.00    +0.000 A 
ATOM      7  C   UNL     1      -4.945   1.685  -7.048  0.00  0.00    +0.000 A 
ATOM      8  C   UNL     1      -4.573   0.379  -6.805  0.00  0.00    +0.004 A 
ATOM      9  C   UNL     1      -4.265  -0.041  -5.518  0.00  0.00    -0.041 A 
ATOM     10  C   UNL     1      -3.846  -1.474  -5.319  0.00  0.00    +0.051 C 
ATOM     11  C   UNL     1      -3.704  -1.831  -3.833  0.00  0.00    +0.091 C 
ATOM     12  N   UNL     1      -3.082  -0.697  -3.175  0.00  0.00    -0.274 NA
ATOM     13  C   UNL     1      -2.584  -0.836  -1.812  0.00  0.00    +0.180 C 
ENDROOT
BRANCH  13  14
ATOM     14  C   UNL     1      -3.437  -1.814  -1.047  0.00  0.00    -0.012 A 
ATOM     15  C   UNL     1      -4.751  -1.502  -0.752  0.00  0.00    +0.006 A 
ATOM     16  C   UNL     1      -5.535  -2.402  -0.053  0.00  0.00    +0.003 A 
ATOM     17  C   UNL     1      -5.002  -3.610   0.357  0.00  0.00    +0.033 A 
ATOM     18  C   UNL     1      -3.687  -3.919   0.066  0.00  0.00    +0.127 A 
ATOM     19  C   UNL     1      -2.904  -3.022  -0.636  0.00  0.00    +0.039 A 
BRANCH  18  20
ATOM     20  N   UNL     1      -3.116  -5.212   0.506  0.00  0.00    +0.056 N 
ATOM     21  O   UNL     1      -1.957  -5.485   0.250  0.00  0.00    -0.126 OA
ATOM     22  O   UNL     1      -3.806  -6.003   1.124  0.00  0.00    -0.126 OA
ENDBRANCH  18  20
ENDBRANCH  13  14
BRANCH   1  23
ATOM     23  S   UNL     1      -2.152   0.936   0.319  0.00  0.00    +0.063 S 
ATOM     24  O   UNL     1      -1.977  -0.273   1.044  0.00  0.00    -0.153 OA
ATOM     25  O   UNL     1      -3.013   1.975   0.766  0.00  0.00    -0.153 OA
BRANCH  23  29
ATOM     26  C   UNL     1       1.974   2.817  -0.140  0.00  0.00    +0.146 A 
ATOM     27  C   UNL     1       0.894   3.558   0.249  0.00  0.00    +0.050 A 
ATOM     28  C   UNL     1      -0.363   2.977   0.383  0.00  0.00    +0.033 A 
ATOM     29  C   UNL     1      -0.552   1.651   0.136  0.00  0.00    +0.115 A 
ATOM     30  C   UNL     1       0.532   0.858  -0.273  0.00  0.00    +0.030 A 
ATOM     31  C   UNL     1       1.815   1.442  -0.411  0.00  0.00    +0.114 A 
ATOM     32  N   UNL     1       2.850   0.690  -0.794  0.00  0.00    -0.251 NA
ATOM     33  C   UNL     1       2.708  -0.589  -1.048  0.00  0.00    +0.111 A 
ATOM     34  C   UNL     1       1.474  -1.226  -0.931  0.00  0.00    +0.020 A 
ATOM     35  C   UNL     1       0.374  -0.515  -0.544  0.00  0.00    +0.013 A 
BRANCH  26  37
ATOM     36  C   UNL     1       3.278   4.797   0.025  0.00  0.00    +0.277 C 
ATOM     37  O   UNL     1       3.194   3.401  -0.267  0.00  0.00    -0.493 OA
ENDBRANCH  26  37
ENDBRANCH  23  29
ENDBRANCH   1  23
TORSDOF 5
