REMARK  Name = ZINC35930114
REMARK  8 active torsions:
REMARK  status: ('A' for Active; 'I' for Inactive)
REMARK    1  A    between atoms: C_1  and  O_2
REMARK    2  A    between atoms: O_2  and  C_3
REMARK    3  A    between atoms: C_6  and  C_9
REMARK    4  A    between atoms: C_9  and  C_10
REMARK    5  A    between atoms: C_10  and  N_11
REMARK    6  A    between atoms: C_14  and  C_29
REMARK    7  A    between atoms: C_16  and  N_28
REMARK    8  A    between atoms: N_17  and  C_21
REMARK                            x       y       z     vdW  Elec       q    Type
REMARK                         _______ _______ _______ _____ _____    ______ ____
ROOT
ATOM      1  N   UNL     1      -6.342  -4.264  -1.498  0.00  0.00    -0.313 N 
ATOM      2  C   UNL     1      -7.120  -4.303  -2.642  0.00  0.00    +0.218 A 
ATOM      3  N   UNL     1      -8.277  -4.955  -2.592  0.00  0.00    -0.214 NA
ATOM      4  C   UNL     1      -9.085  -5.041  -3.642  0.00  0.00    +0.089 A 
ATOM      5  C   UNL     1      -8.687  -4.415  -4.845  0.00  0.00    +0.086 A 
ATOM      6  C   UNL     1      -9.223  -4.277  -6.119  0.00  0.00    +0.131 A 
ATOM      7  N   UNL     1      -8.352  -3.553  -6.849  0.00  0.00    -0.216 N 
ATOM      8  N   UNL     1      -7.244  -3.211  -6.066  0.00  0.00    -0.144 NA
ATOM      9  C   UNL     1      -7.396  -3.704  -4.856  0.00  0.00    +0.189 A 
ATOM     10  N   UNL     1      -6.675  -3.689  -3.719  0.00  0.00    -0.193 NA
ATOM     11  H   UNL     1      -6.644  -4.708  -0.691  0.00  0.00    +0.149 HD
ENDROOT
BRANCH   7  12
ATOM     12  C   UNL     1      -8.530  -3.196  -8.192  0.00  0.00    +0.068 A 
ATOM     13  C   UNL     1      -9.170  -4.067  -9.064  0.00  0.00    +0.030 A 
ATOM     14  C   UNL     1      -9.344  -3.713 -10.388  0.00  0.00    +0.040 A 
ATOM     15  C   UNL     1      -8.880  -2.491 -10.846  0.00  0.00    +0.124 A 
ATOM     16  C   UNL     1      -8.240  -1.622  -9.978  0.00  0.00    +0.040 A 
ATOM     17  C   UNL     1      -8.070  -1.969  -8.652  0.00  0.00    +0.030 A 
ATOM     18  F   UNL     1      -9.050  -2.147 -12.141  0.00  0.00    -0.205 F 
ENDBRANCH   7  12
BRANCH   4  19
ATOM     19  C   UNL     1     -10.367  -5.773  -3.555  0.00  0.00    +0.001 A 
ATOM     20  C   UNL     1     -10.729  -6.673  -4.559  0.00  0.00    +0.013 A 
ATOM     21  C   UNL     1     -11.926  -7.353  -4.474  0.00  0.00    +0.039 A 
ATOM     22  C   UNL     1     -12.768  -7.145  -3.393  0.00  0.00    +0.123 A 
ATOM     23  C   UNL     1     -12.414  -6.253  -2.393  0.00  0.00    +0.039 A 
ATOM     24  C   UNL     1     -11.217  -5.572  -2.466  0.00  0.00    +0.013 A 
ATOM     25  F   UNL     1     -13.939  -7.814  -3.314  0.00  0.00    -0.205 F 
ENDBRANCH   4  19
BRANCH   6  26
ATOM     26  N   UNL     1     -10.430  -4.790  -6.559  0.00  0.00    -0.342 N 
ATOM     27  H   UNL     1     -11.057  -5.166  -5.922  0.00  0.00    +0.144 HD
ATOM     28  H   UNL     1     -10.648  -4.773  -7.503  0.00  0.00    +0.144 HD
ENDBRANCH   6  26
BRANCH   1  29
ATOM     29  C   UNL     1      -5.061  -3.553  -1.508  0.00  0.00    +0.109 C 
BRANCH  29  30
ATOM     30  C   UNL     1      -4.407  -3.663  -0.129  0.00  0.00    +0.054 C 
BRANCH  30  34
ATOM     31  C   UNL     1      -0.671  -1.587  -0.156  0.00  0.00    +0.120 A 
ATOM     32  C   UNL     1      -1.835  -0.918   0.193  0.00  0.00    +0.046 A 
ATOM     33  C   UNL     1      -3.042  -1.591   0.201  0.00  0.00    +0.007 A 
ATOM     34  C   UNL     1      -3.089  -2.931  -0.139  0.00  0.00    -0.046 A 
ATOM     35  C   UNL     1      -1.930  -3.600  -0.486  0.00  0.00    +0.007 A 
ATOM     36  C   UNL     1      -0.723  -2.930  -0.501  0.00  0.00    +0.046 A 
BRANCH  31  38
ATOM     37  C   UNL     1       0.494   0.454   0.203  0.00  0.00    +0.277 C 
ATOM     38  O   UNL     1       0.517  -0.927  -0.165  0.00  0.00    -0.495 OA
ENDBRANCH  31  38
ENDBRANCH  30  34
ENDBRANCH  29  30
ENDBRANCH   1  29
TORSDOF 7
