REMARK  Name = ZINC67390372
REMARK  8 active torsions:
REMARK  status: ('A' for Active; 'I' for Inactive)
REMARK    1  A    between atoms: C_1  and  C_2
REMARK    2  A    between atoms: C_3  and  C_7
REMARK    3  A    between atoms: N_9  and  C_10
REMARK    4  A    between atoms: N_18  and  C_19
REMARK    5  A    between atoms: C_19  and  C_20
REMARK    6  A    between atoms: C_20  and  C_22
REMARK    7  A    between atoms: C_20  and  N_23
REMARK    8  A    between atoms: C_27  and  C_30
REMARK                            x       y       z     vdW  Elec       q    Type
REMARK                         _______ _______ _______ _____ _____    ______ ____
ROOT
ATOM      1  C   UNL     1      -6.309   0.924  -0.388  0.00  0.00    +0.076 C 
ATOM      2  C   UNL     1      -7.248  -0.013  -1.149  0.00  0.00    +0.041 C 
ATOM      3  C   UNL     1      -7.325  -1.357  -0.418  0.00  0.00    +0.111 C 
ATOM      4  N   UNL     1      -7.715  -1.114   0.978  0.00  0.00    -0.286 N 
ATOM      5  C   UNL     1      -6.933  -0.160   1.774  0.00  0.00    +0.111 C 
ATOM      6  C   UNL     1      -6.860   1.171   1.018  0.00  0.00    +0.041 C 
ATOM      7  C   UNL     1      -8.772  -1.754   1.517  0.00  0.00    +0.302 C 
ATOM      8  O   UNL     1      -9.030  -1.615   2.697  0.00  0.00    -0.253 OA
ATOM      9  N   UNL     1      -9.542  -2.549   0.748  0.00  0.00    -0.301 N 
ATOM     10  H   UNL     1      -9.295  -2.719  -0.175  0.00  0.00    +0.150 HD
ENDROOT
BRANCH   1  13
ATOM     11  C   UNL     1      -5.322   2.338  -2.110  0.00  0.00    +0.248 C 
ATOM     12  O   UNL     1      -4.609   1.405  -2.426  0.00  0.00    -0.270 OA
ATOM     13  N   UNL     1      -6.207   2.199  -1.103  0.00  0.00    -0.308 N 
ATOM     14  H   UNL     1      -6.776   2.943  -0.851  0.00  0.00    +0.149 HD
BRANCH  11  17
ATOM     15  C   UNL     1      -3.378   2.986  -4.485  0.00  0.00    +0.087 C 
ATOM     16  C   UNL     1      -4.383   3.922  -3.863  0.00  0.00    +0.114 A 
ATOM     17  C   UNL     1      -5.220   3.621  -2.829  0.00  0.00    +0.077 A 
ATOM     18  C   UNL     1      -5.999   4.843  -2.582  0.00  0.00    +0.054 A 
ATOM     19  C   UNL     1      -5.563   5.745  -3.475  0.00  0.00    +0.196 A 
ATOM     20  O   UNL     1      -4.600   5.189  -4.227  0.00  0.00    -0.467 OA
ENDBRANCH  11  17
ENDBRANCH   1  13
BRANCH   9  21
ATOM     21  C   UNL     1     -10.753  -3.158   1.305  0.00  0.00    +0.090 C 
BRANCH  21  22
ATOM     22  C   UNL     1     -11.367  -4.109   0.276  0.00  0.00    -0.054 C 
ATOM     23  C   UNL     1     -12.564  -4.830   0.898  0.00  0.00    -0.012 C 
BRANCH  22  24
ATOM     24  N   UNL     1     -10.361  -5.096  -0.139  0.00  0.00    +0.383 N 
ATOM     25  C   UNL     1     -10.903  -5.914  -1.231  0.00  0.00    -0.078 C 
ATOM     26  C   UNL     1      -9.831  -6.891  -1.721  0.00  0.00    -0.018 C 
ATOM     27  C   UNL     1      -9.406  -7.798  -0.563  0.00  0.00    -0.001 C 
ATOM     28  C   UNL     1      -8.913  -6.930   0.598  0.00  0.00    -0.031 C 
ATOM     29  C   UNL     1     -10.018  -5.952   1.003  0.00  0.00    -0.075 C 
ATOM     30  C   UNL     1      -8.558  -7.823   1.788  0.00  0.00    +0.005 C 
ATOM     31  H   UNL     1      -9.533  -4.617  -0.460  0.00  0.00    -0.081 HD
ENDBRANCH  22  24
ENDBRANCH  21  22
ENDBRANCH   9  21
TORSDOF 5
