REMARK  Name = ZINC14669825
REMARK  13 active torsions:
REMARK  status: ('A' for Active; 'I' for Inactive)
REMARK    1  A    between atoms: C_1  and  C_2
REMARK    2  A    between atoms: C_2  and  C_3
REMARK    3  A    between atoms: C_3  and  C_4
REMARK    4  A    between atoms: C_4  and  N_5
REMARK    5  A    between atoms: C_6  and  N_30
REMARK    6  A    between atoms: C_7  and  N_14
REMARK    7  A    between atoms: N_14  and  C_15
REMARK    8  A    between atoms: C_15  and  C_16
REMARK    9  A    between atoms: C_16  and  C_17
REMARK   10  A    between atoms: C_16  and  C_18
REMARK   11  A    between atoms: C_19  and  C_21
REMARK   12  A    between atoms: C_21  and  S_22
REMARK   13  A    between atoms: S_22  and  C_23
REMARK                            x       y       z     vdW  Elec       q    Type
REMARK                         _______ _______ _______ _____ _____    ______ ____
ROOT
ATOM      1  N   UNL     1      -1.657  -2.954  -0.991  0.00  0.00    -0.280 N 
ATOM      2  C   UNL     1      -1.777  -3.648   0.191  0.00  0.00    +0.127 A 
ATOM      3  C   UNL     1      -0.742  -4.464   0.600  0.00  0.00    +0.140 A 
ATOM      4  C   UNL     1       0.406  -4.562  -0.207  0.00  0.00    +0.277 A 
ATOM      5  O   UNL     1       1.336  -5.275   0.131  0.00  0.00    -0.266 OA
ATOM      6  N   UNL     1       0.473  -3.861  -1.356  0.00  0.00    -0.273 N 
ATOM      7  H   UNL     1       1.290  -3.927  -1.929  0.00  0.00    +0.173 HD
ATOM      8  C   UNL     1      -0.547  -3.074  -1.742  0.00  0.00    +0.331 A 
ATOM      9  O   UNL     1      -0.463  -2.457  -2.786  0.00  0.00    -0.246 OA
ENDROOT
BRANCH   3  10
ATOM     10  N   UNL     1      -0.834  -5.188   1.808  0.00  0.00    -0.263 N 
ATOM     11  C   UNL     1      -0.976  -4.532   2.978  0.00  0.00    +0.230 C 
ATOM     12  O   UNL     1      -0.938  -3.320   3.003  0.00  0.00    -0.274 OA
BRANCH  10  13
ATOM     13  C   UNL     1      -0.776  -6.652   1.790  0.00  0.00    +0.117 C 
BRANCH  13  14
ATOM     14  C   UNL     1      -2.196  -7.218   1.749  0.00  0.00    +0.001 C 
ATOM     15  C   UNL     1      -2.855  -6.847   0.419  0.00  0.00    +0.009 C 
ATOM     16  C   UNL     1      -2.142  -8.741   1.883  0.00  0.00    +0.009 C 
ENDBRANCH  13  14
ENDBRANCH  10  13
BRANCH  11  17
ATOM     17  C   UNL     1      -1.182  -5.305   4.255  0.00  0.00    +0.170 C 
BRANCH  17  18
ATOM     18  S   UNL     1      -1.422  -4.148   5.631  0.00  0.00    -0.116 S 
BRANCH  18  19
ATOM     19  C   UNL     1      -1.646  -5.192   7.033  0.00  0.00    +0.008 A 
ATOM     20  C   UNL     1      -1.614  -6.574   6.884  0.00  0.00    +0.016 A 
ATOM     21  C   UNL     1      -1.784  -7.389   7.985  0.00  0.00    +0.016 A 
ATOM     22  C   UNL     1      -1.998  -6.833   9.233  0.00  0.00    +0.018 A 
ATOM     23  C   UNL     1      -2.036  -5.458   9.384  0.00  0.00    +0.016 A 
ATOM     24  C   UNL     1      -1.861  -4.637   8.288  0.00  0.00    +0.016 A 
ATOM     25 BR   UNL     1      -2.239  -7.954  10.737  0.00  0.00    -0.050 Br
ENDBRANCH  18  19
ENDBRANCH  17  18
ENDBRANCH  11  17
ENDBRANCH   3  10
BRANCH   2  26
ATOM     26  N   UNL     1      -2.913  -3.529   0.955  0.00  0.00    -0.343 N 
ATOM     27  H   UNL     1      -3.601  -2.893   0.705  0.00  0.00    +0.144 HD
ATOM     28  H   UNL     1      -3.026  -4.080   1.744  0.00  0.00    +0.144 HD
ENDBRANCH   2  26
BRANCH   1  29
ATOM     29  C   UNL     1      -2.748  -2.084  -1.438  0.00  0.00    +0.128 C 
BRANCH  29  30
ATOM     30  C   UNL     1      -2.535  -0.674  -0.884  0.00  0.00    +0.021 C 
BRANCH  30  32
ATOM     31  C   UNL     1      -3.462   1.645  -0.797  0.00  0.00    +0.004 C 
ATOM     32  C   UNL     1      -3.674   0.234  -1.351  0.00  0.00    -0.002 C 
ENDBRANCH  30  32
ENDBRANCH  29  30
ENDBRANCH   1  29
TORSDOF 10
