REMARK  Name = ZINC16043123
REMARK  5 active torsions:
REMARK  status: ('A' for Active; 'I' for Inactive)
REMARK    1  A    between atoms: C_1  and  C_2
REMARK    2  A    between atoms: N_21  and  C_24
REMARK    3  A    between atoms: C_24  and  C_25
REMARK    4  A    between atoms: C_25  and  C_26
REMARK    5  A    between atoms: C_25  and  C_27
REMARK                            x       y       z     vdW  Elec       q    Type
REMARK                         _______ _______ _______ _____ _____    ______ ____
ROOT
ATOM      1  C   UNL     1      -0.013   1.086   0.008  0.00  0.00    +0.035 C 
ATOM      2  C   UNL     1      -0.729   1.579   1.267  0.00  0.00    +0.121 C 
ATOM      3  C   UNL     1      -0.078   0.984   2.495  0.00  0.00    +0.041 A 
ATOM      4  C   UNL     1      -0.769   0.384   3.488  0.00  0.00    -0.015 A 
ATOM      5  C   UNL     1       0.199  -0.048   4.476  0.00  0.00    +0.003 A 
ATOM      6  C   UNL     1       0.071  -0.713   5.699  0.00  0.00    +0.010 A 
ATOM      7  C   UNL     1       1.230  -0.967   6.391  0.00  0.00    +0.001 A 
ATOM      8  C   UNL     1       2.473  -0.587   5.910  0.00  0.00    +0.002 A 
ATOM      9  C   UNL     1       2.627   0.072   4.703  0.00  0.00    +0.026 A 
ATOM     10  C   UNL     1       1.468   0.343   3.979  0.00  0.00    +0.047 A 
ATOM     11  N   UNL     1       1.261   0.962   2.779  0.00  0.00    -0.356 N 
ATOM     12  H   UNL     1       1.958   1.330   2.214  0.00  0.00    +0.166 HD
ATOM     13  C   UNL     1      -2.267   0.218   3.512  0.00  0.00    +0.069 C 
ATOM     14  C   UNL     1      -2.889   1.195   2.504  0.00  0.00    +0.167 C 
ATOM     15  N   UNL     1      -2.138   1.133   1.250  0.00  0.00    -0.280 N 
ATOM     16  C   UNL     1      -2.665   0.694   0.106  0.00  0.00    +0.234 C 
ATOM     17  O   UNL     1      -1.935   0.616  -0.860  0.00  0.00    -0.274 OA
ATOM     18  C   UNL     1      -4.093   0.290  -0.067  0.00  0.00    +0.203 C 
ATOM     19  N   UNL     1      -4.860   0.460   1.156  0.00  0.00    -0.291 N 
ATOM     20  C   UNL     1      -4.334   0.865   2.310  0.00  0.00    +0.237 C 
ATOM     21  O   UNL     1      -5.074   0.973   3.265  0.00  0.00    -0.274 OA
ENDROOT
BRANCH  19  22
ATOM     22  C   UNL     1      -6.295   0.168   1.117  0.00  0.00    +0.111 C 
BRANCH  22  23
ATOM     23  C   UNL     1      -6.526  -1.304   1.462  0.00  0.00    +0.000 C 
ATOM     24  C   UNL     1      -6.100  -1.562   2.909  0.00  0.00    +0.009 C 
ATOM     25  C   UNL     1      -8.010  -1.640   1.300  0.00  0.00    +0.009 C 
ENDBRANCH  22  23
ENDBRANCH  19  22
TORSDOF 2
