REMARK  Name = ZINC43209271
REMARK  10 active torsions:
REMARK  status: ('A' for Active; 'I' for Inactive)
REMARK    1  A    between atoms: C_1  and  O_2
REMARK    2  A    between atoms: O_2  and  C_3
REMARK    3  A    between atoms: C_8  and  C_9
REMARK    4  A    between atoms: N_17  and  C_20
REMARK    5  A    between atoms: N_27  and  C_28
REMARK    6  A    between atoms: C_28  and  C_29
REMARK    7  A    between atoms: C_29  and  C_30
REMARK    8  A    between atoms: C_30  and  C_31
REMARK    9  A    between atoms: C_31  and  C_32
REMARK   10  A    between atoms: C_32  and  C_33
REMARK                            x       y       z     vdW  Elec       q    Type
REMARK                         _______ _______ _______ _____ _____    ______ ____
ROOT
ATOM      1  C   UNL     1       0.133  -2.805   0.025  0.00  0.00    +0.133 C 
ATOM      2  C   UNL     1      -1.372  -2.856  -0.204  0.00  0.00    +0.139 C 
ATOM      3  C   UNL     1      -1.638  -4.291   0.390  0.00  0.00    +0.241 C 
ATOM      4  C   UNL     1      -3.070  -4.249   0.616  0.00  0.00    +0.254 C 
ATOM      5  O   UNL     1      -3.856  -5.168   0.529  0.00  0.00    -0.272 OA
ATOM      6  N   UNL     1      -3.347  -2.948   0.948  0.00  0.00    -0.236 N 
ATOM      7  C   UNL     1      -2.305  -2.090   0.681  0.00  0.00    +0.230 C 
ATOM      8  O   UNL     1      -2.162  -0.954   1.080  0.00  0.00    -0.275 OA
ATOM      9  O   UNL     1      -0.695  -5.060  -0.236  0.00  0.00    -0.283 OA
ATOM     10  N   UNL     1       0.561  -4.234  -0.099  0.00  0.00    -0.179 NA
ENDROOT
BRANCH   1  16
ATOM     11  C   UNL     1       2.116  -1.552  -0.860  0.00  0.00    +0.125 A 
ATOM     12  C   UNL     1       2.730  -0.778  -1.834  0.00  0.00    +0.047 A 
ATOM     13  C   UNL     1       2.029  -0.409  -2.965  0.00  0.00    +0.019 A 
ATOM     14  C   UNL     1       0.715  -0.810  -3.128  0.00  0.00    +0.018 A 
ATOM     15  C   UNL     1       0.101  -1.582  -2.158  0.00  0.00    +0.024 A 
ATOM     16  C   UNL     1       0.800  -1.958  -1.028  0.00  0.00    +0.015 A 
ATOM     17 BR   UNL     1      -0.242  -0.303  -4.678  0.00  0.00    -0.050 Br
BRANCH  11  19
ATOM     18  C   UNL     1       4.155  -1.463   0.360  0.00  0.00    +0.277 C 
ATOM     19  O   UNL     1       2.804  -1.917   0.254  0.00  0.00    -0.495 OA
ENDBRANCH  11  19
ENDBRANCH   1  16
BRANCH   6  20
ATOM     20  C   UNL     1      -4.624  -2.511   1.518  0.00  0.00    +0.084 C 
ATOM     21  C   UNL     1      -4.867  -3.237   2.842  0.00  0.00    +0.023 C 
ATOM     22  C   UNL     1      -6.201  -2.781   3.437  0.00  0.00    +0.002 C 
ATOM     23  C   UNL     1      -7.333  -3.108   2.461  0.00  0.00    +0.000 C 
ATOM     24  C   UNL     1      -7.090  -2.383   1.136  0.00  0.00    +0.002 C 
ATOM     25  C   UNL     1      -5.756  -2.839   0.542  0.00  0.00    +0.023 C 
ENDBRANCH   6  20
BRANCH  10  26
ATOM     26  C   UNL     1       1.438  -4.421  -1.262  0.00  0.00    +0.115 C 
BRANCH  26  27
ATOM     27  C   UNL     1       1.937  -5.867  -1.296  0.00  0.00    +0.018 C 
BRANCH  27  28
ATOM     28  C   UNL     1       2.851  -6.062  -2.508  0.00  0.00    +0.002 C 
BRANCH  28  29
ATOM     29  C   UNL     1       3.350  -7.508  -2.542  0.00  0.00    +0.009 C 
BRANCH  29  30
ATOM     30  C   UNL     1       4.264  -7.704  -3.753  0.00  0.00    +0.095 C 
BRANCH  30  31
ATOM     31  C   UNL     1       4.756  -9.128  -3.787  0.00  0.00    +0.210 C 
ATOM     32  O   UNL     1       4.410  -9.909  -2.927  0.00  0.00    -0.276 OA
ATOM     33  N   UNL     1       5.580  -9.533  -4.773  0.00  0.00    -0.329 N 
ATOM     34  H   UNL     1       5.857  -8.908  -5.461  0.00  0.00    +0.145 HD
ATOM     35  H   UNL     1       5.897 -10.450  -4.795  0.00  0.00    +0.145 HD
ENDBRANCH  30  31
ENDBRANCH  29  30
ENDBRANCH  28  29
ENDBRANCH  27  28
ENDBRANCH  26  27
ENDBRANCH  10  26
TORSDOF 9
