REMARK  Name = ZINC38845442
REMARK  12 active torsions:
REMARK  status: ('A' for Active; 'I' for Inactive)
REMARK    1  A    between atoms: C_1  and  C_2
REMARK    2  A    between atoms: C_2  and  N_3
REMARK    3  A    between atoms: N_3  and  C_4
REMARK    4  A    between atoms: N_3  and  C_6
REMARK    5  A    between atoms: C_4  and  C_5
REMARK    6  A    between atoms: C_6  and  C_7
REMARK    7  A    between atoms: C_7  and  N_8
REMARK    8  A    between atoms: C_14  and  S_18
REMARK    9  A    between atoms: S_18  and  C_21
REMARK   10  A    between atoms: C_22  and  C_24
REMARK   11  A    between atoms: C_26  and  N_33
REMARK   12  A    between atoms: C_28  and  N_30
REMARK                            x       y       z     vdW  Elec       q    Type
REMARK                         _______ _______ _______ _____ _____    ______ ____
ROOT
ATOM      1  N   UNL     1      -0.972  -3.672  -1.869  0.00  0.00    -0.248 N 
ATOM      2  C   UNL     1      -1.333  -4.567  -0.877  0.00  0.00    +0.168 A 
ATOM      3  N   UNL     1      -0.876  -4.665   0.350  0.00  0.00    -0.224 NA
ATOM      4  C   UNL     1      -1.325  -5.596   1.219  0.00  0.00    +0.080 A 
ATOM      5  C   UNL     1      -0.920  -5.808   2.558  0.00  0.00    +0.031 A 
ATOM      6  C   UNL     1      -1.482  -6.806   3.309  0.00  0.00    +0.029 A 
ATOM      7  C   UNL     1      -2.461  -7.641   2.790  0.00  0.00    +0.089 A 
ATOM      8  C   UNL     1      -2.881  -7.463   1.484  0.00  0.00    +0.044 A 
ATOM      9  C   UNL     1      -2.324  -6.465   0.724  0.00  0.00    +0.043 A 
ATOM     10  S   UNL     1      -2.546  -5.878  -0.938  0.00  0.00    -0.052 S 
ATOM     11  C   UNL     1      -1.568  -3.728  -3.077  0.00  0.00    +0.252 C 
ATOM     12  O   UNL     1      -2.481  -4.507  -3.269  0.00  0.00    -0.270 OA
ENDROOT
BRANCH  11  13
ATOM     13  C   UNL     1      -1.111  -2.842  -4.168  0.00  0.00    +0.042 A 
ATOM     14  C   UNL     1      -0.625  -3.388  -5.358  0.00  0.00    +0.046 A 
ATOM     15  C   UNL     1      -0.200  -2.555  -6.372  0.00  0.00    +0.129 A 
ATOM     16  C   UNL     1      -0.255  -1.182  -6.213  0.00  0.00    +0.065 A 
ATOM     17  C   UNL     1      -0.735  -0.634  -5.037  0.00  0.00    +0.129 A 
ATOM     18  C   UNL     1      -1.169  -1.455  -4.016  0.00  0.00    +0.046 A 
BRANCH  17  19
ATOM     19  N   UNL     1      -0.789   0.836  -4.875  0.00  0.00    +0.057 N 
ATOM     20  O   UNL     1      -0.415   1.557  -5.770  0.00  0.00    -0.126 OA
ATOM     21  O   UNL     1      -1.209   1.316  -3.847  0.00  0.00    -0.126 OA
ENDBRANCH  17  19
BRANCH  15  22
ATOM     22  N   UNL     1       0.315  -3.132  -7.634  0.00  0.00    +0.057 N 
ATOM     23  O   UNL     1       0.364  -4.332  -7.775  0.00  0.00    -0.126 OA
ATOM     24  O   UNL     1       0.688  -2.404  -8.524  0.00  0.00    -0.126 OA
ENDBRANCH  15  22
ENDBRANCH  11  13
BRANCH   7  25
ATOM     25  S   UNL     1      -3.161  -8.917   3.783  0.00  0.00    -0.006 S 
ATOM     26  O   UNL     1      -3.601  -9.899   2.856  0.00  0.00    -0.170 OA
ATOM     27  O   UNL     1      -2.157  -9.223   4.741  0.00  0.00    -0.170 OA
ATOM     28  C   UNL     1      -4.586  -8.144   4.598  0.00  0.00    +0.200 C 
ENDBRANCH   7  25
BRANCH   1  29
ATOM     29  C   UNL     1       0.058  -2.663  -1.607  0.00  0.00    +0.097 C 
BRANCH  29  30
ATOM     30  C   UNL     1       1.413  -3.179  -2.095  0.00  0.00    -0.059 C 
BRANCH  30  31
ATOM     31  N   UNL     1       2.446  -2.168  -1.832  0.00  0.00    +0.380 N 
ATOM     32  H   UNL     1       2.174  -1.292  -2.252  0.00  0.00    -0.082 HD
BRANCH  31  34
ATOM     33  C   UNL     1       3.636  -0.900  -0.108  0.00  0.00    -0.017 C 
ATOM     34  C   UNL     1       2.597  -1.990  -0.381  0.00  0.00    -0.082 C 
ENDBRANCH  31  34
BRANCH  31  35
ATOM     35  C   UNL     1       3.723  -2.611  -2.407  0.00  0.00    -0.082 C 
ATOM     36  C   UNL     1       3.579  -2.746  -3.924  0.00  0.00    -0.017 C 
ENDBRANCH  31  35
ENDBRANCH  30  31
ENDBRANCH  29  30
ENDBRANCH   1  29
TORSDOF 9
