REMARK  Name = ZINC20295046
REMARK  11 active torsions:
REMARK  status: ('A' for Active; 'I' for Inactive)
REMARK    1  A    between atoms: C_1  and  C_2
REMARK    2  A    between atoms: C_3  and  C_26
REMARK    3  A    between atoms: C_4  and  N_10
REMARK    4  A    between atoms: C_6  and  C_7
REMARK    5  A    between atoms: C_11  and  C_13
REMARK    6  A    between atoms: C_13  and  S_14
REMARK    7  A    between atoms: S_14  and  C_15
REMARK    8  A    between atoms: C_18  and  C_21
REMARK    9  A    between atoms: N_19  and  C_20
REMARK   10  A    between atoms: C_26  and  O_28
REMARK   11  A    between atoms: O_28  and  C_29
REMARK                            x       y       z     vdW  Elec       q    Type
REMARK                         _______ _______ _______ _____ _____    ______ ____
ROOT
ATOM      1  N   UNL     1       1.143   1.898   0.001  0.00  0.00    -0.279 N 
ATOM      2  C   UNL     1      -0.014   1.208   0.009  0.00  0.00    +0.228 C 
ATOM      3  O   UNL     1       0.002  -0.004   0.002  0.00  0.00    -0.275 OA
ATOM      4  H   UNL     1       1.129   2.998   0.007  0.00  0.00    +0.155 HD
ENDROOT
BRANCH   1   8
ATOM      5  C   UNL     1       6.132   1.346  -0.049  0.00  0.00    +0.046 C 
ATOM      6  C   UNL     1       4.705   0.861  -0.037  0.00  0.00    -0.015 A 
ATOM      7  C   UNL     1       3.644   1.753  -0.023  0.00  0.00    +0.091 A 
ATOM      8  C   UNL     1       2.349   1.224  -0.014  0.00  0.00    +0.087 A 
ATOM      9  S   UNL     1       2.630  -0.486  -0.018  0.00  0.00    -0.068 S 
ATOM     10  C   UNL     1       4.412  -0.476  -0.041  0.00  0.00    +0.079 A 
BRANCH  10  11
ATOM     11  C   UNL     1       5.334  -1.614  -0.055  0.00  0.00    +0.248 C 
ATOM     12  O   UNL     1       6.536  -1.423  -0.065  0.00  0.00    -0.270 OA
ATOM     13  N   UNL     1       4.850  -2.872  -0.056  0.00  0.00    -0.325 N 
ATOM     14  H   UNL     1       5.543  -3.727  -0.067  0.00  0.00    +0.145 HD
ATOM     15  H   UNL     1       3.764  -3.044  -0.047  0.00  0.00    +0.145 HD
ENDBRANCH  10  11
BRANCH   7  16
ATOM     16  C   UNL     1       3.871   3.203  -0.019  0.00  0.00    +0.342 C 
ATOM     17  O   UNL     1       3.975   3.799   1.036  0.00  0.00    -0.245 OA
BRANCH  16  18
ATOM     18  O   UNL     1       3.964   3.874  -1.185  0.00  0.00    -0.464 OA
ATOM     19  C   UNL     1       4.189   5.306  -1.104  0.00  0.00    +0.280 C 
ENDBRANCH  16  18
ENDBRANCH   7  16
ENDBRANCH   1   8
BRANCH   2  20
ATOM     20  C   UNL     1      -1.330   1.944   0.019  0.00  0.00    +0.173 C 
BRANCH  20  21
ATOM     21  S   UNL     1      -2.689   0.749   0.019  0.00  0.00    -0.077 S 
BRANCH  21  22
ATOM     22  C   UNL     1      -4.064   1.851   0.031  0.00  0.00    +0.192 A 
ATOM     23  N   UNL     1      -4.011   3.163   0.044  0.00  0.00    -0.122 NA
ATOM     24  N   UNL     1      -5.198   3.655   0.048  0.00  0.00    -0.128 NA
ATOM     25  C   UNL     1      -6.086   2.684   0.046  0.00  0.00    +0.171 A 
ATOM     26  N   UNL     1      -5.386   1.498   0.036  0.00  0.00    -0.305 N 
ATOM     27  C   UNL     1      -5.940   0.142   0.030  0.00  0.00    +0.153 C 
BRANCH  25  28
ATOM     28  C   UNL     1      -7.550   2.837   0.054  0.00  0.00    +0.056 A 
ATOM     29  C   UNL     1      -8.302   3.946   0.346  0.00  0.00    +0.019 A 
ATOM     30  C   UNL     1      -9.674   3.850   0.282  0.00  0.00    +0.008 A 
ATOM     31  C   UNL     1     -10.239   2.662  -0.055  0.00  0.00    +0.046 A 
ATOM     32  S   UNL     1      -8.809   1.623  -0.305  0.00  0.00    -0.094 S 
ENDBRANCH  25  28
ENDBRANCH  21  22
ENDBRANCH  20  21
ENDBRANCH   2  20
TORSDOF 8
