REMARK  Name = ZINC54617423
REMARK  12 active torsions:
REMARK  status: ('A' for Active; 'I' for Inactive)
REMARK    1  A    between atoms: C_1  and  C_2
REMARK    2  A    between atoms: C_2  and  C_3
REMARK    3  A    between atoms: C_3  and  S_4
REMARK    4  A    between atoms: S_4  and  C_5
REMARK    5  A    between atoms: C_10  and  C_27
REMARK    6  A    between atoms: C_12  and  C_16
REMARK    7  A    between atoms: C_13  and  C_15
REMARK    8  A    between atoms: N_18  and  C_19
REMARK    9  A    between atoms: C_23  and  C_26
REMARK   10  A    between atoms: C_24  and  C_25
REMARK   11  A    between atoms: C_30  and  O_36
REMARK   12  A    between atoms: C_31  and  N_33
REMARK                            x       y       z     vdW  Elec       q    Type
REMARK                         _______ _______ _______ _____ _____    ______ ____
ROOT
ATOM      1  C   UNL     1       1.432  -2.750  -2.832  0.00  0.00    +0.210 A 
ATOM      2  N   UNL     1       1.964  -1.878  -3.701  0.00  0.00    -0.187 NA
ATOM      3  C   UNL     1       2.547  -2.529  -4.670  0.00  0.00    +0.219 A 
ATOM      4  N   UNL     1       2.402  -3.856  -4.434  0.00  0.00    -0.220 N 
ATOM      5  N   UNL     1       1.683  -3.974  -3.246  0.00  0.00    -0.141 NA
ATOM      6  C   UNL     1       2.939  -4.896  -5.308  0.00  0.00    +0.177 C 
ATOM      7  C   UNL     1       3.386  -4.278  -6.606  0.00  0.00    +0.060 C 
ATOM      8  C   UNL     1       3.508  -2.955  -6.783  0.00  0.00    +0.018 C 
ATOM      9  N   UNL     1       3.220  -2.053  -5.788  0.00  0.00    -0.287 N 
ATOM     10  C   UNL     1       3.976  -2.439  -8.120  0.00  0.00    +0.061 C 
ATOM     11  H   UNL     1       3.477  -1.121  -5.863  0.00  0.00    +0.155 HD
ENDROOT
BRANCH   6  12
ATOM     12  C   UNL     1       4.113  -5.559  -4.636  0.00  0.00    -0.016 A 
ATOM     13  C   UNL     1       5.220  -4.810  -4.282  0.00  0.00    +0.010 A 
ATOM     14  C   UNL     1       6.298  -5.416  -3.666  0.00  0.00    +0.048 A 
ATOM     15  C   UNL     1       6.269  -6.778  -3.403  0.00  0.00    +0.147 A 
ATOM     16  C   UNL     1       5.158  -7.527  -3.759  0.00  0.00    +0.168 A 
ATOM     17  C   UNL     1       4.080  -6.916  -4.370  0.00  0.00    +0.042 A 
BRANCH  16  18
ATOM     18  N   UNL     1       5.125  -8.981  -3.481  0.00  0.00    +0.060 N 
ATOM     19  O   UNL     1       4.156  -9.634  -3.791  0.00  0.00    -0.126 OA
ATOM     20  O   UNL     1       6.066  -9.515  -2.942  0.00  0.00    -0.126 OA
ENDBRANCH  16  18
BRANCH  15  21
ATOM     21  O   UNL     1       7.329  -7.376  -2.797  0.00  0.00    -0.504 OA
ATOM     22  H   UNL     1       7.274  -7.389  -1.832  0.00  0.00    +0.292 HD
ENDBRANCH  15  21
ENDBRANCH   6  12
BRANCH   7  23
ATOM     23  C   UNL     1       3.693  -5.135  -7.690  0.00  0.00    +0.248 C 
ATOM     24  O   UNL     1       2.795  -5.666  -8.318  0.00  0.00    -0.270 OA
ATOM     25  N   UNL     1       4.978  -5.363  -8.026  0.00  0.00    -0.281 N 
ATOM     26  H   UNL     1       5.693  -4.990  -7.487  0.00  0.00    +0.155 HD
BRANCH  25  27
ATOM     27  C   UNL     1       5.279  -6.137  -9.151  0.00  0.00    +0.037 A 
ATOM     28  C   UNL     1       4.465  -7.207  -9.499  0.00  0.00    +0.023 A 
ATOM     29  C   UNL     1       4.765  -7.969 -10.610  0.00  0.00    +0.002 A 
ATOM     30  C   UNL     1       5.877  -7.668 -11.377  0.00  0.00    +0.004 A 
ATOM     31  C   UNL     1       6.690  -6.604 -11.033  0.00  0.00    -0.046 A 
ATOM     32  C   UNL     1       6.391  -5.834  -9.926  0.00  0.00    -0.026 A 
ATOM     33  C   UNL     1       7.274  -4.670  -9.556  0.00  0.00    +0.046 C 
ATOM     34  C   UNL     1       7.899  -6.280 -11.871  0.00  0.00    +0.044 C 
ENDBRANCH  25  27
ENDBRANCH   7  23
BRANCH   1  35
ATOM     35  S   UNL     1       0.546  -2.326  -1.370  0.00  0.00    -0.084 S 
BRANCH  35  36
ATOM     36  C   UNL     1       0.544  -0.512  -1.369  0.00  0.00    +0.077 C 
BRANCH  36  38
ATOM     37  C   UNL     1      -0.206   1.527  -0.133  0.00  0.00    +0.004 C 
ATOM     38  C   UNL     1      -0.204  -0.003  -0.134  0.00  0.00    +0.008 C 
ENDBRANCH  36  38
ENDBRANCH  35  36
ENDBRANCH   1  35
TORSDOF 8
