REMARK  Name = ZINC63166539
REMARK  8 active torsions:
REMARK  status: ('A' for Active; 'I' for Inactive)
REMARK    1  A    between atoms: C_4  and  C_7
REMARK    2  A    between atoms: C_7  and  C_8
REMARK    3  A    between atoms: C_7  and  C_14
REMARK    4  A    between atoms: N_16  and  C_17
REMARK    5  A    between atoms: C_17  and  C_19
REMARK    6  A    between atoms: C_17  and  C_29
REMARK    7  A    between atoms: C_19  and  C_20
REMARK    8  A    between atoms: N_31  and  C_32
REMARK                            x       y       z     vdW  Elec       q    Type
REMARK                         _______ _______ _______ _____ _____    ______ ____
ROOT
ATOM      1  C   UNL     1       3.583  -2.115  -3.595  0.00  0.00    +0.163 C 
ENDROOT
BRANCH   1   4
ATOM      2  C   UNL     1       3.712  -1.660  -1.205  0.00  0.00    +0.225 C 
ATOM      3  O   UNL     1       3.830  -2.852  -1.014  0.00  0.00    -0.275 OA
ATOM      4  N   UNL     1       3.582  -1.188  -2.460  0.00  0.00    -0.303 N 
ATOM      5  H   UNL     1       3.487  -0.235  -2.613  0.00  0.00    +0.149 HD
BRANCH   2   6
ATOM      6  C   UNL     1       3.711  -0.707  -0.038  0.00  0.00    +0.135 C 
BRANCH   6  10
ATOM      7  C   UNL     1       0.019   1.440   0.047  0.00  0.00    +0.000 A 
ATOM      8  C   UNL     1       0.015   0.059  -0.029  0.00  0.00    +0.000 A 
ATOM      9  C   UNL     1       1.209  -0.635  -0.057  0.00  0.00    +0.005 A 
ATOM     10  C   UNL     1       2.409   0.050  -0.009  0.00  0.00    -0.031 A 
ATOM     11  C   UNL     1       2.413   1.431   0.067  0.00  0.00    +0.005 A 
ATOM     12  C   UNL     1       1.219   2.125   0.096  0.00  0.00    +0.000 A 
ENDBRANCH   6  10
BRANCH   6  13
ATOM     13  C   UNL     1       3.870  -1.483   1.245  0.00  0.00    -0.031 A 
ATOM     14  C   UNL     1       3.012  -2.528   1.531  0.00  0.00    +0.005 A 
ATOM     15  C   UNL     1       3.158  -3.240   2.707  0.00  0.00    +0.000 A 
ATOM     16  C   UNL     1       4.161  -2.906   3.597  0.00  0.00    +0.000 A 
ATOM     17  C   UNL     1       5.020  -1.861   3.310  0.00  0.00    +0.000 A 
ATOM     18  C   UNL     1       4.877  -1.153   2.132  0.00  0.00    +0.005 A 
ENDBRANCH   6  13
ENDBRANCH   2   6
ENDBRANCH   1   4
BRANCH   1  19
ATOM     19  C   UNL     1       2.190  -2.651  -3.807  0.00  0.00    +0.234 C 
ATOM     20  O   UNL     1       1.286  -2.295  -3.081  0.00  0.00    -0.274 OA
ATOM     21  N   UNL     1       1.949  -3.527  -4.802  0.00  0.00    -0.311 N 
ATOM     22  H   UNL     1       2.672  -3.813  -5.382  0.00  0.00    +0.149 HD
BRANCH  21  23
ATOM     23  C   UNL     1       0.596  -4.049  -5.008  0.00  0.00    +0.073 C 
ATOM     24  C   UNL     1       0.368  -5.252  -4.091  0.00  0.00    +0.022 C 
ATOM     25  C   UNL     1      -1.046  -5.797  -4.306  0.00  0.00    +0.002 C 
ATOM     26  C   UNL     1      -1.210  -6.228  -5.765  0.00  0.00    +0.000 C 
ATOM     27  C   UNL     1      -0.982  -5.024  -6.681  0.00  0.00    +0.002 C 
ATOM     28  C   UNL     1       0.432  -4.480  -6.466  0.00  0.00    +0.022 C 
ENDBRANCH  21  23
ENDBRANCH   1  19
BRANCH   1  29
ATOM     29  C   UNL     1       4.042  -1.379  -4.855  0.00  0.00    +0.065 C 
BRANCH  29  30
ATOM     30  C   UNL     1       5.477  -0.949  -4.690  0.00  0.00    -0.039 C 
ATOM     31  C   UNL     1       6.578  -1.609  -5.117  0.00  0.00    -0.001 A 
ATOM     32  C   UNL     1       6.761  -2.876  -5.835  0.00  0.00    +0.010 A 
ATOM     33  C   UNL     1       8.016  -3.287  -6.131  0.00  0.00    +0.001 A 
ATOM     34  C   UNL     1       9.142  -2.535  -5.769  0.00  0.00    +0.002 A 
ATOM     35  C   UNL     1       9.054  -1.361  -5.109  0.00  0.00    +0.026 A 
ATOM     36  C   UNL     1       7.783  -0.833  -4.747  0.00  0.00    +0.043 A 
ATOM     37  N   UNL     1       7.441   0.264  -4.116  0.00  0.00    -0.380 N 
ATOM     38  C   UNL     1       5.978   0.310  -4.019  0.00  0.00    +0.144 C 
ATOM     39  H   UNL     1       8.053   0.934  -3.773  0.00  0.00    +0.160 HD
ENDBRANCH  29  30
ENDBRANCH   1  29
TORSDOF 8
