REMARK  Name = ZINC20566116
REMARK  8 active torsions:
REMARK  status: ('A' for Active; 'I' for Inactive)
REMARK    1  A    between atoms: C_1  and  C_2
REMARK    2  A    between atoms: C_2  and  C_3
REMARK    3  A    between atoms: C_3  and  C_4
REMARK    4  A    between atoms: C_4  and  N_5
REMARK    5  A    between atoms: C_10  and  C_28
REMARK    6  A    between atoms: C_28  and  C_29
REMARK    7  A    between atoms: C_29  and  C_30
REMARK    8  A    between atoms: C_29  and  C_31
REMARK                            x       y       z     vdW  Elec       q    Type
REMARK                         _______ _______ _______ _____ _____    ______ ____
ROOT
ATOM      1  N   UNL     1       1.425  -2.500  -2.470  0.00  0.00    -0.242 N 
ATOM      2  C   UNL     1       0.784  -2.738  -3.621  0.00  0.00    +0.224 C 
ATOM      3  O   UNL     1      -0.406  -2.598  -3.802  0.00  0.00    -0.275 OA
ATOM      4  C   UNL     1       1.777  -3.208  -4.661  0.00  0.00    +0.073 C 
ATOM      5  C   UNL     1       1.920  -2.123  -5.749  0.00  0.00    -0.057 C 
ATOM      6  N   UNL     1       3.386  -1.989  -5.964  0.00  0.00    +0.394 N 
ATOM      7  C   UNL     1       3.962  -2.116  -4.612  0.00  0.00    +0.050 C 
ATOM      8  C   UNL     1       3.128  -3.205  -3.893  0.00  0.00    +0.088 C 
ATOM      9  C   UNL     1       2.743  -2.723  -2.512  0.00  0.00    +0.225 C 
ATOM     10  O   UNL     1       3.510  -2.565  -1.587  0.00  0.00    -0.275 OA
ATOM     11  C   UNL     1       5.416  -2.489  -4.667  0.00  0.00    -0.025 A 
ATOM     12  C   UNL     1       6.100  -3.559  -5.200  0.00  0.00    +0.043 A 
ATOM     13  C   UNL     1       7.479  -3.624  -5.090  0.00  0.00    +0.124 A 
ATOM     14  C   UNL     1       8.166  -2.611  -4.442  0.00  0.00    +0.040 A 
ATOM     15  C   UNL     1       7.483  -1.539  -3.906  0.00  0.00    +0.026 A 
ATOM     16  C   UNL     1       6.097  -1.467  -4.013  0.00  0.00    +0.036 A 
ATOM     17  N   UNL     1       5.195  -0.499  -3.561  0.00  0.00    -0.286 N 
ATOM     18  C   UNL     1       3.922  -0.806  -3.873  0.00  0.00    +0.211 C 
ATOM     19  O   UNL     1       2.934  -0.153  -3.610  0.00  0.00    -0.277 OA
ATOM     20  F   UNL     1       8.152  -4.673  -5.613  0.00  0.00    -0.205 F 
ATOM     21  H   UNL     1       3.724  -2.728  -6.562  0.00  0.00    -0.083 HD
ATOM     22  H   UNL     1       5.457   0.301  -3.078  0.00  0.00    +0.155 HD
ATOM     23  H   UNL     1       3.604  -1.086  -6.357  0.00  0.00    -0.083 HD
ENDROOT
BRANCH   1  24
ATOM     24  C   UNL     1       0.739  -2.027  -1.265  0.00  0.00    +0.116 C 
BRANCH  24  25
ATOM     25  C   UNL     1       0.718  -0.497  -1.257  0.00  0.00    +0.019 C 
BRANCH  25  27
ATOM     26  C   UNL     1      -0.019   1.526   0.010  0.00  0.00    +0.004 C 
ATOM     27  C   UNL     1       0.002  -0.004   0.002  0.00  0.00    -0.002 C 
ENDBRANCH  25  27
ENDBRANCH  24  25
ENDBRANCH   1  24
BRANCH   5  28
ATOM     28  C   UNL     1       1.230  -2.568  -7.040  0.00  0.00    -0.012 C 
BRANCH  28  29
ATOM     29  C   UNL     1       1.276  -1.431  -8.062  0.00  0.00    -0.019 C 
ATOM     30  C   UNL     1       0.697  -1.917  -9.392  0.00  0.00    +0.007 C 
ATOM     31  C   UNL     1       0.450  -0.249  -7.548  0.00  0.00    +0.007 C 
ENDBRANCH  28  29
ENDBRANCH   5  28
TORSDOF 5
