REMARK  Name = ZINC39921271
REMARK  9 active torsions:
REMARK  status: ('A' for Active; 'I' for Inactive)
REMARK    1  A    between atoms: C_1  and  C_2
REMARK    2  A    between atoms: C_2  and  O_3
REMARK    3  A    between atoms: O_3  and  C_4
REMARK    4  A    between atoms: C_7  and  C_10
REMARK    5  A    between atoms: C_25  and  N_32
REMARK    6  A    between atoms: C_26  and  C_27
REMARK    7  A    between atoms: C_27  and  O_29
REMARK    8  A    between atoms: O_29  and  C_30
REMARK    9  A    between atoms: C_30  and  C_31
REMARK                            x       y       z     vdW  Elec       q    Type
REMARK                         _______ _______ _______ _____ _____    ______ ____
ROOT
ATOM      1  C   UNL     1      -1.876  -6.229  -0.054  0.00  0.00    +0.080 C 
ATOM      2  C   UNL     1      -2.619  -6.589   1.237  0.00  0.00    +0.154 C 
ATOM      3  C   UNL     1      -3.281  -7.929   0.960  0.00  0.00    +0.129 C 
ATOM      4  C   UNL     1      -2.948  -9.001   1.772  0.00  0.00    +0.035 A 
ATOM      5  C   UNL     1      -3.535 -10.270   1.589  0.00  0.00    +0.013 A 
ATOM      6  C   UNL     1      -3.188 -11.297   2.410  0.00  0.00    +0.001 A 
ATOM      7  C   UNL     1      -2.260 -11.124   3.433  0.00  0.00    +0.002 A 
ATOM      8  C   UNL     1      -1.657  -9.923   3.659  0.00  0.00    +0.024 A 
ATOM      9  C   UNL     1      -1.966  -8.818   2.848  0.00  0.00    +0.044 A 
ATOM     10  N   UNL     1      -1.367  -7.641   3.064  0.00  0.00    -0.284 N 
ATOM     11  C   UNL     1      -1.612  -6.533   2.364  0.00  0.00    +0.229 C 
ATOM     12  O   UNL     1      -1.035  -5.490   2.614  0.00  0.00    -0.275 OA
ATOM     13  O   UNL     1      -4.141  -8.017  -0.058  0.00  0.00    -0.445 OA
ATOM     14  C   UNL     1      -3.804  -7.363  -1.194  0.00  0.00    +0.194 C 
ATOM     15  C   UNL     1      -2.756  -6.508  -1.241  0.00  0.00    +0.102 C 
ATOM     16  H   UNL     1      -0.716  -7.585   3.782  0.00  0.00    +0.155 HD
ENDROOT
BRANCH   1  20
ATOM     17  C   UNL     1      -0.848  -2.081   0.009  0.00  0.00    +0.121 A 
ATOM     18  C   UNL     1       0.148  -3.043  -0.082  0.00  0.00    +0.046 A 
ATOM     19  C   UNL     1      -0.187  -4.383  -0.102  0.00  0.00    +0.008 A 
ATOM     20  C   UNL     1      -1.513  -4.766  -0.031  0.00  0.00    -0.038 A 
ATOM     21  C   UNL     1      -2.508  -3.810   0.059  0.00  0.00    +0.008 A 
ATOM     22  C   UNL     1      -2.178  -2.469   0.086  0.00  0.00    +0.046 A 
BRANCH  17  23
ATOM     23  O   UNL     1      -0.521  -0.762   0.030  0.00  0.00    -0.492 OA
BRANCH  23  25
ATOM     24  C   UNL     1       1.039   1.083  -0.015  0.00  0.00    +0.048 C 
ATOM     25  C   UNL     1       0.868  -0.437  -0.052  0.00  0.00    +0.225 C 
ENDBRANCH  23  25
ENDBRANCH  17  23
ENDBRANCH   1  20
BRANCH  14  26
ATOM     26  N   UNL     1      -4.542  -7.574  -2.328  0.00  0.00    -0.329 N 
ATOM     27  H   UNL     1      -5.244  -8.244  -2.332  0.00  0.00    +0.145 HD
ATOM     28  H   UNL     1      -4.364  -7.053  -3.126  0.00  0.00    +0.145 HD
ENDBRANCH  14  26
BRANCH  15  29
ATOM     29  C   UNL     1      -2.480  -5.852  -2.451  0.00  0.00    +0.341 C 
ATOM     30  O   UNL     1      -1.561  -6.233  -3.154  0.00  0.00    -0.245 OA
BRANCH  29  31
ATOM     31  O   UNL     1      -3.232  -4.798  -2.836  0.00  0.00    -0.462 OA
BRANCH  31  32
ATOM     32  C   UNL     1      -2.894  -4.179  -4.079  0.00  0.00    +0.229 C 
ATOM     33  C   UNL     1      -3.849  -3.014  -4.345  0.00  0.00    +0.048 C 
ENDBRANCH  31  32
ENDBRANCH  29  31
ENDBRANCH  15  29
TORSDOF 7
