REMARK  Name = ZINC09244170
REMARK  9 active torsions:
REMARK  status: ('A' for Active; 'I' for Inactive)
REMARK    1  A    between atoms: C_1  and  C_2
REMARK    2  A    between atoms: C_2  and  C_3
REMARK    3  A    between atoms: C_3  and  O_4
REMARK    4  A    between atoms: O_4  and  C_5
REMARK    5  A    between atoms: C_8  and  C_11
REMARK    6  A    between atoms: C_18  and  N_34
REMARK    7  A    between atoms: C_19  and  C_32
REMARK    8  A    between atoms: C_20  and  C_22
REMARK    9  A    between atoms: C_25  and  C_28
REMARK                            x       y       z     vdW  Elec       q    Type
REMARK                         _______ _______ _______ _____ _____    ______ ____
ROOT
ATOM      1  C   UNL     1      -6.376  -4.577   0.038  0.00  0.00    +0.074 A 
ATOM      2  C   UNL     1      -6.724  -5.631   0.815  0.00  0.00    +0.054 A 
ATOM      3  C   UNL     1      -8.054  -5.979   0.509  0.00  0.00    +0.245 A 
ATOM      4  N   UNL     1      -8.489  -5.167  -0.411  0.00  0.00    -0.135 NA
ATOM      5  N   UNL     1      -7.462  -4.265  -0.730  0.00  0.00    -0.273 N 
ATOM      6  H   UNL     1      -7.513  -3.549  -1.382  0.00  0.00    +0.189 HD
ATOM      7  O   UNL     1      -8.689  -7.011   1.129  0.00  0.00    -0.421 OA
ATOM      8  C   UNL     1      -7.933  -7.865   1.846  0.00  0.00    +0.201 C 
ATOM      9  C   UNL     1      -6.654  -7.635   2.208  0.00  0.00    +0.098 C 
ATOM     10  C   UNL     1      -5.913  -6.372   1.847  0.00  0.00    +0.102 C 
ENDROOT
BRANCH   1  14
ATOM     11  C   UNL     1      -2.616  -2.596   0.013  0.00  0.00    +0.121 A 
ATOM     12  C   UNL     1      -3.790  -1.854   0.022  0.00  0.00    +0.046 A 
ATOM     13  C   UNL     1      -5.011  -2.493   0.031  0.00  0.00    +0.013 A 
ATOM     14  C   UNL     1      -5.067  -3.887   0.029  0.00  0.00    +0.000 A 
ATOM     15  C   UNL     1      -3.886  -4.629   0.019  0.00  0.00    +0.013 A 
ATOM     16  C   UNL     1      -2.668  -3.983   0.006  0.00  0.00    +0.046 A 
BRANCH  11  17
ATOM     17  O   UNL     1      -1.414  -1.962   0.005  0.00  0.00    -0.492 OA
BRANCH  17  18
ATOM     18  C   UNL     1      -1.433  -0.534   0.013  0.00  0.00    +0.229 C 
BRANCH  18  20
ATOM     19  C   UNL     1      -0.019   1.526   0.010  0.00  0.00    +0.007 C 
ATOM     20  C   UNL     1       0.002  -0.004   0.002  0.00  0.00    +0.038 C 
ENDBRANCH  18  20
ENDBRANCH  17  18
ENDBRANCH  11  17
ENDBRANCH   1  14
BRANCH  10  21
ATOM     21  C   UNL     1      -5.746  -5.513   3.074  0.00  0.00    -0.035 A 
ATOM     22  C   UNL     1      -6.857  -5.087   3.777  0.00  0.00    +0.005 A 
ATOM     23  C   UNL     1      -6.704  -4.299   4.902  0.00  0.00    +0.012 A 
ATOM     24  C   UNL     1      -5.438  -3.937   5.325  0.00  0.00    +0.055 A 
ATOM     25  C   UNL     1      -4.327  -4.364   4.623  0.00  0.00    +0.012 A 
ATOM     26  C   UNL     1      -4.480  -5.155   3.500  0.00  0.00    +0.005 A 
BRANCH  24  27
ATOM     27  C   UNL     1      -5.271  -3.077   6.551  0.00  0.00    +0.417 C 
ATOM     28  F   UNL     1      -5.160  -3.893   7.682  0.00  0.00    -0.166 F 
ATOM     29  F   UNL     1      -4.114  -2.301   6.422  0.00  0.00    -0.166 F 
ATOM     30  F   UNL     1      -6.382  -2.239   6.688  0.00  0.00    -0.166 F 
ENDBRANCH  24  27
ENDBRANCH  10  21
BRANCH   8  31
ATOM     31  N   UNL     1      -8.504  -9.051   2.236  0.00  0.00    -0.328 N 
ATOM     32  H   UNL     1      -9.422  -9.250   1.994  0.00  0.00    +0.145 HD
ATOM     33  H   UNL     1      -7.989  -9.690   2.753  0.00  0.00    +0.145 HD
ENDBRANCH   8  31
BRANCH   9  34
ATOM     34  C   UNL     1      -5.968  -8.636   2.968  0.00  0.00    +0.101 C 
ATOM     35  N   UNL     1      -5.423  -9.430   3.572  0.00  0.00    -0.191 NA
ENDBRANCH   9  34
TORSDOF 8
