REMARK  Name = ZINC00850889
REMARK  13 active torsions:
REMARK  status: ('A' for Active; 'I' for Inactive)
REMARK    1  A    between atoms: C_1  and  C_2
REMARK    2  A    between atoms: C_7  and  O_8
REMARK    3  A    between atoms: O_8  and  C_9
REMARK    4  A    between atoms: C_9  and  C_10
REMARK    5  A    between atoms: C_10  and  C_12
REMARK    6  A    between atoms: C_10  and  O_32
REMARK    7  A    between atoms: C_12  and  N_13
REMARK    8  A    between atoms: N_21  and  C_31
REMARK    9  A    between atoms: C_24  and  S_25
REMARK   10  A    between atoms: S_25  and  C_26
REMARK   11  A    between atoms: C_26  and  C_27
REMARK   12  A    between atoms: C_27  and  C_29
REMARK   13  A    between atoms: C_27  and  O_30
REMARK                            x       y       z     vdW  Elec       q    Type
REMARK                         _______ _______ _______ _____ _____    ______ ____
ROOT
ATOM      1  N   UNL     1      -0.008  -0.140   2.444  0.00  0.00    -0.311 N 
ATOM      2  C   UNL     1       0.135   1.027   3.183  0.00  0.00    +0.152 A 
ATOM      3  C   UNL     1       0.945   2.170   3.070  0.00  0.00    +0.280 A 
ATOM      4  O   UNL     1       1.752   2.265   2.161  0.00  0.00    -0.265 OA
ATOM      5  N   UNL     1       0.825   3.158   3.981  0.00  0.00    -0.273 N 
ATOM      6  H   UNL     1       1.402   3.970   3.905  0.00  0.00    +0.173 HD
ATOM      7  C   UNL     1      -0.060   3.066   4.989  0.00  0.00    +0.331 A 
ATOM      8  O   UNL     1      -0.141   3.976   5.791  0.00  0.00    -0.246 OA
ATOM      9  N   UNL     1      -0.859   1.992   5.131  0.00  0.00    -0.280 N 
ATOM     10  C   UNL     1      -0.782   0.944   4.227  0.00  0.00    +0.169 A 
ATOM     11  N   UNL     1      -1.423  -0.219   4.109  0.00  0.00    -0.204 NA
ATOM     12  C   UNL     1      -0.976  -0.875   3.056  0.00  0.00    +0.172 A 
ATOM     13  C   UNL     1      -1.811   1.929   6.243  0.00  0.00    +0.155 C 
ENDROOT
BRANCH   1  14
ATOM     14  C   UNL     1       0.742  -0.511   1.242  0.00  0.00    +0.159 C 
BRANCH  14  15
ATOM     15  C   UNL     1       0.002  -0.004   0.002  0.00  0.00    +0.171 C 
BRANCH  15  16
ATOM     16  O   UNL     1      -0.017   1.425   0.010  0.00  0.00    -0.387 OA
ATOM     17  H   UNL     1       0.861   1.830   0.004  0.00  0.00    +0.210 HD
ENDBRANCH  15  16
BRANCH  15  18
ATOM     18  C   UNL     1       0.718  -0.497  -1.257  0.00  0.00    +0.262 C 
BRANCH  18  19
ATOM     19  O   UNL     1      -0.036  -0.123  -2.412  0.00  0.00    -0.489 OA
BRANCH  19  26
ATOM     20  C   UNL     1      -1.511   0.607  -4.707  0.00  0.00    +0.047 C 
ATOM     21  C   UNL     1      -0.215  -0.157  -4.783  0.00  0.00    -0.009 A 
ATOM     22  C   UNL     1       0.297  -0.529  -6.012  0.00  0.00    +0.007 A 
ATOM     23  C   UNL     1       1.486  -1.231  -6.082  0.00  0.00    +0.000 A 
ATOM     24  C   UNL     1       2.167  -1.561  -4.925  0.00  0.00    +0.004 A 
ATOM     25  C   UNL     1       1.662  -1.187  -3.695  0.00  0.00    +0.046 A 
ATOM     26  C   UNL     1       0.466  -0.488  -3.621  0.00  0.00    +0.124 A 
ENDBRANCH  19  26
ENDBRANCH  18  19
ENDBRANCH  15  18
ENDBRANCH  14  15
ENDBRANCH   1  14
BRANCH  12  27
ATOM     27  S   UNL     1      -1.543  -2.456   2.525  0.00  0.00    -0.085 S 
BRANCH  27  28
ATOM     28  C   UNL     1      -2.792  -2.784   3.793  0.00  0.00    +0.108 C 
BRANCH  28  29
ATOM     29  C   UNL     1      -3.440  -4.146   3.531  0.00  0.00    +0.122 C 
ATOM     30  C   UNL     1      -4.495  -4.423   4.603  0.00  0.00    +0.038 C 
BRANCH  29  31
ATOM     31  O   UNL     1      -4.059  -4.138   2.244  0.00  0.00    -0.391 OA
ATOM     32  H   UNL     1      -4.491  -4.971   2.010  0.00  0.00    +0.210 HD
ENDBRANCH  29  31
ENDBRANCH  28  29
ENDBRANCH  27  28
ENDBRANCH  12  27
TORSDOF 10
