REMARK  Name = ZINC33810478
REMARK  7 active torsions:
REMARK  status: ('A' for Active; 'I' for Inactive)
REMARK    1  A    between atoms: C_1  and  C_2
REMARK    2  A    between atoms: C_2  and  C_3
REMARK    3  A    between atoms: C_3  and  S_4
REMARK    4  A    between atoms: S_4  and  C_5
REMARK    5  A    between atoms: C_12  and  C_24
REMARK    6  A    between atoms: C_18  and  C_22
REMARK    7  A    between atoms: C_18  and  C_23
REMARK                            x       y       z     vdW  Elec       q    Type
REMARK                         _______ _______ _______ _____ _____    ______ ____
ROOT
ATOM      1  C   UNL     1       4.643   2.946   3.466  0.00  0.00    +0.171 A 
ATOM      2  N   UNL     1       4.996   2.395   2.271  0.00  0.00    -0.208 NA
ATOM      3  C   UNL     1       4.297   2.711   1.136  0.00  0.00    +0.135 A 
ATOM      4  C   UNL     1       3.248   3.572   1.218  0.00  0.00    +0.069 A 
ATOM      5  C   UNL     1       2.915   4.123   2.475  0.00  0.00    +0.258 A 
ATOM      6  O   UNL     1       1.980   4.904   2.576  0.00  0.00    -0.267 OA
ATOM      7  N   UNL     1       3.632   3.785   3.558  0.00  0.00    -0.302 N 
ATOM      8  C   UNL     1       2.452   3.936  -0.000  0.00  0.00    +0.093 C 
ATOM      9  C   UNL     1       3.210   3.615  -1.263  0.00  0.00    +0.024 C 
ATOM     10  C   UNL     1       4.254   2.759  -1.246  0.00  0.00    +0.017 C 
ATOM     11  N   UNL     1       4.653   2.169  -0.077  0.00  0.00    -0.302 N 
ATOM     12  C   UNL     1       5.006   2.425  -2.511  0.00  0.00    +0.058 C 
ATOM     13  C   UNL     1       4.979   3.628  -3.457  0.00  0.00    -0.023 C 
ATOM     14  C   UNL     1       3.517   3.978  -3.754  0.00  0.00    +0.086 C 
ATOM     15  C   UNL     1       2.801   4.235  -2.456  0.00  0.00    +0.162 C 
ATOM     16  O   UNL     1       1.851   4.992  -2.439  0.00  0.00    -0.292 OA
ATOM     17  C   UNL     1       5.668   4.821  -2.792  0.00  0.00    +0.011 C 
ATOM     18  C   UNL     1       5.702   3.276  -4.758  0.00  0.00    +0.011 C 
ATOM     19  H   UNL     1       5.263   1.254  -0.114  0.00  0.00    +0.153 HD
ATOM     20  H   UNL     1       3.365   4.219   4.532  0.00  0.00    +0.171 HD
ENDROOT
BRANCH   8  21
ATOM     21  C   UNL     1       1.157   3.165   0.008  0.00  0.00    -0.021 A 
ATOM     22  C   UNL     1       1.175   1.783   0.000  0.00  0.00    +0.005 A 
ATOM     23  C   UNL     1      -0.013   1.076   0.008  0.00  0.00    +0.000 A 
ATOM     24  C   UNL     1      -1.219   1.751   0.017  0.00  0.00    +0.001 A 
ATOM     25  C   UNL     1      -1.238   3.132   0.030  0.00  0.00    +0.015 A 
ATOM     26  C   UNL     1      -0.050   3.841   0.022  0.00  0.00    +0.022 A 
ATOM     27 BR   UNL     1      -0.076   5.731   0.033  0.00  0.00    -0.050 Br
ENDBRANCH   8  21
BRANCH   1  28
ATOM     28  S   UNL     1       5.555   2.528   4.915  0.00  0.00    -0.088 S 
BRANCH  28  29
ATOM     29  C   UNL     1       4.667   3.520   6.142  0.00  0.00    +0.077 C 
BRANCH  29  31
ATOM     30  C   UNL     1       4.550   4.151   8.556  0.00  0.00    +0.004 C 
ATOM     31  C   UNL     1       5.300   3.313   7.519  0.00  0.00    +0.008 C 
ENDBRANCH  29  31
ENDBRANCH  28  29
ENDBRANCH   1  28
TORSDOF 4
