REMARK  Name = ZINC35450840
REMARK  11 active torsions:
REMARK  status: ('A' for Active; 'I' for Inactive)
REMARK    1  A    between atoms: C_1  and  C_2
REMARK    2  A    between atoms: C_2  and  C_3
REMARK    3  A    between atoms: C_6  and  C_9
REMARK    4  A    between atoms: C_14  and  S_18
REMARK    5  A    between atoms: S_18  and  C_19
REMARK    6  A    between atoms: C_19  and  C_20
REMARK    7  A    between atoms: C_20  and  C_21
REMARK    8  A    between atoms: C_21  and  C_22
REMARK    9  A    between atoms: C_21  and  C_23
REMARK   10  A    between atoms: C_30  and  C_32
REMARK   11  A    between atoms: C_30  and  C_33
REMARK                            x       y       z     vdW  Elec       q    Type
REMARK                         _______ _______ _______ _____ _____    ______ ____
ROOT
ATOM      1  C   UNL     1      -5.419  -2.005   0.043  0.00  0.00    +0.092 C 
ATOM      2  C   UNL     1      -5.456  -3.335  -0.648  0.00  0.00    +0.069 A 
ATOM      3  C   UNL     1      -5.938  -3.450  -1.940  0.00  0.00    +0.135 A 
ATOM      4  N   UNL     1      -5.956  -4.644  -2.541  0.00  0.00    -0.208 NA
ATOM      5  C   UNL     1      -5.525  -5.724  -1.921  0.00  0.00    +0.171 A 
ATOM      6  N   UNL     1      -5.044  -5.665  -0.647  0.00  0.00    -0.302 N 
ATOM      7  C   UNL     1      -5.000  -4.485   0.006  0.00  0.00    +0.258 A 
ATOM      8  O   UNL     1      -4.569  -4.422   1.147  0.00  0.00    -0.267 OA
ATOM      9  N   UNL     1      -6.402  -2.328  -2.599  0.00  0.00    -0.302 N 
ATOM     10  C   UNL     1      -6.759  -1.208  -1.899  0.00  0.00    +0.017 C 
ATOM     11  C   UNL     1      -6.319  -1.007  -0.641  0.00  0.00    +0.024 C 
ATOM     12  C   UNL     1      -6.684   0.146   0.076  0.00  0.00    +0.162 C 
ATOM     13  O   UNL     1      -6.284   0.291   1.215  0.00  0.00    -0.292 OA
ATOM     14  C   UNL     1      -7.558   1.205  -0.537  0.00  0.00    +0.086 C 
ATOM     15  C   UNL     1      -7.358   1.196  -2.057  0.00  0.00    -0.023 C 
ATOM     16  C   UNL     1      -7.665  -0.207  -2.574  0.00  0.00    +0.058 C 
ATOM     17  C   UNL     1      -8.308   2.204  -2.707  0.00  0.00    +0.011 C 
ATOM     18  C   UNL     1      -5.909   1.561  -2.386  0.00  0.00    +0.011 C 
ATOM     19  H   UNL     1      -6.475  -2.334  -3.566  0.00  0.00    +0.153 HD
ATOM     20  H   UNL     1      -4.734  -6.473  -0.209  0.00  0.00    +0.171 HD
ENDROOT
BRANCH   1  24
ATOM     21  C   UNL     1      -1.412  -0.526   0.013  0.00  0.00    -0.048 A 
ATOM     22  C   UNL     1      -2.051  -0.766   1.215  0.00  0.00    +0.004 A 
ATOM     23  C   UNL     1      -3.348  -1.244   1.225  0.00  0.00    +0.005 A 
ATOM     24  C   UNL     1      -4.006  -1.482   0.032  0.00  0.00    -0.035 A 
ATOM     25  C   UNL     1      -3.367  -1.241  -1.170  0.00  0.00    +0.005 A 
ATOM     26  C   UNL     1      -2.072  -0.758  -1.179  0.00  0.00    +0.004 A 
BRANCH  21  28
ATOM     27  C   UNL     1      -0.019   1.526   0.010  0.00  0.00    +0.009 C 
ATOM     28  C   UNL     1       0.002  -0.004   0.002  0.00  0.00    +0.032 C 
ENDBRANCH  21  28
ENDBRANCH   1  24
BRANCH   5  29
ATOM     29  S   UNL     1      -5.570  -7.275  -2.756  0.00  0.00    -0.088 S 
BRANCH  29  30
ATOM     30  C   UNL     1      -6.268  -6.877  -4.382  0.00  0.00    +0.077 C 
BRANCH  30  31
ATOM     31  C   UNL     1      -6.364  -8.153  -5.222  0.00  0.00    +0.014 C 
BRANCH  31  32
ATOM     32  C   UNL     1      -6.952  -7.817  -6.594  0.00  0.00    -0.016 C 
ATOM     33  C   UNL     1      -5.987  -6.905  -7.353  0.00  0.00    +0.007 C 
ATOM     34  C   UNL     1      -7.164  -9.108  -7.387  0.00  0.00    +0.007 C 
ENDBRANCH  31  32
ENDBRANCH  30  31
ENDBRANCH  29  30
ENDBRANCH   5  29
TORSDOF 6
