REMARK  Name = ZINC03471829
REMARK  7 active torsions:
REMARK  status: ('A' for Active; 'I' for Inactive)
REMARK    1  A    between atoms: C_1  and  C_2
REMARK    2  A    between atoms: C_5  and  C_26
REMARK    3  A    between atoms: C_6  and  N_8
REMARK    4  A    between atoms: C_14  and  C_19
REMARK    5  A    between atoms: C_19  and  O_21
REMARK    6  A    between atoms: O_21  and  C_22
REMARK    7  A    between atoms: C_22  and  C_23
REMARK                            x       y       z     vdW  Elec       q    Type
REMARK                         _______ _______ _______ _____ _____    ______ ____
ROOT
ATOM      1  N   UNL     1      -5.899   2.585   0.043  0.00  0.00    -0.202 N 
ATOM      2  C   UNL     1      -5.147   3.701   0.046  0.00  0.00    +0.258 C 
ATOM      3  O   UNL     1      -5.569   4.840   0.054  0.00  0.00    -0.269 OA
ATOM      4  C   UNL     1      -3.720   3.308   0.038  0.00  0.00    +0.050 A 
ATOM      5  C   UNL     1      -2.526   4.011   0.036  0.00  0.00    +0.014 A 
ATOM      6  C   UNL     1      -1.322   3.327   0.032  0.00  0.00    +0.016 A 
ATOM      7  C   UNL     1      -1.305   1.932   0.019  0.00  0.00    +0.060 A 
ATOM      8  C   UNL     1      -2.506   1.215   0.021  0.00  0.00    +0.028 A 
ATOM      9  C   UNL     1      -3.710   1.898   0.030  0.00  0.00    +0.051 A 
ATOM     10  C   UNL     1      -5.128   1.482   0.034  0.00  0.00    +0.258 C 
ATOM     11  O   UNL     1      -5.532   0.337   0.029  0.00  0.00    -0.269 OA
ENDROOT
BRANCH   1  17
ATOM     12  C   UNL     1     -10.121   2.536   2.564  0.00  0.00    +0.044 C 
ATOM     13  C   UNL     1      -9.371   2.549   1.257  0.00  0.00    -0.049 A 
ATOM     14  C   UNL     1     -10.067   2.549   0.061  0.00  0.00    +0.004 A 
ATOM     15  C   UNL     1      -9.382   2.562  -1.140  0.00  0.00    +0.005 A 
ATOM     16  C   UNL     1      -8.001   2.579  -1.149  0.00  0.00    -0.029 A 
ATOM     17  C   UNL     1      -7.300   2.573   0.050  0.00  0.00    +0.048 A 
ATOM     18  C   UNL     1      -7.990   2.561   1.254  0.00  0.00    +0.027 A 
ATOM     19  C   UNL     1      -7.255   2.599  -2.458  0.00  0.00    +0.045 C 
ENDBRANCH   1  17
BRANCH   7  20
ATOM     20  C   UNL     1      -0.014   1.210   0.009  0.00  0.00    +0.340 C 
ATOM     21  O   UNL     1       0.002  -0.004   0.002  0.00  0.00    -0.245 OA
BRANCH  20  22
ATOM     22  O   UNL     1       1.143   1.899   0.001  0.00  0.00    -0.452 OA
BRANCH  22  23
ATOM     23  C   UNL     1       2.371   1.125  -0.015  0.00  0.00    +0.327 C 
BRANCH  23  24
ATOM     24  C   UNL     1       3.554   2.060  -0.021  0.00  0.00    +0.248 C 
ATOM     25  O   UNL     1       3.378   3.260  -0.013  0.00  0.00    -0.272 OA
ATOM     26  N   UNL     1       4.806   1.561  -0.035  0.00  0.00    -0.327 N 
ATOM     27  H   UNL     1       4.946   0.602  -0.042  0.00  0.00    +0.145 HD
ATOM     28  H   UNL     1       5.567   2.163  -0.040  0.00  0.00    +0.145 HD
ENDBRANCH  23  24
ENDBRANCH  22  23
ENDBRANCH  20  22
ENDBRANCH   7  20
TORSDOF 5
