REMARK  Name = ZINC22750776
REMARK  13 active torsions:
REMARK  status: ('A' for Active; 'I' for Inactive)
REMARK    1  A    between atoms: C_1  and  C_2
REMARK    2  A    between atoms: C_2  and  C_3
REMARK    3  A    between atoms: C_5  and  C_8
REMARK    4  A    between atoms: C_8  and  S_9
REMARK    5  A    between atoms: S_9  and  C_10
REMARK    6  A    between atoms: C_13  and  C_23
REMARK    7  A    between atoms: N_14  and  C_15
REMARK    8  A    between atoms: C_16  and  C_22
REMARK    9  A    between atoms: C_20  and  C_21
REMARK   10  A    between atoms: C_27  and  S_29
REMARK   11  A    between atoms: S_29  and  N_32
REMARK   12  A    between atoms: N_32  and  C_33
REMARK   13  A    between atoms: N_32  and  C_34
REMARK                            x       y       z     vdW  Elec       q    Type
REMARK                         _______ _______ _______ _____ _____    ______ ____
ROOT
ATOM      1  C   UNL     1       1.116   0.405   3.131  0.00  0.00    +0.197 A 
ATOM      2  N   UNL     1       0.668   1.014   4.206  0.00  0.00    -0.122 NA
ATOM      3  N   UNL     1      -0.617   0.998   4.221  0.00  0.00    -0.128 NA
ATOM      4  C   UNL     1      -1.071   0.383   3.154  0.00  0.00    +0.169 A 
ATOM      5  N   UNL     1       0.025  -0.013   2.419  0.00  0.00    -0.270 N 
ENDROOT
BRANCH   5   6
ATOM      6  C   UNL     1       0.023  -0.705   1.200  0.00  0.00    +0.056 A 
ATOM      7  C   UNL     1       0.041  -2.093   1.188  0.00  0.00    -0.026 A 
ATOM      8  C   UNL     1       0.039  -2.773  -0.014  0.00  0.00    +0.005 A 
ATOM      9  C   UNL     1       0.017  -2.071  -1.206  0.00  0.00    +0.001 A 
ATOM     10  C   UNL     1      -0.006  -0.689  -1.197  0.00  0.00    +0.005 A 
ATOM     11  C   UNL     1       0.002  -0.004   0.002  0.00  0.00    -0.026 A 
ATOM     12  C   UNL     1      -0.018   1.503   0.010  0.00  0.00    +0.046 C 
ATOM     13  C   UNL     1       0.064  -2.858   2.487  0.00  0.00    +0.046 C 
ENDBRANCH   5   6
BRANCH   4  14
ATOM     14  C   UNL     1      -2.490   0.159   2.806  0.00  0.00    +0.021 A 
ATOM     15  C   UNL     1      -2.843  -0.218   1.509  0.00  0.00    +0.012 A 
ATOM     16  C   UNL     1      -4.168  -0.432   1.193  0.00  0.00    +0.003 A 
ATOM     17  C   UNL     1      -5.148  -0.261   2.155  0.00  0.00    +0.028 A 
ATOM     18  C   UNL     1      -4.806   0.118   3.441  0.00  0.00    +0.106 A 
ATOM     19  C   UNL     1      -3.483   0.329   3.772  0.00  0.00    +0.040 A 
BRANCH  18  20
ATOM     20  S   UNL     1      -6.062   0.333   4.658  0.00  0.00    +0.060 S 
ATOM     21  O   UNL     1      -7.169  -0.455   4.242  0.00  0.00    -0.153 OA
ATOM     22  O   UNL     1      -5.436   0.160   5.922  0.00  0.00    -0.153 OA
BRANCH  20  23
ATOM     23  N   UNL     1      -6.551   1.913   4.584  0.00  0.00    -0.183 NA
ATOM     24  C   UNL     1      -7.649   2.299   3.695  0.00  0.00    +0.131 C 
ATOM     25  C   UNL     1      -5.884   2.925   5.407  0.00  0.00    +0.131 C 
ENDBRANCH  20  23
ENDBRANCH  18  20
ENDBRANCH   4  14
BRANCH   1  26
ATOM     26  S   UNL     1       2.805   0.173   2.687  0.00  0.00    -0.076 S 
BRANCH  26  27
ATOM     27  C   UNL     1       3.613   0.982   4.092  0.00  0.00    +0.176 C 
BRANCH  27  30
ATOM     28  C   UNL     1       7.124   1.298   3.413  0.00  0.00    +0.172 A 
ATOM     29  N   UNL     1       5.871   1.778   3.312  0.00  0.00    -0.195 NA
ATOM     30  C   UNL     1       5.108   0.904   3.924  0.00  0.00    +0.238 A 
ATOM     31  O   UNL     1       5.910  -0.070   4.365  0.00  0.00    -0.337 OA
ATOM     32  N   UNL     1       7.059   0.174   4.063  0.00  0.00    -0.061 NA
BRANCH  28  34
ATOM     33  C   UNL     1       8.618   1.451   1.440  0.00  0.00    +0.012 C 
ATOM     34  C   UNL     1       8.373   1.942   2.868  0.00  0.00    +0.076 C 
ENDBRANCH  28  34
ENDBRANCH  27  30
ENDBRANCH  26  27
ENDBRANCH   1  26
TORSDOF 8
