REMARK  Name = ZINC53475673
REMARK  3 active torsions:
REMARK  status: ('A' for Active; 'I' for Inactive)
REMARK    1  A    between atoms: C_9  and  N_11
REMARK    2  A    between atoms: C_12  and  C_14
REMARK    3  A    between atoms: C_14  and  N_15
REMARK                            x       y       z     vdW  Elec       q    Type
REMARK                         _______ _______ _______ _____ _____    ______ ____
ROOT
ATOM      1  N   UNL     1       7.473   1.790  -0.952  0.00  0.00    -0.215 N 
ATOM      2  C   UNL     1       7.278   3.126  -0.916  0.00  0.00    +0.251 C 
ATOM      3  O   UNL     1       6.356   3.749  -1.397  0.00  0.00    -0.272 OA
ATOM      4  C   UNL     1       8.452   3.678  -0.149  0.00  0.00    +0.138 C 
ATOM      5  C   UNL     1       7.991   4.430   1.106  0.00  0.00    +0.045 C 
ATOM      6  C   UNL     1       7.963   5.895   0.614  0.00  0.00    +0.038 C 
ATOM      7  C   UNL     1       8.954   5.950  -0.529  0.00  0.00    -0.042 A 
ATOM      8  C   UNL     1       9.235   4.667  -0.969  0.00  0.00    -0.012 A 
ATOM      9  C   UNL     1      10.123   4.479  -2.015  0.00  0.00    +0.006 A 
ATOM     10  C   UNL     1      10.728   5.564  -2.619  0.00  0.00    +0.000 A 
ATOM     11  C   UNL     1      10.447   6.844  -2.180  0.00  0.00    +0.000 A 
ATOM     12  C   UNL     1       9.562   7.035  -1.137  0.00  0.00    +0.004 A 
ATOM     13  N   UNL     1       9.252   2.502   0.196  0.00  0.00    -0.281 N 
ATOM     14  C   UNL     1       8.597   1.439  -0.312  0.00  0.00    +0.310 C 
ATOM     15  O   UNL     1       8.983   0.292  -0.204  0.00  0.00    -0.252 OA
ATOM     16  H   UNL     1      10.085   2.490   0.694  0.00  0.00    +0.152 HD
ENDROOT
BRANCH   1  17
ATOM     17  C   UNL     1       6.566   0.843  -1.604  0.00  0.00    +0.213 C 
BRANCH  17  19
ATOM     18  N   UNL     1       4.577  -0.496  -0.997  0.00  0.00    -0.307 N 
ATOM     19  C   UNL     1       5.524   0.384  -0.617  0.00  0.00    +0.231 C 
ATOM     20  O   UNL     1       5.538   0.807   0.520  0.00  0.00    -0.274 OA
ATOM     21  H   UNL     1       4.566  -0.835  -1.906  0.00  0.00    +0.149 HD
BRANCH  18  30
ATOM     22  C   UNL     1      -0.017   1.377   0.010  0.00  0.00    +0.000 A 
ATOM     23  C   UNL     1       1.172   2.083   0.002  0.00  0.00    +0.000 A 
ATOM     24  C   UNL     1       2.376   1.406  -0.013  0.00  0.00    +0.006 A 
ATOM     25  C   UNL     1       2.396   0.021  -0.021  0.00  0.00    -0.024 A 
ATOM     26  C   UNL     1       1.208  -0.685  -0.013  0.00  0.00    -0.042 A 
ATOM     27  C   UNL     1       0.002  -0.004   0.002  0.00  0.00    +0.004 A 
ATOM     28  C   UNL     1       1.496  -2.171  -0.025  0.00  0.00    +0.037 C 
ATOM     29  C   UNL     1       2.966  -2.294  -0.480  0.00  0.00    +0.032 C 
ATOM     30  C   UNL     1       3.564  -0.942  -0.037  0.00  0.00    +0.104 C 
ENDBRANCH  18  30
ENDBRANCH  17  19
ENDBRANCH   1  17
TORSDOF 3
