REMARK  Name = ZINC61594334
REMARK  8 active torsions:
REMARK  status: ('A' for Active; 'I' for Inactive)
REMARK    1  A    between atoms: C_1  and  C_2
REMARK    2  A    between atoms: C_2  and  N_3
REMARK    3  A    between atoms: C_9  and  S_10
REMARK    4  A    between atoms: S_10  and  C_11
REMARK    5  A    between atoms: C_11  and  C_13
REMARK    6  A    between atoms: C_11  and  C_20
REMARK    7  A    between atoms: C_20  and  C_22
REMARK    8  A    between atoms: C_20  and  N_23
REMARK                            x       y       z     vdW  Elec       q    Type
REMARK                         _______ _______ _______ _____ _____    ______ ____
ROOT
ATOM      1  C   UNL     1      -1.469  -1.239   4.300  0.00  0.00    +0.069 C 
ENDROOT
BRANCH   1   2
ATOM      2  C   UNL     1      -2.908  -0.950   4.643  0.00  0.00    -0.035 A 
ATOM      3  C   UNL     1      -3.922  -1.645   4.011  0.00  0.00    +0.005 A 
ATOM      4  C   UNL     1      -5.242  -1.380   4.325  0.00  0.00    +0.001 A 
ATOM      5  C   UNL     1      -5.548  -0.421   5.272  0.00  0.00    +0.015 A 
ATOM      6  C   UNL     1      -4.533   0.274   5.906  0.00  0.00    +0.018 A 
ATOM      7  C   UNL     1      -3.212   0.005   5.594  0.00  0.00    +0.020 A 
ATOM      8 BR   UNL     1      -4.951   1.587   7.201  0.00  0.00    -0.050 Br
ENDBRANCH   1   2
BRANCH   1   9
ATOM      9  C   UNL     1      -1.040  -2.549   4.964  0.00  0.00    -0.060 C 
ATOM     10  C   UNL     1      -1.863  -3.705   4.392  0.00  0.00    -0.013 C 
BRANCH   9  11
ATOM     11  N   UNL     1      -1.262  -2.459   6.413  0.00  0.00    +0.381 N 
ATOM     12  H   UNL     1      -2.251  -2.384   6.598  0.00  0.00    -0.090 HD
ATOM     13  H   UNL     1      -0.898  -3.287   6.862  0.00  0.00    -0.090 HD
ATOM     14  H   UNL     1      -0.790  -1.645   6.776  0.00  0.00    -0.090 HD
ENDBRANCH   9  11
ENDBRANCH   1   9
BRANCH   1  15
ATOM     15  S   UNL     1      -1.295  -1.389   2.500  0.00  0.00    -0.080 S 
BRANCH  15  22
ATOM     16  N   UNL     1       1.071  -1.694   1.040  0.00  0.00    -0.271 N 
ATOM     17  C   UNL     1       2.404  -1.685   1.245  0.00  0.00    +0.345 A 
ATOM     18  O   UNL     1       3.264  -1.843   0.396  0.00  0.00    -0.245 OA
ATOM     19  N   UNL     1       2.612  -1.470   2.560  0.00  0.00    -0.226 N 
ATOM     20  H   UNL     1       3.473  -1.412   3.003  0.00  0.00    +0.194 HD
ATOM     21  N   UNL     1       1.355  -1.344   3.168  0.00  0.00    -0.145 NA
ATOM     22  C   UNL     1       0.446  -1.474   2.246  0.00  0.00    +0.193 A 
BRANCH  16  24
ATOM     23  C   UNL     1       0.205  -0.545  -0.938  0.00  0.00    +0.027 C 
ATOM     24  C   UNL     1       0.403  -1.896  -0.248  0.00  0.00    +0.125 C 
ENDBRANCH  16  24
ENDBRANCH  15  22
ENDBRANCH   1  15
TORSDOF 6
