REMARK  Name = ZINC14634377
REMARK  5 active torsions:
REMARK  status: ('A' for Active; 'I' for Inactive)
REMARK    1  A    between atoms: N_13  and  C_17
REMARK    2  A    between atoms: C_17  and  C_18
REMARK    3  A    between atoms: N_20  and  C_21
REMARK    4  A    between atoms: C_24  and  S_27
REMARK    5  A    between atoms: S_27  and  C_28
REMARK                            x       y       z     vdW  Elec       q    Type
REMARK                         _______ _______ _______ _____ _____    ______ ____
ROOT
ATOM      1  C   UNL     1      -0.054  -2.771  -0.017  0.00  0.00    +0.000 A 
ATOM      2  C   UNL     1      -1.179  -2.057   0.351  0.00  0.00    +0.000 A 
ATOM      3  C   UNL     1      -1.145  -0.678   0.353  0.00  0.00    +0.006 A 
ATOM      4  C   UNL     1       0.011   0.000  -0.011  0.00  0.00    -0.012 A 
ATOM      5  C   UNL     1       1.134  -0.712  -0.372  0.00  0.00    -0.042 A 
ATOM      6  C   UNL     1       1.096  -2.100  -0.377  0.00  0.00    +0.004 A 
ATOM      7  C   UNL     1       2.424  -0.042  -0.765  0.00  0.00    +0.035 C 
ATOM      8  C   UNL     1       2.185   1.421  -1.133  0.00  0.00    +0.008 C 
ATOM      9  C   UNL     1       1.393   2.084   0.001  0.00  0.00    +0.040 C 
ATOM     10  C   UNL     1      -0.015   1.503   0.007  0.00  0.00    +0.138 C 
ATOM     11  C   UNL     1      -0.802   2.025  -1.175  0.00  0.00    +0.251 C 
ATOM     12  O   UNL     1      -0.551   1.867  -2.351  0.00  0.00    -0.272 OA
ATOM     13  N   UNL     1      -1.841   2.702  -0.646  0.00  0.00    -0.215 N 
ATOM     14  C   UNL     1      -1.817   2.677   0.692  0.00  0.00    +0.310 C 
ATOM     15  O   UNL     1      -2.649   3.218   1.393  0.00  0.00    -0.252 OA
ATOM     16  N   UNL     1      -0.766   1.987   1.173  0.00  0.00    -0.281 N 
ATOM     17  H   UNL     1      -0.548   1.837   2.107  0.00  0.00    +0.152 HD
ENDROOT
BRANCH  13  18
ATOM     18  C   UNL     1      -2.869   3.381  -1.438  0.00  0.00    +0.214 C 
BRANCH  18  19
ATOM     19  C   UNL     1      -4.001   2.426  -1.718  0.00  0.00    +0.235 C 
ATOM     20  O   UNL     1      -3.953   1.290  -1.297  0.00  0.00    -0.274 OA
ATOM     21  N   UNL     1      -5.066   2.835  -2.436  0.00  0.00    -0.284 N 
ATOM     22  H   UNL     1      -5.136   3.761  -2.715  0.00  0.00    +0.155 HD
BRANCH  21  23
ATOM     23  C   UNL     1      -6.072   1.921  -2.779  0.00  0.00    +0.033 A 
ATOM     24  C   UNL     1      -6.728   2.036  -3.997  0.00  0.00    +0.024 A 
ATOM     25  C   UNL     1      -7.715   1.133  -4.338  0.00  0.00    +0.017 A 
ATOM     26  C   UNL     1      -8.060   0.116  -3.456  0.00  0.00    +0.013 A 
ATOM     27  C   UNL     1      -7.407   0.005  -2.234  0.00  0.00    +0.017 A 
ATOM     28  C   UNL     1      -6.417   0.905  -1.897  0.00  0.00    +0.024 A 
BRANCH  26  29
ATOM     29  S   UNL     1      -9.326  -1.032  -3.886  0.00  0.00    -0.056 S 
BRANCH  29  30
ATOM     30  C   UNL     1      -9.866  -0.493  -5.532  0.00  0.00    +0.404 C 
ATOM     31  F   UNL     1     -10.347   0.818  -5.459  0.00  0.00    -0.197 F 
ATOM     32  F   UNL     1      -8.784  -0.544  -6.418  0.00  0.00    -0.197 F 
ENDBRANCH  29  30
ENDBRANCH  26  29
ENDBRANCH  21  23
ENDBRANCH  18  19
ENDBRANCH  13  18
TORSDOF 5
