REMARK  Name = ZINC17096577
REMARK  10 active torsions:
REMARK  status: ('A' for Active; 'I' for Inactive)
REMARK    1  A    between atoms: C_1  and  C_2
REMARK    2  A    between atoms: C_2  and  C_3
REMARK    3  A    between atoms: C_3  and  C_4
REMARK    4  A    between atoms: C_3  and  C_5
REMARK    5  A    between atoms: C_3  and  C_6
REMARK    6  A    between atoms: C_13  and  N_18
REMARK    7  A    between atoms: C_14  and  C_15
REMARK    8  A    between atoms: C_19  and  C_21
REMARK    9  A    between atoms: C_21  and  C_22
REMARK   10  A    between atoms: C_25  and  N_28
REMARK                            x       y       z     vdW  Elec       q    Type
REMARK                         _______ _______ _______ _____ _____    ______ ____
ROOT
ATOM      1  C   UNL     1       0.011   1.072   2.506  0.00  0.00    -0.000 C 
ATOM      2  C   UNL     1      -0.704   1.565   3.768  0.00  0.00    +0.009 C 
ATOM      3  C   UNL     1      -0.124   0.867   5.000  0.00  0.00    +0.037 C 
ATOM      4  C   UNL     1       1.391   1.031   4.989  0.00  0.00    -0.023 A 
ATOM      5  C   UNL     1       2.046   1.366   3.857  0.00  0.00    -0.004 A 
ATOM      6  S   UNL     1       3.752   1.438   4.325  0.00  0.00    -0.077 S 
ATOM      7  C   UNL     1       3.599   1.028   6.002  0.00  0.00    +0.084 A 
ATOM      8  C   UNL     1       2.232   0.846   6.159  0.00  0.00    +0.068 A 
ATOM      9  C   UNL     1       1.447   1.617   2.507  0.00  0.00    +0.046 C 
ENDROOT
BRANCH   8  10
ATOM     10  C   UNL     1       1.658   0.479   7.458  0.00  0.00    +0.244 C 
ATOM     11  O   UNL     1       1.529  -0.693   7.757  0.00  0.00    -0.270 OA
ATOM     12  N   UNL     1       1.274   1.441   8.320  0.00  0.00    -0.325 N 
ATOM     13  H   UNL     1       1.377   2.376   8.082  0.00  0.00    +0.145 HD
ATOM     14  H   UNL     1       0.894   1.199   9.179  0.00  0.00    +0.145 HD
ENDBRANCH   8  10
BRANCH   7  15
ATOM     15  N   UNL     1       4.599   0.912   6.955  0.00  0.00    -0.279 N 
ATOM     16  C   UNL     1       5.884   1.129   6.613  0.00  0.00    +0.222 C 
ATOM     17  O   UNL     1       6.166   1.426   5.472  0.00  0.00    -0.275 OA
ATOM     18  H   UNL     1       4.373   0.675   7.868  0.00  0.00    +0.155 HD
BRANCH  16  19
ATOM     19  C   UNL     1       6.971   1.003   7.649  0.00  0.00    +0.131 C 
BRANCH  19  20
ATOM     20  C   UNL     1       8.306   1.294   7.014  0.00  0.00    -0.038 A 
ATOM     21  C   UNL     1       9.045   0.267   6.457  0.00  0.00    +0.006 A 
ATOM     22  C   UNL     1      10.268   0.535   5.870  0.00  0.00    +0.033 A 
ATOM     23  C   UNL     1      10.757   1.827   5.851  0.00  0.00    +0.126 A 
ATOM     24  C   UNL     1      10.021   2.853   6.412  0.00  0.00    +0.033 A 
ATOM     25  C   UNL     1       8.795   2.587   6.995  0.00  0.00    +0.006 A 
BRANCH  23  26
ATOM     26  N   UNL     1      12.069   2.113   5.228  0.00  0.00    +0.056 N 
ATOM     27  O   UNL     1      12.500   3.252   5.210  0.00  0.00    -0.126 OA
ATOM     28  O   UNL     1      12.718   1.209   4.733  0.00  0.00    -0.126 OA
ENDBRANCH  23  26
ENDBRANCH  19  20
ENDBRANCH  16  19
ENDBRANCH   7  15
BRANCH   1  29
ATOM     29  C   UNL     1      -0.729   1.579   1.267  0.00  0.00    -0.032 C 
ATOM     30  C   UNL     1      -0.750   3.109   1.275  0.00  0.00    +0.011 C 
ATOM     31  C   UNL     1      -2.164   1.050   1.278  0.00  0.00    +0.011 C 
BRANCH  29  33
ATOM     32  C   UNL     1      -0.753   1.593  -1.232  0.00  0.00    +0.004 C 
ATOM     33  C   UNL     1      -0.013   1.086   0.008  0.00  0.00    +0.003 C 
ENDBRANCH  29  33
ENDBRANCH   1  29
TORSDOF 7
