REMARK  Name = ZINC20355852
REMARK  6 active torsions:
REMARK  status: ('A' for Active; 'I' for Inactive)
REMARK    1  A    between atoms: C_1  and  C_2
REMARK    2  A    between atoms: C_5  and  S_8
REMARK    3  A    between atoms: S_8  and  C_11
REMARK    4  A    between atoms: C_14  and  S_19
REMARK    5  A    between atoms: S_19  and  C_20
REMARK    6  A    between atoms: C_20  and  C_21
REMARK                            x       y       z     vdW  Elec       q    Type
REMARK                         _______ _______ _______ _____ _____    ______ ____
ROOT
ATOM      1  C   UNL     1      -1.202   1.731  -0.109  0.00  0.00    +0.176 A 
ATOM      2  C   UNL     1      -0.009   1.068  -0.111  0.00  0.00    +0.146 A 
ATOM      3  N   UNL     1       1.133   1.749  -0.088  0.00  0.00    -0.230 NA
ATOM      4  C   UNL     1       1.146   3.068  -0.057  0.00  0.00    +0.169 A 
ATOM      5  N   UNL     1      -0.014   3.782  -0.047  0.00  0.00    -0.300 N 
ATOM      6  H   UNL     1       0.018   4.881  -0.021  0.00  0.00    +0.171 HD
ATOM      7  C   UNL     1      -1.199   3.136  -0.070  0.00  0.00    +0.277 A 
ATOM      8  O   UNL     1      -2.248   3.760  -0.062  0.00  0.00    -0.266 OA
ENDROOT
BRANCH   1   9
ATOM      9  S   UNL     1      -2.722   0.840  -0.147  0.00  0.00    +0.032 S 
ATOM     10  O   UNL     1      -3.514   1.431  -1.167  0.00  0.00    -0.164 OA
ATOM     11  O   UNL     1      -2.384  -0.540  -0.148  0.00  0.00    -0.164 OA
BRANCH   9  16
ATOM     12  C   UNL     1      -5.552   1.915   5.072  0.00  0.00    +0.044 C 
ATOM     13  C   UNL     1      -4.846   1.646   3.769  0.00  0.00    -0.050 A 
ATOM     14  C   UNL     1      -5.064   2.471   2.681  0.00  0.00    +0.005 A 
ATOM     15  C   UNL     1      -4.416   2.225   1.486  0.00  0.00    +0.027 A 
ATOM     16  C   UNL     1      -3.548   1.154   1.377  0.00  0.00    +0.094 A 
ATOM     17  C   UNL     1      -3.333   0.326   2.463  0.00  0.00    +0.027 A 
ATOM     18  C   UNL     1      -3.978   0.575   3.661  0.00  0.00    +0.005 A 
ENDBRANCH   9  16
ENDBRANCH   1   9
BRANCH   4  19
ATOM     19  S   UNL     1       2.688   3.919  -0.027  0.00  0.00    -0.078 S 
BRANCH  19  20
ATOM     20  C   UNL     1       3.825   2.511  -0.054  0.00  0.00    +0.173 C 
BRANCH  20  21
ATOM     21  C   UNL     1       5.246   3.013  -0.033  0.00  0.00    +0.230 C 
ATOM     22  O   UNL     1       5.470   4.203  -0.095  0.00  0.00    -0.274 OA
ATOM     23  N   UNL     1       6.268   2.138   0.053  0.00  0.00    -0.270 N 
ATOM     24  C   UNL     1       6.015   0.691   0.050  0.00  0.00    +0.114 C 
ATOM     25  C   UNL     1       6.877   0.061   1.152  0.00  0.00    +0.024 C 
ATOM     26  C   UNL     1       8.351   0.280   0.811  0.00  0.00    +0.038 C 
ATOM     27  C   UNL     1       8.614   1.733   0.512  0.00  0.00    -0.026 A 
ATOM     28  C   UNL     1       7.590   2.594   0.143  0.00  0.00    +0.039 A 
ATOM     29  C   UNL     1       7.867   3.927  -0.137  0.00  0.00    +0.024 A 
ATOM     30  C   UNL     1       9.163   4.396  -0.051  0.00  0.00    +0.002 A 
ATOM     31  C   UNL     1      10.184   3.539   0.315  0.00  0.00    +0.000 A 
ATOM     32  C   UNL     1       9.909   2.212   0.603  0.00  0.00    +0.005 A 
ENDBRANCH  20  21
ENDBRANCH  19  20
ENDBRANCH   4  19
TORSDOF 5
