REMARK  Name = ZINC24088157
REMARK  11 active torsions:
REMARK  status: ('A' for Active; 'I' for Inactive)
REMARK    1  A    between atoms: C_1  and  C_2
REMARK    2  A    between atoms: C_5  and  C_31
REMARK    3  A    between atoms: C_6  and  O_9
REMARK    4  A    between atoms: C_7  and  C_8
REMARK    5  A    between atoms: O_9  and  C_10
REMARK    6  A    between atoms: C_10  and  C_11
REMARK    7  A    between atoms: C_11  and  C_13
REMARK    8  A    between atoms: C_11  and  O_30
REMARK    9  A    between atoms: C_13  and  N_14
REMARK   10  A    between atoms: C_17  and  C_21
REMARK   11  A    between atoms: C_17  and  C_22
REMARK                            x       y       z     vdW  Elec       q    Type
REMARK                         _______ _______ _______ _____ _____    ______ ____
ROOT
ATOM      1  N   UNL     1       2.328  -5.136   5.938  0.00  0.00    -0.221 N 
ATOM      2  C   UNL     1       2.271  -4.662   7.198  0.00  0.00    +0.251 C 
ATOM      3  O   UNL     1       2.358  -3.504   7.549  0.00  0.00    -0.272 OA
ATOM      4  C   UNL     1       2.074  -5.875   8.084  0.00  0.00    +0.136 C 
ATOM      5  N   UNL     1       2.040  -6.998   7.132  0.00  0.00    -0.281 N 
ATOM      6  C   UNL     1       2.191  -6.467   5.905  0.00  0.00    +0.310 C 
ATOM      7  O   UNL     1       2.205  -7.122   4.882  0.00  0.00    -0.252 OA
ATOM      8  C   UNL     1       3.246  -6.029   9.055  0.00  0.00    +0.047 C 
ATOM      9  H   UNL     1       1.927  -7.937   7.346  0.00  0.00    +0.152 HD
ENDROOT
BRANCH   4  10
ATOM     10  C   UNL     1       0.771  -5.777   8.835  0.00  0.00    +0.003 A 
ATOM     11  C   UNL     1      -0.197  -6.750   8.670  0.00  0.00    +0.009 A 
ATOM     12  C   UNL     1      -1.392  -6.661   9.358  0.00  0.00    +0.020 A 
ATOM     13  C   UNL     1      -1.620  -5.598  10.214  0.00  0.00    +0.042 A 
ATOM     14  C   UNL     1      -0.652  -4.624  10.380  0.00  0.00    +0.040 A 
ATOM     15  C   UNL     1       0.546  -4.716   9.694  0.00  0.00    +0.048 A 
ATOM     16 CL   UNL     1       1.764  -3.498   9.907  0.00  0.00    -0.083 Cl
ATOM     17 CL   UNL     1      -3.122  -5.486  11.078  0.00  0.00    -0.083 Cl
ENDBRANCH   4  10
BRANCH   1  18
ATOM     18  C   UNL     1       2.512  -4.298   4.750  0.00  0.00    +0.152 C 
BRANCH  18  19
ATOM     19  C   UNL     1       1.146  -3.857   4.221  0.00  0.00    +0.170 C 
BRANCH  19  20
ATOM     20  O   UNL     1       0.512  -3.013   5.185  0.00  0.00    -0.387 OA
ATOM     21  H   UNL     1       1.010  -2.211   5.394  0.00  0.00    +0.210 HD
ENDBRANCH  19  20
BRANCH  19  22
ATOM     22  C   UNL     1       1.330  -3.087   2.912  0.00  0.00    +0.262 C 
BRANCH  22  23
ATOM     23  O   UNL     1       0.050  -2.776   2.358  0.00  0.00    -0.489 OA
BRANCH  23  29
ATOM     24  C   UNL     1      -0.018   1.503   0.010  0.00  0.00    +0.044 C 
ATOM     25  C   UNL     1       0.002  -0.004   0.002  0.00  0.00    -0.044 A 
ATOM     26  C   UNL     1       0.006  -0.688  -1.200  0.00  0.00    +0.004 A 
ATOM     27  C   UNL     1       0.024  -2.071  -1.211  0.00  0.00    +0.007 A 
ATOM     28  C   UNL     1       0.039  -2.772  -0.020  0.00  0.00    -0.009 A 
ATOM     29  C   UNL     1       0.035  -2.088   1.186  0.00  0.00    +0.127 A 
ATOM     30  C   UNL     1       0.023  -0.700   1.195  0.00  0.00    -0.006 A 
ATOM     31  C   UNL     1       0.026   0.046   2.504  0.00  0.00    +0.048 C 
ATOM     32  C   UNL     1       0.059  -4.279  -0.033  0.00  0.00    +0.047 C 
ENDBRANCH  23  29
ENDBRANCH  22  23
ENDBRANCH  19  22
ENDBRANCH  18  19
ENDBRANCH   1  18
TORSDOF 7
