REMARK  Name = ZINC50864791
REMARK  9 active torsions:
REMARK  status: ('A' for Active; 'I' for Inactive)
REMARK    1  A    between atoms: C_1  and  C_2
REMARK    2  A    between atoms: C_2  and  C_3
REMARK    3  A    between atoms: C_4  and  C_21
REMARK    4  A    between atoms: C_6  and  C_11
REMARK    5  A    between atoms: C_8  and  N_9
REMARK    6  A    between atoms: N_9  and  C_10
REMARK    7  A    between atoms: C_13  and  O_19
REMARK    8  A    between atoms: C_14  and  O_18
REMARK    9  A    between atoms: O_19  and  C_20
REMARK                            x       y       z     vdW  Elec       q    Type
REMARK                         _______ _______ _______ _____ _____    ______ ____
ROOT
ATOM      1  C   UNL     1       0.707  -0.490  -1.238  0.00  0.00    +0.011 A 
ATOM      2  C   UNL     1       0.005  -0.723  -2.405  0.00  0.00    +0.021 A 
ATOM      3  N   UNL     1       0.653  -1.149  -3.478  0.00  0.00    -0.343 N 
ATOM      4  C   UNL     1       1.963  -1.355  -3.445  0.00  0.00    +0.141 A 
ATOM      5  N   UNL     1       2.673  -1.143  -2.346  0.00  0.00    -0.214 NA
ATOM      6  C   UNL     1       2.087  -0.710  -1.235  0.00  0.00    +0.126 A 
ATOM      7  C   UNL     1      -1.484  -0.495  -2.456  0.00  0.00    +0.064 C 
ATOM      8  H   UNL     1       0.164  -1.314  -4.298  0.00  0.00    +0.167 HD
ENDROOT
BRANCH   4   9
ATOM      9  C   UNL     1       2.650  -1.833  -4.668  0.00  0.00    +0.022 A 
ATOM     10  C   UNL     1       4.026  -2.061  -4.653  0.00  0.00    +0.061 A 
ATOM     11  C   UNL     1       4.664  -2.507  -5.795  0.00  0.00    +0.163 A 
ATOM     12  C   UNL     1       3.932  -2.730  -6.959  0.00  0.00    +0.173 A 
ATOM     13  C   UNL     1       2.563  -2.503  -6.974  0.00  0.00    +0.064 A 
ATOM     14  C   UNL     1       1.921  -2.062  -5.834  0.00  0.00    +0.030 A 
ATOM     15 BR   UNL     1       1.573  -2.806  -8.557  0.00  0.00    -0.046 Br
BRANCH  12  16
ATOM     16  O   UNL     1       4.559  -3.168  -8.082  0.00  0.00    -0.503 OA
ATOM     17  H   UNL     1       4.600  -4.131  -8.159  0.00  0.00    +0.292 HD
ENDBRANCH  12  16
BRANCH  11  18
ATOM     18  O   UNL     1       6.006  -2.729  -5.783  0.00  0.00    -0.491 OA
ATOM     19  C   UNL     1       6.693  -2.480  -4.555  0.00  0.00    +0.277 C 
ENDBRANCH  11  18
ENDBRANCH   4   9
BRANCH   6  20
ATOM     20  N   UNL     1       2.832  -0.483  -0.089  0.00  0.00    -0.332 N 
ATOM     21  C   UNL     1       4.279  -0.717  -0.098  0.00  0.00    +0.127 C 
ATOM     22  H   UNL     1       2.397  -0.170   0.719  0.00  0.00    +0.147 HD
ENDBRANCH   6  20
BRANCH   1  24
ATOM     23  C   UNL     1      -0.019   1.526   0.010  0.00  0.00    +0.009 C 
ATOM     24  C   UNL     1       0.002  -0.004   0.002  0.00  0.00    +0.037 C 
ENDBRANCH   1  24
TORSDOF 5
