REMARK  Name = ZINC01244195
REMARK  7 active torsions:
REMARK  status: ('A' for Active; 'I' for Inactive)
REMARK    1  A    between atoms: C_1  and  C_2
REMARK    2  A    between atoms: C_2  and  N_3
REMARK    3  A    between atoms: N_3  and  C_4
REMARK    4  A    between atoms: C_4  and  C_5
REMARK    5  A    between atoms: C_17  and  C_20
REMARK    6  A    between atoms: C_17  and  C_21
REMARK    7  A    between atoms: C_23  and  C_25
REMARK                            x       y       z     vdW  Elec       q    Type
REMARK                         _______ _______ _______ _____ _____    ______ ____
ROOT
ATOM      1  N   UNL     1      -4.077   2.468   2.298  0.00  0.00    -0.315 N 
ATOM      2  C   UNL     1      -2.719   2.396   2.564  0.00  0.00    +0.139 A 
ATOM      3  C   UNL     1      -2.229   2.634   3.841  0.00  0.00    +0.080 A 
ATOM      4  C   UNL     1      -0.858   2.562   4.111  0.00  0.00    +0.093 A 
ATOM      5  C   UNL     1      -0.460   2.835   5.505  0.00  0.00    +0.034 A 
ATOM      6  C   UNL     1       0.843   2.832   6.049  0.00  0.00    +0.020 A 
ATOM      7  C   UNL     1       1.018   3.112   7.390  0.00  0.00    +0.000 A 
ATOM      8  C   UNL     1      -0.077   3.395   8.186  0.00  0.00    +0.051 A 
ATOM      9  N   UNL     1      -1.294   3.396   7.667  0.00  0.00    -0.244 NA
ATOM     10  C   UNL     1      -1.506   3.133   6.396  0.00  0.00    +0.111 A 
ATOM     11  S   UNL     1      -2.971   3.050   5.395  0.00  0.00    -0.064 S 
ATOM     12  C   UNL     1       0.081   3.712   9.652  0.00  0.00    +0.090 C 
ATOM     13  C   UNL     1       1.460   3.258  10.133  0.00  0.00    +0.070 C 
ATOM     14  O   UNL     1       2.446   3.753   9.220  0.00  0.00    -0.369 OA
ATOM     15  C   UNL     1       2.416   3.097   7.953  0.00  0.00    +0.197 C 
ATOM     16  C   UNL     1       1.727   3.819  11.531  0.00  0.00    +0.041 C 
ATOM     17  C   UNL     1       1.513   1.729  10.174  0.00  0.00    +0.041 C 
ATOM     18  N   UNL     1      -0.062   2.252   3.062  0.00  0.00    -0.231 NA
ATOM     19  C   UNL     1      -0.558   2.034   1.871  0.00  0.00    +0.129 A 
ATOM     20  N   UNL     1      -1.849   2.103   1.598  0.00  0.00    -0.216 NA
ATOM     21  C   UNL     1       0.392   1.693   0.752  0.00  0.00    +0.088 C 
ENDROOT
BRANCH   1  23
ATOM     22  C   UNL     1      -3.982   3.395   0.033  0.00  0.00    +0.024 C 
ATOM     23  C   UNL     1      -4.354   2.179   0.884  0.00  0.00    +0.103 C 
ENDBRANCH   1  23
BRANCH   1  24
ATOM     24  C   UNL     1      -4.834   1.566   3.177  0.00  0.00    +0.103 C 
ATOM     25  C   UNL     1      -6.314   1.955   3.154  0.00  0.00    +0.024 C 
ENDBRANCH   1  24
TORSDOF 2
