REMARK  Name = ZINC03436984
REMARK  8 active torsions:
REMARK  status: ('A' for Active; 'I' for Inactive)
REMARK    1  A    between atoms: C_1  and  C_2
REMARK    2  A    between atoms: C_4  and  C_26
REMARK    3  A    between atoms: C_11  and  C_12
REMARK    4  A    between atoms: C_15  and  O_20
REMARK    5  A    between atoms: C_16  and  O_18
REMARK    6  A    between atoms: O_18  and  C_19
REMARK    7  A    between atoms: O_20  and  C_21
REMARK    8  A    between atoms: C_21  and  C_22
REMARK                            x       y       z     vdW  Elec       q    Type
REMARK                         _______ _______ _______ _____ _____    ______ ____
ROOT
ATOM      1  C   UNL     1       1.279   3.429   1.251  0.00  0.00    +0.044 C 
ATOM      2  C   UNL     1       1.167   2.011   0.752  0.00  0.00    -0.050 A 
ATOM      3  C   UNL     1       2.311   1.273   0.503  0.00  0.00    +0.007 A 
ATOM      4  C   UNL     1       2.218  -0.026   0.037  0.00  0.00    -0.046 A 
ATOM      5  C   UNL     1       0.981  -0.598  -0.182  0.00  0.00    -0.033 A 
ATOM      6  C   UNL     1      -0.175   0.137   0.087  0.00  0.00    +0.026 A 
ATOM      7  C   UNL     1      -0.076   1.449   0.544  0.00  0.00    +0.015 A 
ATOM      8  C   UNL     1      -1.499  -0.488  -0.132  0.00  0.00    +0.190 C 
ATOM      9  O   UNL     1      -2.508   0.192  -0.166  0.00  0.00    -0.287 OA
ATOM     10  C   UNL     1      -1.568  -1.895  -0.303  0.00  0.00    +0.001 C 
ATOM     11  C   UNL     1      -2.744  -2.487  -0.616  0.00  0.00    +0.015 C 
ATOM     12  C   UNL     1      -0.323  -2.726  -0.132  0.00  0.00    +0.043 C 
ATOM     13  C   UNL     1       0.885  -2.001  -0.717  0.00  0.00    +0.041 C 
ATOM     14  C   UNL     1       3.471  -0.819  -0.233  0.00  0.00    +0.044 C 
ENDROOT
BRANCH  11  15
ATOM     15  C   UNL     1      -2.846  -3.952  -0.637  0.00  0.00    -0.021 A 
ATOM     16  C   UNL     1      -3.693  -4.583  -1.556  0.00  0.00    +0.012 A 
ATOM     17  C   UNL     1      -3.784  -5.957  -1.578  0.00  0.00    +0.050 A 
ATOM     18  C   UNL     1      -3.044  -6.719  -0.683  0.00  0.00    +0.163 A 
ATOM     19  C   UNL     1      -2.202  -6.098   0.239  0.00  0.00    +0.162 A 
ATOM     20  C   UNL     1      -2.101  -4.721   0.264  0.00  0.00    +0.057 A 
BRANCH  19  21
ATOM     21  O   UNL     1      -1.480  -6.849   1.113  0.00  0.00    -0.491 OA
ATOM     22  C   UNL     1      -0.637  -6.146   2.030  0.00  0.00    +0.277 C 
ENDBRANCH  19  21
BRANCH  18  23
ATOM     23  O   UNL     1      -3.142  -8.073  -0.705  0.00  0.00    -0.474 OA
BRANCH  23  24
ATOM     24  C   UNL     1      -4.024  -8.645  -1.674  0.00  0.00    +0.347 C 
BRANCH  24  25
ATOM     25  C   UNL     1      -4.002 -10.111  -1.552  0.00  0.00    +0.104 C 
ATOM     26  N   UNL     1      -3.986 -11.243  -1.459  0.00  0.00    -0.193 NA
ENDBRANCH  24  25
ENDBRANCH  23  24
ENDBRANCH  18  23
ENDBRANCH  11  15
TORSDOF 5
