REMARK  Name = ZINC20562684
REMARK  9 active torsions:
REMARK  status: ('A' for Active; 'I' for Inactive)
REMARK    1  A    between atoms: C_1  and  C_2
REMARK    2  A    between atoms: C_7  and  C_12
REMARK    3  A    between atoms: N_14  and  N_15
REMARK    4  A    between atoms: N_15  and  C_16
REMARK    5  A    between atoms: C_16  and  N_18
REMARK    6  A    between atoms: N_18  and  C_19
REMARK    7  A    between atoms: C_20  and  C_27
REMARK    8  A    between atoms: C_27  and  O_29
REMARK    9  A    between atoms: O_29  and  C_30
REMARK                            x       y       z     vdW  Elec       q    Type
REMARK                         _______ _______ _______ _____ _____    ______ ____
ROOT
ATOM      1  N   UNL     1      -0.017   1.397   0.010  0.00  0.00    -0.245 N 
ATOM      2  H   UNL     1       0.928   1.960   0.008  0.00  0.00    +0.172 HD
ENDROOT
BRANCH   1   5
ATOM      3  C   UNL     1       1.178  -0.662  -0.013  0.00  0.00    +0.261 C 
ATOM      4  O   UNL     1       2.223  -0.040  -0.019  0.00  0.00    -0.269 OA
ATOM      5  N   UNL     1       0.002  -0.004   0.002  0.00  0.00    -0.231 N 
ATOM      6  H   UNL     1      -0.943  -0.567   0.008  0.00  0.00    +0.173 HD
BRANCH   3  12
ATOM      7  C   UNL     1       5.931  -5.422   0.007  0.00  0.00    +0.008 C 
ATOM      8  C   UNL     1       4.744  -4.506   0.311  0.00  0.00    -0.009 C 
ATOM      9  C   UNL     1       4.858  -3.225  -0.520  0.00  0.00    +0.008 C 
ATOM     10  C   UNL     1       3.822  -2.203  -0.048  0.00  0.00    +0.037 C 
ATOM     11  C   UNL     1       2.451  -2.866  -0.037  0.00  0.00    -0.025 A 
ATOM     12  C   UNL     1       1.198  -2.134  -0.021  0.00  0.00    +0.049 A 
ATOM     13  C   UNL     1       0.028  -2.861  -0.008  0.00  0.00    +0.058 A 
ATOM     14  S   UNL     1       0.582  -4.503  -0.028  0.00  0.00    -0.101 S 
ATOM     15  C   UNL     1       2.328  -4.213  -0.043  0.00  0.00    -0.006 A 
ATOM     16  C   UNL     1       3.435  -5.221  -0.058  0.00  0.00    +0.046 C 
ENDBRANCH   3  12
ENDBRANCH   1   5
BRANCH   1  17
ATOM     17  C   UNL     1      -1.193   2.055   0.019  0.00  0.00    +0.151 C 
ATOM     18  S   UNL     1      -1.216   3.767   0.028  0.00  0.00    -0.017 S 
BRANCH  17  19
ATOM     19  N   UNL     1      -2.351   1.365   0.021  0.00  0.00    -0.290 N 
ATOM     20  H   UNL     1      -2.336   0.265   0.015  0.00  0.00    +0.154 HD
BRANCH  19  21
ATOM     21  C   UNL     1      -3.560   2.041   0.030  0.00  0.00    +0.086 A 
ATOM     22  C   UNL     1      -4.842   1.514   0.028  0.00  0.00    +0.091 A 
ATOM     23  C   UNL     1      -5.960   2.457   0.043  0.00  0.00    -0.021 A 
ATOM     24  C   UNL     1      -5.613   3.756   0.049  0.00  0.00    -0.004 A 
ATOM     25  S   UNL     1      -3.837   3.750   0.040  0.00  0.00    -0.077 S 
ATOM     26  C   UNL     1      -6.815   4.662   0.063  0.00  0.00    +0.043 C 
ATOM     27  C   UNL     1      -7.983   3.751   0.502  0.00  0.00    +0.010 C 
ATOM     28  C   UNL     1      -7.487   2.364   0.049  0.00  0.00    +0.037 C 
BRANCH  22  29
ATOM     29  C   UNL     1      -5.068   0.068   0.014  0.00  0.00    +0.342 C 
ATOM     30  O   UNL     1      -5.160  -0.543   1.062  0.00  0.00    -0.245 OA
BRANCH  29  31
ATOM     31  O   UNL     1      -5.174  -0.587  -1.160  0.00  0.00    -0.464 OA
ATOM     32  C   UNL     1      -5.398  -2.020  -1.097  0.00  0.00    +0.280 C 
ENDBRANCH  29  31
ENDBRANCH  22  29
ENDBRANCH  19  21
ENDBRANCH  17  19
ENDBRANCH   1  17
TORSDOF 7
