REMARK  Name = ZINC00526993
REMARK  6 active torsions:
REMARK  status: ('A' for Active; 'I' for Inactive)
REMARK    1  A    between atoms: C_3  and  N_21
REMARK    2  A    between atoms: C_6  and  C_7
REMARK    3  A    between atoms: C_7  and  S_8
REMARK    4  A    between atoms: S_8  and  C_9
REMARK    5  A    between atoms: C_12  and  C_15
REMARK    6  A    between atoms: N_13  and  N_14
REMARK                            x       y       z     vdW  Elec       q    Type
REMARK                         _______ _______ _______ _____ _____    ______ ____
ROOT
ATOM      1  C   UNL     1       1.213   1.744  -0.000  0.00  0.00    +0.209 A 
ATOM      2  N   UNL     1      -0.015   1.281   0.009  0.00  0.00    -0.121 NA
ATOM      3  N   UNL     1       0.002  -0.004   0.002  0.00  0.00    -0.132 NA
ATOM      4  C   UNL     1       1.232  -0.435  -0.012  0.00  0.00    +0.154 A 
ATOM      5  N   UNL     1       2.047   0.663  -0.014  0.00  0.00    -0.228 N 
ENDROOT
BRANCH   4   6
ATOM      6  C   UNL     1       1.673  -1.875  -0.024  0.00  0.00    +0.059 C 
ATOM      7  C   UNL     1       1.121  -2.567  -1.272  0.00  0.00    +0.011 C 
ATOM      8  C   UNL     1       1.569  -4.030  -1.285  0.00  0.00    +0.001 C 
ATOM      9  C   UNL     1       1.041  -4.736  -0.034  0.00  0.00    +0.000 C 
ATOM     10  C   UNL     1       1.594  -4.044   1.214  0.00  0.00    +0.001 C 
ATOM     11  C   UNL     1       1.145  -2.581   1.226  0.00  0.00    +0.011 C 
ENDBRANCH   4   6
BRANCH   5  12
ATOM     12  N   UNL     1       3.413   0.675  -0.027  0.00  0.00    -0.295 N 
ATOM     13  H   UNL     1       3.766   0.684  -0.973  0.00  0.00    +0.163 HD
ATOM     14  H   UNL     1       3.773   1.457   0.500  0.00  0.00    +0.163 HD
ENDBRANCH   5  12
BRANCH   1  15
ATOM     15  S   UNL     1       1.694   3.439   0.004  0.00  0.00    -0.080 S 
BRANCH  15  16
ATOM     16  C   UNL     1       0.066   4.228   0.024  0.00  0.00    +0.112 C 
BRANCH  16  22
ATOM     17  C   UNL     1       0.316   6.407   1.230  0.00  0.00    +0.007 A 
ATOM     18  C   UNL     1       0.474   7.780   1.235  0.00  0.00    +0.033 A 
ATOM     19  C   UNL     1       0.539   8.473   0.041  0.00  0.00    +0.126 A 
ATOM     20  C   UNL     1       0.452   7.792  -1.159  0.00  0.00    +0.033 A 
ATOM     21  C   UNL     1       0.298   6.419  -1.164  0.00  0.00    +0.007 A 
ATOM     22  C   UNL     1       0.233   5.726   0.030  0.00  0.00    -0.037 A 
BRANCH  19  23
ATOM     23  N   UNL     1       0.704   9.944   0.047  0.00  0.00    +0.056 N 
ATOM     24  O   UNL     1       0.762  10.555  -1.005  0.00  0.00    -0.126 OA
ATOM     25  O   UNL     1       0.781  10.544   1.104  0.00  0.00    -0.126 OA
ENDBRANCH  19  23
ENDBRANCH  16  22
ENDBRANCH  15  16
ENDBRANCH   1  15
TORSDOF 6
