REMARK  Name = ZINC38691004
REMARK  3 active torsions:
REMARK  status: ('A' for Active; 'I' for Inactive)
REMARK    1  A    between atoms: C_1  and  C_2
REMARK    2  A    between atoms: C_4  and  C_8
REMARK    3  A    between atoms: C_15  and  C_18
REMARK                            x       y       z     vdW  Elec       q    Type
REMARK                         _______ _______ _______ _____ _____    ______ ____
ROOT
ATOM      1  C   UNL     1      -0.964  -2.951   1.248  0.00  0.00    +0.230 C 
ATOM      2  N   UNL     1      -2.432  -3.101   1.281  0.00  0.00    -0.242 N 
ATOM      3  N   UNL     1      -2.687  -4.481   1.259  0.00  0.00    -0.161 NA
ATOM      4  C   UNL     1      -1.604  -5.154   1.219  0.00  0.00    +0.195 C 
ATOM      5  N   UNL     1      -0.466  -4.323   1.212  0.00  0.00    -0.176 N 
ATOM      6  N   UNL     1       0.835  -4.815   1.178  0.00  0.00    -0.179 NA
ATOM      7  C   UNL     1       1.157  -5.992   0.757  0.00  0.00    +0.077 C 
ATOM      8  C   UNL     1       0.180  -6.994   0.191  0.00  0.00    +0.134 C 
ATOM      9  S   UNL     1      -1.367  -6.914   1.174  0.00  0.00    -0.081 S 
ATOM     10  H   UNL     1      -3.089  -2.388   1.313  0.00  0.00    +0.170 HD
ENDROOT
BRANCH   7  11
ATOM     11  C   UNL     1       2.577  -6.384   0.832  0.00  0.00    -0.001 A 
ATOM     12  C   UNL     1       2.982  -7.644   0.384  0.00  0.00    +0.011 A 
ATOM     13  C   UNL     1       4.311  -8.004   0.458  0.00  0.00    +0.016 A 
ATOM     14  C   UNL     1       5.243  -7.120   0.975  0.00  0.00    +0.018 A 
ATOM     15  C   UNL     1       4.849  -5.870   1.421  0.00  0.00    +0.016 A 
ATOM     16  C   UNL     1       3.524  -5.495   1.347  0.00  0.00    +0.011 A 
ATOM     17 BR   UNL     1       7.064  -7.623   1.072  0.00  0.00    -0.050 Br
ENDBRANCH   7  11
BRANCH   1  21
ATOM     18  C   UNL     1      -0.018   1.503   0.010  0.00  0.00    +0.067 C 
ATOM     19  C   UNL     1       0.002  -0.004   0.002  0.00  0.00    +0.058 C 
ATOM     20  C   UNL     1      -1.086  -0.777   0.003  0.00  0.00    +0.029 C 
ATOM     21  C   UNL     1      -0.531  -2.190  -0.007  0.00  0.00    +0.194 C 
ATOM     22  N   UNL     1       0.926  -1.973  -0.013  0.00  0.00    -0.176 NA
ATOM     23  N   UNL     1       1.125  -0.756  -0.013  0.00  0.00    -0.159 NA
ENDBRANCH   1  21
TORSDOF 2
