REMARK  Name = ZINC39636248
REMARK  9 active torsions:
REMARK  status: ('A' for Active; 'I' for Inactive)
REMARK    1  A    between atoms: C_1  and  O_2
REMARK    2  A    between atoms: O_2  and  C_3
REMARK    3  A    between atoms: C_8  and  C_9
REMARK    4  A    between atoms: C_9  and  C_10
REMARK    5  A    between atoms: C_10  and  N_11
REMARK    6  A    between atoms: C_12  and  C_14
REMARK    7  A    between atoms: C_25  and  C_27
REMARK    8  A    between atoms: C_32  and  O_33
REMARK    9  A    between atoms: O_33  and  C_34
REMARK                            x       y       z     vdW  Elec       q    Type
REMARK                         _______ _______ _______ _____ _____    ______ ____
ROOT
ATOM      1  C   UNL     1       3.678  -4.873   2.535  0.00  0.00    +0.100 C 
ATOM      2  C   UNL     1       4.747  -4.180   1.661  0.00  0.00    +0.121 C 
ATOM      3  N   UNL     1       5.550  -3.380   2.616  0.00  0.00    -0.296 N 
ATOM      4  C   UNL     1       5.671  -4.247   3.813  0.00  0.00    +0.115 C 
ATOM      5  C   UNL     1       4.289  -4.919   3.946  0.00  0.00    -0.004 C 
ATOM      6  C   UNL     1       4.447  -6.364   4.407  0.00  0.00    -0.010 C 
ATOM      7  C   UNL     1       5.002  -6.383   5.834  0.00  0.00    -0.082 C 
ATOM      8  N   UNL     1       4.087  -5.660   6.726  0.00  0.00    +0.379 N 
ATOM      9  C   UNL     1       4.014  -4.248   6.331  0.00  0.00    -0.082 C 
ATOM     10  C   UNL     1       3.417  -4.140   4.925  0.00  0.00    -0.010 C 
ATOM     11  C   UNL     1       6.057  -2.144   2.437  0.00  0.00    +0.250 C 
ATOM     12  O   UNL     1       5.789  -1.518   1.430  0.00  0.00    -0.270 OA
ATOM     13  H   UNL     1       3.168  -6.072   6.669  0.00  0.00    -0.086 HD
ATOM     14  H   UNL     1       4.424  -5.726   7.675  0.00  0.00    -0.086 HD
ENDROOT
BRANCH  11  15
ATOM     15  C   UNL     1       6.936  -1.552   3.463  0.00  0.00    +0.078 A 
ATOM     16  C   UNL     1       7.818  -2.360   4.184  0.00  0.00    +0.017 A 
ATOM     17  C   UNL     1       8.637  -1.800   5.141  0.00  0.00    +0.001 A 
ATOM     18  C   UNL     1       8.590  -0.438   5.391  0.00  0.00    +0.004 A 
ATOM     19  C   UNL     1       7.723   0.372   4.686  0.00  0.00    +0.046 A 
ATOM     20  C   UNL     1       6.895  -0.174   3.715  0.00  0.00    +0.132 A 
BRANCH  20  21
ATOM     21  O   UNL     1       6.046   0.622   3.018  0.00  0.00    -0.494 OA
ATOM     22  C   UNL     1       6.060   2.016   3.330  0.00  0.00    +0.277 C 
ENDBRANCH  20  21
ENDBRANCH  11  15
BRANCH   1  24
ATOM     23  N   UNL     1       1.215  -4.690   2.679  0.00  0.00    -0.315 N 
ATOM     24  C   UNL     1       2.403  -4.069   2.542  0.00  0.00    +0.218 C 
ATOM     25  O   UNL     1       2.447  -2.862   2.424  0.00  0.00    -0.275 OA
ATOM     26  H   UNL     1       1.180  -5.655   2.773  0.00  0.00    +0.149 HD
BRANCH  23  27
ATOM     27  C   UNL     1      -0.024  -3.908   2.685  0.00  0.00    +0.109 C 
BRANCH  27  28
ATOM     28  C   UNL     1      -1.219  -4.848   2.853  0.00  0.00    +0.057 C 
BRANCH  28  34
ATOM     29  C   UNL     1      -3.103  -3.699   1.662  0.00  0.00    +0.123 A 
ATOM     30  C   UNL     1      -4.279  -2.962   1.672  0.00  0.00    +0.046 A 
ATOM     31  C   UNL     1      -4.837  -2.571   2.873  0.00  0.00    +0.004 A 
ATOM     32  C   UNL     1      -4.225  -2.911   4.065  0.00  0.00    +0.000 A 
ATOM     33  C   UNL     1      -3.053  -3.644   4.058  0.00  0.00    +0.007 A 
ATOM     34  C   UNL     1      -2.494  -4.043   2.860  0.00  0.00    -0.004 A 
BRANCH  29  36
ATOM     35  C   UNL     1      -3.234  -3.695  -0.712  0.00  0.00    +0.277 C 
ATOM     36  O   UNL     1      -2.552  -4.085   0.482  0.00  0.00    -0.495 OA
ENDBRANCH  29  36
ENDBRANCH  28  34
ENDBRANCH  27  28
ENDBRANCH  23  27
ENDBRANCH   1  24
TORSDOF 7
