REMARK  Name = ZINC35694682
REMARK  15 active torsions:
REMARK  status: ('A' for Active; 'I' for Inactive)
REMARK    1  A    between atoms: C_1  and  C_2
REMARK    2  A    between atoms: C_5  and  N_8
REMARK    3  A    between atoms: C_10  and  C_32
REMARK    4  A    between atoms: N_13  and  C_14
REMARK    5  A    between atoms: C_14  and  C_16
REMARK    6  A    between atoms: C_16  and  N_17
REMARK    7  A    between atoms: N_17  and  C_18
REMARK    8  A    between atoms: C_18  and  C_19
REMARK    9  A    between atoms: C_19  and  N_20
REMARK   10  A    between atoms: N_20  and  C_21
REMARK   11  A    between atoms: N_20  and  C_22
REMARK   12  A    between atoms: C_23  and  C_25
REMARK   13  A    between atoms: C_30  and  C_31
REMARK   14  A    between atoms: C_35  and  O_38
REMARK   15  A    between atoms: O_38  and  C_39
REMARK                            x       y       z     vdW  Elec       q    Type
REMARK                         _______ _______ _______ _____ _____    ______ ____
ROOT
ATOM      1  N   UNL     1      -0.276  -5.294  -0.165  0.00  0.00    -0.287 N 
ATOM      2  C   UNL     1      -0.358  -6.239  -1.168  0.00  0.00    +0.120 A 
ATOM      3  C   UNL     1      -0.369  -7.456  -0.596  0.00  0.00    +0.066 A 
ATOM      4  N   UNL     1      -0.293  -7.280   0.781  0.00  0.00    -0.326 N 
ATOM      5  C   UNL     1      -0.231  -5.946   1.028  0.00  0.00    +0.205 A 
ATOM      6  N   UNL     1      -0.145  -5.376   2.230  0.00  0.00    -0.145 NA
ATOM      7  H   UNL     1      -0.283  -7.986   1.446  0.00  0.00    +0.169 HD
ENDROOT
BRANCH   1  12
ATOM      8  C   UNL     1      -0.128   0.331  -0.891  0.00  0.00    +0.044 C 
ATOM      9  C   UNL     1      -0.167  -1.163  -0.698  0.00  0.00    -0.050 A 
ATOM     10  C   UNL     1      -0.256  -1.998  -1.797  0.00  0.00    +0.005 A 
ATOM     11  C   UNL     1      -0.292  -3.368  -1.623  0.00  0.00    +0.026 A 
ATOM     12  C   UNL     1      -0.239  -3.906  -0.344  0.00  0.00    +0.049 A 
ATOM     13  C   UNL     1      -0.149  -3.064   0.757  0.00  0.00    +0.026 A 
ATOM     14  C   UNL     1      -0.108  -1.696   0.576  0.00  0.00    +0.005 A 
ENDBRANCH   1  12
BRANCH   3  15
ATOM     15  C   UNL     1      -0.448  -8.752  -1.306  0.00  0.00    +0.000 A 
ATOM     16  C   UNL     1      -0.515  -8.783  -2.699  0.00  0.00    +0.013 A 
ATOM     17  C   UNL     1      -0.588  -9.992  -3.357  0.00  0.00    +0.046 A 
ATOM     18  C   UNL     1      -0.597 -11.178  -2.635  0.00  0.00    +0.120 A 
ATOM     19  C   UNL     1      -0.531 -11.151  -1.248  0.00  0.00    +0.046 A 
ATOM     20  C   UNL     1      -0.451  -9.946  -0.583  0.00  0.00    +0.013 A 
BRANCH  18  21
ATOM     21  O   UNL     1      -0.669 -12.368  -3.287  0.00  0.00    -0.495 OA
ATOM     22  C   UNL     1      -0.674 -13.550  -2.482  0.00  0.00    +0.277 C 
ENDBRANCH  18  21
ENDBRANCH   3  15
BRANCH   6  23
ATOM     23  C   UNL     1      -0.110  -6.130   3.322  0.00  0.00    +0.256 C 
ATOM     24  O   UNL     1      -0.156  -7.342   3.226  0.00  0.00    -0.272 OA
BRANCH  23  25
ATOM     25  C   UNL     1      -0.013  -5.486   4.680  0.00  0.00    +0.205 C 
BRANCH  25  26
ATOM     26  N   UNL     1       0.010  -6.524   5.713  0.00  0.00    -0.290 N 
ATOM     27  C   UNL     1      -1.144  -6.963   6.253  0.00  0.00    +0.247 C 
ATOM     28  O   UNL     1      -1.122  -7.763   7.168  0.00  0.00    -0.270 OA
BRANCH  27  29
ATOM     29  C   UNL     1      -2.438  -6.471   5.733  0.00  0.00    +0.040 A 
ATOM     30  C   UNL     1      -2.718  -5.103   5.732  0.00  0.00    +0.013 A 
ATOM     31  C   UNL     1      -3.927  -4.651   5.245  0.00  0.00    +0.001 A 
ATOM     32  C   UNL     1      -4.860  -5.549   4.758  0.00  0.00    +0.000 A 
ATOM     33  C   UNL     1      -4.588  -6.905   4.756  0.00  0.00    +0.004 A 
ATOM     34  C   UNL     1      -3.381  -7.371   5.236  0.00  0.00    -0.038 A 
ATOM     35  C   UNL     1      -3.084  -8.848   5.227  0.00  0.00    +0.044 C 
ENDBRANCH  27  29
BRANCH  26  36
ATOM     36  C   UNL     1       1.287  -7.086   6.159  0.00  0.00    +0.090 C 
BRANCH  36  37
ATOM     37  C   UNL     1       1.882  -6.195   7.252  0.00  0.00    -0.060 C 
BRANCH  37  38
ATOM     38  N   UNL     1       3.218  -6.689   7.613  0.00  0.00    +0.377 N 
ATOM     39  C   UNL     1       3.843  -5.760   8.564  0.00  0.00    -0.097 C 
ATOM     40  C   UNL     1       3.099  -8.016   8.230  0.00  0.00    -0.097 C 
ATOM     41  H   UNL     1       3.788  -6.754   6.782  0.00  0.00    -0.083 HD
ENDBRANCH  37  38
ENDBRANCH  36  37
ENDBRANCH  26  36
ENDBRANCH  25  26
ENDBRANCH  23  25
ENDBRANCH   6  23
TORSDOF 10
