REMARK  Name = ZINC01381887
REMARK  9 active torsions:
REMARK  status: ('A' for Active; 'I' for Inactive)
REMARK    1  A    between atoms: C_1  and  C_2
REMARK    2  A    between atoms: C_6  and  C_15
REMARK    3  A    between atoms: C_13  and  C_14
REMARK    4  A    between atoms: C_15  and  C_17
REMARK    5  A    between atoms: C_15  and  N_28
REMARK    6  A    between atoms: N_21  and  C_22
REMARK    7  A    between atoms: C_22  and  C_23
REMARK    8  A    between atoms: N_31  and  C_34
REMARK    9  A    between atoms: C_34  and  C_35
REMARK                            x       y       z     vdW  Elec       q    Type
REMARK                         _______ _______ _______ _____ _____    ______ ____
ROOT
ATOM      1  C   UNL     1       0.053  -4.980  -3.675  0.00  0.00    +0.162 C 
ENDROOT
BRANCH   1   7
ATOM      2  C   UNL     1      -0.018   1.503   0.010  0.00  0.00    +0.044 C 
ATOM      3  C   UNL     1       0.002  -0.004   0.002  0.00  0.00    -0.047 A 
ATOM      4  C   UNL     1       0.005  -0.675  -1.188  0.00  0.00    +0.013 A 
ATOM      5  C   UNL     1       0.025  -2.073  -1.196  0.00  0.00    -0.001 A 
ATOM      6  C   UNL     1       0.029  -2.823  -2.454  0.00  0.00    +0.021 A 
ATOM      7  C   UNL     1       0.048  -4.178  -2.399  0.00  0.00    +0.042 A 
ATOM      8  C   UNL     1       0.063  -4.839  -1.153  0.00  0.00    +0.254 A 
ATOM      9  O   UNL     1       0.080  -6.058  -1.127  0.00  0.00    -0.268 OA
ATOM     10  N   UNL     1       0.059  -4.159   0.007  0.00  0.00    -0.322 N 
ATOM     11  H   UNL     1       0.070  -4.645   0.846  0.00  0.00    +0.169 HD
ATOM     12  C   UNL     1       0.040  -2.781   0.021  0.00  0.00    +0.049 A 
ATOM     13  C   UNL     1       0.035  -2.077   1.220  0.00  0.00    +0.030 A 
ATOM     14  C   UNL     1       0.023  -0.698   1.204  0.00  0.00    -0.046 A 
ATOM     15  C   UNL     1       0.025   0.063   2.505  0.00  0.00    +0.044 C 
ENDBRANCH   1   7
BRANCH   1  16
ATOM     16  N   UNL     1       1.201  -5.898  -3.672  0.00  0.00    -0.286 NA
ATOM     17  C   UNL     1       2.461  -5.165  -3.486  0.00  0.00    +0.101 C 
ATOM     18  C   UNL     1       3.620  -6.160  -3.409  0.00  0.00    +0.100 C 
ATOM     19  N   UNL     1       3.658  -6.961  -4.640  0.00  0.00    -0.296 NA
ATOM     20  C   UNL     1       2.398  -7.694  -4.827  0.00  0.00    +0.100 C 
ATOM     21  C   UNL     1       1.238  -6.699  -4.904  0.00  0.00    +0.101 C 
BRANCH  19  22
ATOM     22  C   UNL     1       4.805  -7.878  -4.638  0.00  0.00    +0.119 C 
BRANCH  22  23
ATOM     23  C   UNL     1       4.954  -8.500  -6.002  0.00  0.00    -0.030 A 
ATOM     24  C   UNL     1       4.299  -9.681  -6.297  0.00  0.00    +0.009 A 
ATOM     25  C   UNL     1       4.432 -10.255  -7.548  0.00  0.00    +0.050 A 
ATOM     26  C   UNL     1       5.225  -9.648  -8.508  0.00  0.00    +0.166 A 
ATOM     27  C   UNL     1       5.885  -8.459  -8.211  0.00  0.00    +0.167 A 
ATOM     28  C   UNL     1       5.742  -7.886  -6.957  0.00  0.00    +0.054 A 
ATOM     29  O   UNL     1       6.593  -8.066  -9.310  0.00  0.00    -0.453 OA
ATOM     30  C   UNL     1       6.687  -9.236 -10.145  0.00  0.00    +0.466 C 
ATOM     31  O   UNL     1       5.519 -10.001  -9.794  0.00  0.00    -0.453 OA
ENDBRANCH  22  23
ENDBRANCH  19  22
ENDBRANCH   1  16
BRANCH   1  32
ATOM     32  C   UNL     1      -1.224  -5.774  -3.774  0.00  0.00    +0.173 A 
ATOM     33  N   UNL     1      -1.530  -6.853  -3.096  0.00  0.00    -0.111 NA
ATOM     34  N   UNL     1      -2.705  -7.234  -3.462  0.00  0.00    -0.023 NA
ATOM     35  N   UNL     1      -3.157  -6.426  -4.357  0.00  0.00    -0.043 NA
ATOM     36  N   UNL     1      -2.275  -5.509  -4.573  0.00  0.00    -0.220 N 
BRANCH  36  37
ATOM     37  C   UNL     1      -2.393  -4.392  -5.513  0.00  0.00    +0.221 C 
BRANCH  37  38
ATOM     38  C   UNL     1      -1.858  -4.808  -6.859  0.00  0.00    +0.126 A 
ATOM     39  C   UNL     1      -2.573  -5.369  -7.851  0.00  0.00    +0.046 A 
ATOM     40  C   UNL     1      -1.680  -5.594  -8.923  0.00  0.00    +0.041 A 
ATOM     41  C   UNL     1      -0.472  -5.159  -8.522  0.00  0.00    +0.195 A 
ATOM     42  O   UNL     1      -0.587  -4.678  -7.273  0.00  0.00    -0.466 OA
ENDBRANCH  37  38
ENDBRANCH  36  37
ENDBRANCH   1  32
TORSDOF 7
