REMARK  Name = ZINC06296782
REMARK  4 active torsions:
REMARK  status: ('A' for Active; 'I' for Inactive)
REMARK    1  A    between atoms: C_1  and  C_2
REMARK    2  A    between atoms: N_5  and  S_8
REMARK    3  A    between atoms: S_8  and  C_11
REMARK    4  A    between atoms: C_24  and  C_28
REMARK                            x       y       z     vdW  Elec       q    Type
REMARK                         _______ _______ _______ _____ _____    ______ ____
ROOT
ATOM      1  C   UNL     1      -0.795  -5.265   1.507  0.00  0.00    +0.106 A 
ATOM      2  C   UNL     1      -1.689  -5.900   0.660  0.00  0.00    +0.030 A 
ATOM      3  C   UNL     1      -1.406  -7.150   0.151  0.00  0.00    +0.028 A 
ATOM      4  C   UNL     1      -0.214  -7.788   0.485  0.00  0.00    +0.050 A 
ATOM      5  C   UNL     1       0.688  -7.143   1.342  0.00  0.00    +0.031 A 
ATOM      6  C   UNL     1       0.393  -5.878   1.845  0.00  0.00    +0.040 A 
ATOM      7  C   UNL     1       1.838  -8.051   1.507  0.00  0.00    +0.136 A 
ATOM      8  C   UNL     1       1.528  -9.235   0.698  0.00  0.00    +0.163 A 
ATOM      9  N   UNL     1       0.301  -9.022   0.115  0.00  0.00    -0.338 N 
ATOM     10  H   UNL     1      -0.145  -9.651  -0.474  0.00  0.00    +0.167 HD
ATOM     11  N   UNL     1       2.389 -10.233   0.651  0.00  0.00    -0.191 NA
ATOM     12  C   UNL     1       3.539 -10.180   1.332  0.00  0.00    +0.254 A 
ATOM     13  N   UNL     1       4.538 -11.048   1.434  0.00  0.00    -0.209 NA
ATOM     14  C   UNL     1       5.483 -10.541   2.241  0.00  0.00    +0.094 A 
ATOM     15  C   UNL     1       5.071  -9.313   2.665  0.00  0.00    +0.144 A 
ATOM     16  N   UNL     1       3.852  -9.082   2.097  0.00  0.00    -0.203 N 
ATOM     17  N   UNL     1       2.966  -7.998   2.175  0.00  0.00    -0.160 NA
ENDROOT
BRANCH  14  18
ATOM     18  C   UNL     1       6.758 -11.204   2.610  0.00  0.00    +0.020 A 
ATOM     19  C   UNL     1       7.655 -10.568   3.467  0.00  0.00    +0.013 A 
ATOM     20  C   UNL     1       8.839 -11.190   3.808  0.00  0.00    +0.021 A 
ATOM     21  C   UNL     1       9.137 -12.443   3.300  0.00  0.00    +0.042 A 
ATOM     22  C   UNL     1       8.251 -13.079   2.448  0.00  0.00    +0.040 A 
ATOM     23  C   UNL     1       7.060 -12.468   2.105  0.00  0.00    +0.052 A 
ATOM     24 CL   UNL     1       5.946 -13.270   1.042  0.00  0.00    -0.083 Cl
ATOM     25 CL   UNL     1      10.629 -13.218   3.732  0.00  0.00    -0.083 Cl
ENDBRANCH  14  18
BRANCH   1  26
ATOM     26  S   UNL     1      -1.173  -3.668   2.148  0.00  0.00    +0.061 S 
ATOM     27  O   UNL     1      -0.421  -3.521   3.344  0.00  0.00    -0.153 OA
ATOM     28  O   UNL     1      -2.589  -3.544   2.119  0.00  0.00    -0.153 OA
BRANCH  26  33
ATOM     29  C   UNL     1      -0.019   1.526   0.010  0.00  0.00    +0.007 C 
ATOM     30  C   UNL     1       0.002  -0.004   0.002  0.00  0.00    -0.012 C 
ATOM     31  C   UNL     1      -1.434  -0.533   0.011  0.00  0.00    +0.020 C 
ATOM     32  C   UNL     1      -1.409  -2.065  -0.032  0.00  0.00    +0.110 C 
ATOM     33  N   UNL     1      -0.578  -2.556   1.075  0.00  0.00    -0.177 NA
ATOM     34  C   UNL     1       0.791  -2.042   1.212  0.00  0.00    +0.110 C 
ATOM     35  C   UNL     1       0.742  -0.511   1.242  0.00  0.00    +0.020 C 
ENDBRANCH  26  33
ENDBRANCH   1  26
TORSDOF 3
