REMARK  Name = ZINC28057628
REMARK  6 active torsions:
REMARK  status: ('A' for Active; 'I' for Inactive)
REMARK    1  A    between atoms: C_1  and  C_2
REMARK    2  A    between atoms: C_10  and  C_13
REMARK    3  A    between atoms: C_16  and  C_19
REMARK    4  A    between atoms: C_19  and  O_21
REMARK    5  A    between atoms: O_21  and  C_22
REMARK    6  A    between atoms: C_23  and  C_31
REMARK                            x       y       z     vdW  Elec       q    Type
REMARK                         _______ _______ _______ _____ _____    ______ ____
ROOT
ATOM      1  C   UNL     1      -0.472   5.521  -0.018  0.00  0.00    +0.044 C 
ATOM      2  C   UNL     1      -0.360   4.018  -0.013  0.00  0.00    -0.050 A 
ATOM      3  C   UNL     1      -1.506   3.242   0.014  0.00  0.00    +0.007 A 
ATOM      4  C   UNL     1      -1.419   1.862   0.025  0.00  0.00    +0.046 A 
ATOM      5  C   UNL     1      -0.179   1.252  -0.000  0.00  0.00    +0.131 A 
ATOM      6  C   UNL     1       0.982   2.036  -0.028  0.00  0.00    +0.038 A 
ATOM      7  C   UNL     1       0.886   3.422  -0.033  0.00  0.00    +0.016 A 
ATOM      8  C   UNL     1       2.296   1.349  -0.051  0.00  0.00    +0.050 C 
ATOM      9  C   UNL     1       2.344   0.058   0.282  0.00  0.00    +0.026 C 
ATOM     10  C   UNL     1       1.071  -0.643   0.700  0.00  0.00    +0.234 C 
ATOM     11  O   UNL     1      -0.052  -0.100   0.006  0.00  0.00    -0.479 OA
ATOM     12  C   UNL     1       3.626  -0.736   0.254  0.00  0.00    +0.177 C 
ATOM     13  N   UNL     1       4.767   0.160   0.133  0.00  0.00    -0.201 N 
ATOM     14  C   UNL     1       4.667   1.475  -0.195  0.00  0.00    +0.240 A 
ATOM     15  N   UNL     1       5.873   1.962  -0.221  0.00  0.00    -0.092 NA
ATOM     16  N   UNL     1       6.731   1.046   0.074  0.00  0.00    -0.021 NA
ATOM     17  N   UNL     1       6.131  -0.076   0.304  0.00  0.00    -0.042 NA
ATOM     18  N   UNL     1       3.436   2.067  -0.428  0.00  0.00    -0.282 N 
ATOM     19  H   UNL     1       3.333   3.060  -0.890  0.00  0.00    +0.155 HD
ENDROOT
BRANCH  12  20
ATOM     20  C   UNL     1       3.604  -1.679  -0.922  0.00  0.00    +0.017 A 
ATOM     21  C   UNL     1       3.484  -1.180  -2.205  0.00  0.00    +0.009 A 
ATOM     22  C   UNL     1       3.470  -2.044  -3.284  0.00  0.00    +0.001 A 
ATOM     23  C   UNL     1       3.564  -3.408  -3.080  0.00  0.00    +0.003 A 
ATOM     24  C   UNL     1       3.679  -3.909  -1.798  0.00  0.00    +0.039 A 
ATOM     25  C   UNL     1       3.699  -3.044  -0.716  0.00  0.00    +0.129 A 
ATOM     26  F   UNL     1       3.811  -3.533   0.538  0.00  0.00    -0.205 F 
ENDBRANCH  12  20
BRANCH  10  27
ATOM     27  C   UNL     1       0.871  -0.467   2.183  0.00  0.00    -0.003 A 
ATOM     28  C   UNL     1       1.139  -1.517   3.043  0.00  0.00    +0.008 A 
ATOM     29  C   UNL     1       0.964  -1.361   4.403  0.00  0.00    +0.015 A 
ATOM     30  C   UNL     1       0.504  -0.144   4.909  0.00  0.00    +0.059 A 
ATOM     31  C   UNL     1       0.230   0.909   4.035  0.00  0.00    +0.015 A 
ATOM     32  C   UNL     1       0.415   0.742   2.678  0.00  0.00    +0.008 A 
BRANCH  30  33
ATOM     33  C   UNL     1       0.308   0.028   6.363  0.00  0.00    +0.339 C 
ATOM     34  O   UNL     1      -0.093   1.088   6.800  0.00  0.00    -0.245 OA
BRANCH  33  35
ATOM     35  O   UNL     1       0.573  -0.990   7.204  0.00  0.00    -0.464 OA
ATOM     36  C   UNL     1       0.358  -0.750   8.619  0.00  0.00    +0.280 C 
ENDBRANCH  33  35
ENDBRANCH  30  33
ENDBRANCH  10  27
TORSDOF 4
