REMARK  Name = ZINC17039291
REMARK  12 active torsions:
REMARK  status: ('A' for Active; 'I' for Inactive)
REMARK    1  A    between atoms: C_1  and  C_2
REMARK    2  A    between atoms: C_2  and  N_3
REMARK    3  A    between atoms: C_7  and  S_26
REMARK    4  A    between atoms: C_11  and  S_12
REMARK    5  A    between atoms: S_12  and  C_13
REMARK    6  A    between atoms: C_13  and  C_15
REMARK    7  A    between atoms: C_13  and  C_16
REMARK    8  A    between atoms: N_21  and  C_22
REMARK    9  A    between atoms: C_22  and  C_23
REMARK   10  A    between atoms: C_22  and  C_24
REMARK   11  A    between atoms: C_22  and  C_25
REMARK   12  A    between atoms: S_26  and  N_29
REMARK                            x       y       z     vdW  Elec       q    Type
REMARK                         _______ _______ _______ _____ _____    ______ ____
ROOT
ATOM      1  N   UNL     1       3.412  -5.425  -1.073  0.00  0.00    -0.319 N 
ATOM      2  C   UNL     1       2.794  -6.660  -0.964  0.00  0.00    +0.070 A 
ATOM      3  C   UNL     1       3.199  -7.962  -1.217  0.00  0.00    +0.030 A 
ATOM      4  C   UNL     1       2.321  -9.006  -1.008  0.00  0.00    +0.030 A 
ATOM      5  C   UNL     1       1.036  -8.763  -0.546  0.00  0.00    +0.107 A 
ATOM      6  C   UNL     1       0.618  -7.476  -0.290  0.00  0.00    +0.058 A 
ATOM      7  C   UNL     1       1.494  -6.408  -0.496  0.00  0.00    +0.092 A 
ATOM      8  N   UNL     1       1.379  -5.063  -0.338  0.00  0.00    -0.222 NA
ATOM      9  C   UNL     1       2.506  -4.483  -0.673  0.00  0.00    +0.171 A 
ENDROOT
BRANCH   5  10
ATOM     10  S   UNL     1      -0.069 -10.110  -0.286  0.00  0.00    +0.056 S 
ATOM     11  O   UNL     1       0.737 -11.262  -0.079  0.00  0.00    -0.153 OA
ATOM     12  O   UNL     1      -1.028  -9.670   0.666  0.00  0.00    -0.153 OA
BRANCH  10  13
ATOM     13  N   UNL     1      -0.887 -10.353  -1.705  0.00  0.00    -0.204 NA
ATOM     14  H   UNL     1      -0.704  -9.790  -2.473  0.00  0.00    +0.144 HD
ATOM     15  H   UNL     1      -1.550 -11.059  -1.768  0.00  0.00    +0.144 HD
ENDBRANCH  10  13
ENDBRANCH   5  10
BRANCH   1  17
ATOM     16  C   UNL     1       5.732  -5.208  -0.330  0.00  0.00    +0.027 C 
ATOM     17  C   UNL     1       4.781  -5.174  -1.529  0.00  0.00    +0.121 C 
ENDBRANCH   1  17
BRANCH   9  18
ATOM     18  S   UNL     1       2.805  -2.747  -0.623  0.00  0.00    -0.075 S 
BRANCH  18  19
ATOM     19  C   UNL     1       1.199  -2.169  -0.021  0.00  0.00    +0.137 C 
ATOM     20  C   UNL     1       0.969  -2.690   1.399  0.00  0.00    +0.029 C 
BRANCH  19  21
ATOM     21  C   UNL     1       1.178  -0.662  -0.013  0.00  0.00    +0.233 C 
ATOM     22  O   UNL     1       2.220  -0.042  -0.019  0.00  0.00    -0.274 OA
ATOM     23  N   UNL     1       0.002  -0.004   0.002  0.00  0.00    -0.239 N 
ATOM     24  C   UNL     1      -0.016   1.344   0.009  0.00  0.00    +0.306 C 
ATOM     25  O   UNL     1       1.028   1.966   0.003  0.00  0.00    -0.252 OA
ATOM     26  N   UNL     1      -1.192   2.002   0.019  0.00  0.00    -0.294 N 
ATOM     27  H   UNL     1      -0.831  -0.500   0.007  0.00  0.00    +0.159 HD
ATOM     28  H   UNL     1      -2.026   1.505   0.020  0.00  0.00    +0.151 HD
BRANCH  26  29
ATOM     29  C   UNL     1      -1.212   3.466   0.027  0.00  0.00    +0.028 C 
ATOM     30  C   UNL     1      -0.504   3.993  -1.223  0.00  0.00    +0.031 C 
ATOM     31  C   UNL     1      -2.662   3.957   0.036  0.00  0.00    +0.031 C 
ATOM     32  C   UNL     1      -0.492   3.979   1.275  0.00  0.00    +0.031 C 
ENDBRANCH  26  29
ENDBRANCH  19  21
ENDBRANCH  18  19
ENDBRANCH   9  18
TORSDOF 7
