REMARK  Name = ZINC49320800
REMARK  2 active torsions:
REMARK  status: ('A' for Active; 'I' for Inactive)
REMARK    1  A    between atoms: C_13  and  C_15
REMARK    2  A    between atoms: N_17  and  C_18
REMARK                            x       y       z     vdW  Elec       q    Type
REMARK                         _______ _______ _______ _____ _____    ______ ____
ROOT
ATOM      1  C   UNL     1      -0.017   1.379   0.010  0.00  0.00    +0.084 A 
ATOM      2  C   UNL     1       1.201   2.061   0.002  0.00  0.00    +0.128 A 
ATOM      3  N   UNL     1       2.332   1.362  -0.013  0.00  0.00    -0.200 NA
ATOM      4  C   UNL     1       2.308   0.038  -0.020  0.00  0.00    +0.216 A 
ATOM      5  N   UNL     1       1.168  -0.636  -0.013  0.00  0.00    -0.203 NA
ATOM      6  C   UNL     1       0.002  -0.004   0.002  0.00  0.00    +0.136 A 
ATOM      7 CL   UNL     1      -1.484  -0.902   0.012  0.00  0.00    -0.062 Cl
ATOM      8  N   UNL     1       3.504  -0.658  -0.035  0.00  0.00    -0.327 N 
ATOM      9  N   UNL     1       1.231   3.446   0.008  0.00  0.00    -0.303 N 
ATOM     10  C   UNL     1       2.440   4.280  -0.110  0.00  0.00    +0.107 C 
ATOM     11  C   UNL     1       1.935   5.635  -0.665  0.00  0.00    +0.021 C 
ATOM     12  C   UNL     1       0.573   5.782   0.063  0.00  0.00    +0.033 C 
ATOM     13  C   UNL     1       0.060   4.327   0.128  0.00  0.00    +0.161 C 
ATOM     14  H   UNL     1       4.345  -0.177  -0.041  0.00  0.00    +0.145 HD
ATOM     15  H   UNL     1       3.500  -1.629  -0.041  0.00  0.00    +0.145 HD
ENDROOT
BRANCH  13  16
ATOM     16  C   UNL     1      -0.629   4.088   1.446  0.00  0.00    +0.234 C 
ATOM     17  O   UNL     1      -0.191   3.262   2.219  0.00  0.00    -0.274 OA
ATOM     18  N   UNL     1      -1.733   4.792   1.768  0.00  0.00    -0.311 N 
ATOM     19  H   UNL     1      -2.083   5.453   1.150  0.00  0.00    +0.149 HD
BRANCH  18  20
ATOM     20  C   UNL     1      -2.403   4.559   3.050  0.00  0.00    +0.073 C 
ATOM     21  C   UNL     1      -3.930   4.473   3.043  0.00  0.00    +0.024 C 
ATOM     22  C   UNL     1      -3.236   5.704   3.629  0.00  0.00    +0.024 C 
ENDBRANCH  18  20
ENDBRANCH  13  16
TORSDOF 2
