REMARK  Name = ZINC37560547
REMARK  12 active torsions:
REMARK  status: ('A' for Active; 'I' for Inactive)
REMARK    1  A    between atoms: C_1  and  O_2
REMARK    2  A    between atoms: O_2  and  C_3
REMARK    3  A    between atoms: C_8  and  C_9
REMARK    4  A    between atoms: C_9  and  N_10
REMARK    5  A    between atoms: C_13  and  N_16
REMARK    6  A    between atoms: N_16  and  C_17
REMARK    7  A    between atoms: N_16  and  S_27
REMARK    8  A    between atoms: C_20  and  O_25
REMARK    9  A    between atoms: C_21  and  O_23
REMARK   10  A    between atoms: O_23  and  C_24
REMARK   11  A    between atoms: O_25  and  C_26
REMARK   12  A    between atoms: S_27  and  C_30
REMARK                            x       y       z     vdW  Elec       q    Type
REMARK                         _______ _______ _______ _____ _____    ______ ____
ROOT
ATOM      1  N   UNL     1       3.117  -2.643   4.697  0.00  0.00    -0.200 N 
ENDROOT
BRANCH   1   5
ATOM      2  N   UNL     1       0.673  -3.572   1.391  0.00  0.00    +0.383 N 
ATOM      3  C   UNL     1       0.778  -2.155   1.756  0.00  0.00    -0.077 C 
ATOM      4  C   UNL     1       1.283  -2.031   3.196  0.00  0.00    +0.006 C 
ATOM      5  C   UNL     1       2.660  -2.691   3.305  0.00  0.00    +0.095 C 
ATOM      6  C   UNL     1       2.554  -4.149   2.851  0.00  0.00    +0.006 C 
ATOM      7  C   UNL     1       2.002  -4.195   1.425  0.00  0.00    -0.077 C 
ATOM      8  H   UNL     1       0.066  -4.042   2.046  0.00  0.00    -0.081 HD
BRANCH   2   9
ATOM      9  C   UNL     1       0.114  -3.688   0.037  0.00  0.00    -0.039 C 
BRANCH   9  15
ATOM     10  C   UNL     1      -1.527  -1.793  -0.029  0.00  0.00    +0.121 A 
ATOM     11  C   UNL     1      -2.828  -1.311  -0.041  0.00  0.00    +0.046 A 
ATOM     12  C   UNL     1      -3.891  -2.192   0.011  0.00  0.00    +0.004 A 
ATOM     13  C   UNL     1      -3.659  -3.554   0.076  0.00  0.00    +0.000 A 
ATOM     14  C   UNL     1      -2.364  -4.037   0.088  0.00  0.00    +0.005 A 
ATOM     15  C   UNL     1      -1.297  -3.160   0.030  0.00  0.00    -0.022 A 
BRANCH  10  17
ATOM     16  C   UNL     1      -0.792   0.465  -0.141  0.00  0.00    +0.277 C 
ATOM     17  O   UNL     1      -0.480  -0.929  -0.081  0.00  0.00    -0.495 OA
ENDBRANCH  10  17
ENDBRANCH   9  15
ENDBRANCH   2   9
ENDBRANCH   1   5
BRANCH   1  18
ATOM     18  C   UNL     1       2.394  -3.308   5.693  0.00  0.00    +0.055 A 
ATOM     19  C   UNL     1       1.156  -2.824   6.094  0.00  0.00    +0.028 A 
ATOM     20  C   UNL     1       0.441  -3.480   7.078  0.00  0.00    +0.051 A 
ATOM     21  C   UNL     1       0.959  -4.622   7.667  0.00  0.00    +0.162 A 
ATOM     22  C   UNL     1       2.199  -5.110   7.269  0.00  0.00    +0.163 A 
ATOM     23  C   UNL     1       2.913  -4.456   6.278  0.00  0.00    +0.074 A 
BRANCH  22  24
ATOM     24  O   UNL     1       2.708  -6.231   7.847  0.00  0.00    -0.491 OA
ATOM     25  C   UNL     1       3.987  -6.674   7.388  0.00  0.00    +0.277 C 
ENDBRANCH  22  24
BRANCH  21  26
ATOM     26  O   UNL     1       0.253  -5.267   8.636  0.00  0.00    -0.491 OA
ATOM     27  C   UNL     1      -1.013  -4.711   8.996  0.00  0.00    +0.277 C 
ENDBRANCH  21  26
ENDBRANCH   1  18
BRANCH   1  28
ATOM     28  S   UNL     1       4.488  -1.801   5.090  0.00  0.00    +0.075 S 
ATOM     29  O   UNL     1       4.924  -2.300   6.347  0.00  0.00    -0.150 OA
ATOM     30  O   UNL     1       5.317  -1.814   3.936  0.00  0.00    -0.150 OA
BRANCH  28  31
ATOM     31  C   UNL     1       4.013  -0.125   5.351  0.00  0.00    +0.109 A 
ATOM     32  C   UNL     1       4.011   0.765   4.293  0.00  0.00    +0.031 A 
ATOM     33  C   UNL     1       3.638   2.080   4.497  0.00  0.00    +0.040 A 
ATOM     34  C   UNL     1       3.267   2.507   5.761  0.00  0.00    +0.124 A 
ATOM     35  C   UNL     1       3.270   1.615   6.819  0.00  0.00    +0.040 A 
ATOM     36  C   UNL     1       3.638   0.299   6.613  0.00  0.00    +0.031 A 
ATOM     37  F   UNL     1       2.903   3.792   5.961  0.00  0.00    -0.205 F 
ENDBRANCH  28  31
ENDBRANCH   1  28
TORSDOF 9
