REMARK  Name = ZINC28299800
REMARK  7 active torsions:
REMARK  status: ('A' for Active; 'I' for Inactive)
REMARK    1  A    between atoms: C_1  and  C_2
REMARK    2  A    between atoms: C_7  and  N_8
REMARK    3  A    between atoms: C_12  and  S_13
REMARK    4  A    between atoms: S_13  and  C_14
REMARK    5  A    between atoms: C_14  and  C_16
REMARK    6  A    between atoms: C_14  and  C_17
REMARK    7  A    between atoms: C_23  and  C_26
REMARK                            x       y       z     vdW  Elec       q    Type
REMARK                         _______ _______ _______ _____ _____    ______ ____
ROOT
ATOM      1  C   UNL     1      -1.111  -1.854  -1.859  0.00  0.00    +0.137 C 
ATOM      2  C   UNL     1      -1.116  -2.972  -0.815  0.00  0.00    +0.029 C 
ENDROOT
BRANCH   1   3
ATOM      3  C   UNL     1       0.293  -1.334  -2.033  0.00  0.00    +0.229 C 
ATOM      4  O   UNL     1       0.964  -1.703  -2.973  0.00  0.00    -0.274 OA
ATOM      5  N   UNL     1       0.803  -0.460  -1.143  0.00  0.00    -0.300 N 
ATOM      6  C   UNL     1       0.002  -0.004   0.002  0.00  0.00    +0.108 C 
ATOM      7  C   UNL     1      -0.019   1.528   0.010  0.00  0.00    +0.020 C 
ATOM      8  C   UNL     1       1.419   2.053  -0.001  0.00  0.00    +0.016 C 
ATOM      9  C   UNL     1       2.124   1.587  -1.276  0.00  0.00    +0.092 C 
ATOM     10  C   UNL     1       2.170   0.056  -1.299  0.00  0.00    +0.120 C 
BRANCH   9  11
ATOM     11  C   UNL     1       3.529   2.132  -1.302  0.00  0.00    +0.215 C 
ATOM     12  O   UNL     1       4.474   1.372  -1.335  0.00  0.00    -0.276 OA
ATOM     13  N   UNL     1       3.736   3.464  -1.288  0.00  0.00    -0.329 N 
ATOM     14  H   UNL     1       4.761   3.861  -1.307  0.00  0.00    +0.145 HD
ATOM     15  H   UNL     1       2.879   4.153  -1.257  0.00  0.00    +0.145 HD
ENDBRANCH   9  11
ENDBRANCH   1   3
BRANCH   1  16
ATOM     16  S   UNL     1      -1.715  -2.499  -3.438  0.00  0.00    -0.075 S 
BRANCH  16  21
ATOM     17  N   UNL     1      -4.319  -3.419  -3.824  0.00  0.00    -0.294 N 
ATOM     18  C   UNL     1      -5.472  -3.561  -3.081  0.00  0.00    +0.113 A 
ATOM     19  C   UNL     1      -5.197  -3.117  -1.843  0.00  0.00    +0.131 A 
ATOM     20  N   UNL     1      -3.915  -2.715  -1.811  0.00  0.00    -0.230 NA
ATOM     21  C   UNL     1      -3.376  -2.886  -2.996  0.00  0.00    +0.174 A 
BRANCH  17  28
ATOM     22  C   UNL     1      -2.500  -5.511  -4.467  0.00  0.00    +0.046 C 
ATOM     23  C   UNL     1      -3.272  -4.773  -5.530  0.00  0.00    -0.027 A 
ATOM     24  C   UNL     1      -3.106  -5.105  -6.861  0.00  0.00    +0.005 A 
ATOM     25  C   UNL     1      -3.814  -4.428  -7.837  0.00  0.00    +0.000 A 
ATOM     26  C   UNL     1      -4.689  -3.417  -7.484  0.00  0.00    +0.002 A 
ATOM     27  C   UNL     1      -4.863  -3.084  -6.155  0.00  0.00    +0.026 A 
ATOM     28  C   UNL     1      -4.149  -3.758  -5.173  0.00  0.00    +0.051 A 
ENDBRANCH  17  28
ENDBRANCH  16  21
ENDBRANCH   1  16
TORSDOF 5
