REMARK  Name = ZINC43548231
REMARK  12 active torsions:
REMARK  status: ('A' for Active; 'I' for Inactive)
REMARK    1  A    between atoms: C_1  and  C_2
REMARK    2  A    between atoms: C_2  and  N_3
REMARK    3  A    between atoms: N_3  and  C_4
REMARK    4  A    between atoms: C_4  and  C_5
REMARK    5  A    between atoms: C_6  and  C_8
REMARK    6  A    between atoms: C_8  and  C_10
REMARK    7  A    between atoms: C_8  and  C_11
REMARK    8  A    between atoms: C_15  and  C_34
REMARK    9  A    between atoms: N_22  and  C_23
REMARK   10  A    between atoms: C_23  and  C_24
REMARK   11  A    between atoms: C_26  and  C_33
REMARK   12  A    between atoms: C_30  and  O_32
REMARK                            x       y       z     vdW  Elec       q    Type
REMARK                         _______ _______ _______ _____ _____    ______ ____
ROOT
ATOM      1  C   UNL     1      -4.713  -0.859   1.478  0.00  0.00    +0.029 C 
ATOM      2  C   UNL     1      -4.787   0.185   2.593  0.00  0.00    +0.007 C 
ATOM      3  C   UNL     1      -6.008  -0.084   3.478  0.00  0.00    +0.008 C 
ATOM      4  C   UNL     1      -7.267  -0.035   2.615  0.00  0.00    -0.022 C 
ATOM      5  C   UNL     1      -8.518  -0.226   3.476  0.00  0.00    +0.051 C 
ATOM      6  C   UNL     1      -8.622  -1.663   3.857  0.00  0.00    +0.013 A 
ATOM      7  C   UNL     1      -7.942  -2.709   3.327  0.00  0.00    +0.031 A 
ATOM      8  N   UNL     1      -8.235  -3.894   3.860  0.00  0.00    -0.340 N 
ATOM      9  C   UNL     1      -9.118  -4.023   4.826  0.00  0.00    +0.137 A 
ATOM     10  S   UNL     1      -9.635  -2.439   5.085  0.00  0.00    -0.059 S 
ATOM     11  N   UNL     1      -9.525  -5.178   5.474  0.00  0.00    -0.321 N 
ATOM     12  C   UNL     1      -6.930  -2.491   2.214  0.00  0.00    +0.039 C 
ATOM     13  C   UNL     1      -7.189  -1.134   1.550  0.00  0.00    +0.033 C 
ATOM     14  C   UNL     1      -5.992  -0.816   0.639  0.00  0.00    +0.123 C 
ATOM     15  C   UNL     1      -7.068  -3.605   1.174  0.00  0.00    +0.014 C 
ATOM     16  C   UNL     1      -7.353   1.329   1.926  0.00  0.00    +0.012 C 
ATOM     17  H   UNL     1      -9.143  -6.034   5.224  0.00  0.00    +0.148 HD
ATOM     18  H   UNL     1      -7.785  -4.686   3.525  0.00  0.00    +0.167 HD
ENDROOT
BRANCH   1  19
ATOM     19  C   UNL     1      -3.508  -0.562   0.584  0.00  0.00    +0.078 C 
ATOM     20  C   UNL     1      -3.429  -1.609  -0.529  0.00  0.00    +0.017 C 
BRANCH  19  22
ATOM     21  N   UNL     1      -1.097  -0.115   0.907  0.00  0.00    -0.302 N 
ATOM     22  C   UNL     1      -2.247  -0.609   1.407  0.00  0.00    +0.219 C 
ATOM     23  O   UNL     1      -2.267  -1.090   2.520  0.00  0.00    -0.275 OA
BRANCH  21  25
ATOM     24  C   UNL     1       0.267   1.073   2.554  0.00  0.00    +0.024 C 
ATOM     25  C   UNL     1       0.136  -0.187   1.696  0.00  0.00    +0.104 C 
ENDBRANCH  21  25
BRANCH  21  26
ATOM     26  C   UNL     1      -1.079   0.494  -0.425  0.00  0.00    +0.104 C 
ATOM     27  C   UNL     1      -0.569  -0.526  -1.445  0.00  0.00    +0.024 C 
ENDBRANCH  21  26
ENDBRANCH  19  22
ENDBRANCH   1  19
BRANCH  14  28
ATOM     28  O   UNL     1      -6.151   0.487   0.073  0.00  0.00    -0.391 OA
ATOM     29  H   UNL     1      -5.423   0.756  -0.504  0.00  0.00    +0.210 HD
ENDBRANCH  14  28
BRANCH  11  30
ATOM     30  C   UNL     1     -10.531  -5.108   6.536  0.00  0.00    +0.130 C 
BRANCH  30  31
ATOM     31  C   UNL     1     -10.794  -6.491   7.072  0.00  0.00    -0.016 C 
ATOM     32  C   UNL     1     -10.669  -6.731   8.354  0.00  0.00    +0.005 C 
ENDBRANCH  30  31
ENDBRANCH  11  30
TORSDOF 7
