REMARK  Name = ZINC01091541
REMARK  10 active torsions:
REMARK  status: ('A' for Active; 'I' for Inactive)
REMARK    1  A    between atoms: C_1  and  C_2
REMARK    2  A    between atoms: C_2  and  O_3
REMARK    3  A    between atoms: O_3  and  C_4
REMARK    4  A    between atoms: C_6  and  C_11
REMARK    5  A    between atoms: C_9  and  O_10
REMARK    6  A    between atoms: N_15  and  C_24
REMARK    7  A    between atoms: C_16  and  C_18
REMARK    8  A    between atoms: C_25  and  C_37
REMARK    9  A    between atoms: N_26  and  C_36
REMARK   10  A    between atoms: N_27  and  C_30
REMARK                            x       y       z     vdW  Elec       q    Type
REMARK                         _______ _______ _______ _____ _____    ______ ____
ROOT
ATOM      1  C   UNL     1      -1.781  -1.067  -0.390  0.00  0.00    +0.041 C 
ATOM      2  C   UNL     1      -1.699  -2.434  -0.218  0.00  0.00    +0.129 C 
ATOM      3  C   UNL     1      -0.472  -3.250  -0.177  0.00  0.00    +0.275 C 
ATOM      4  O   UNL     1       0.677  -2.860  -0.288  0.00  0.00    -0.268 OA
ATOM      5  N   UNL     1      -0.890  -4.521   0.010  0.00  0.00    -0.212 N 
ATOM      6  C   UNL     1      -2.264  -4.516   0.082  0.00  0.00    +0.140 C 
ATOM      7  N   UNL     1      -2.734  -3.302  -0.045  0.00  0.00    -0.226 NA
ENDROOT
BRANCH   5   8
ATOM      8  C   UNL     1      -0.062  -5.657   0.112  0.00  0.00    +0.130 A 
ATOM      9  C   UNL     1       0.800  -5.923   1.119  0.00  0.00    +0.060 A 
ATOM     10  N   UNL     1       1.416  -7.118   0.854  0.00  0.00    -0.282 N 
ATOM     11  N   UNL     1       0.918  -7.608  -0.360  0.00  0.00    -0.216 N 
ATOM     12  C   UNL     1       0.009  -6.724  -0.819  0.00  0.00    +0.294 A 
ATOM     13  O   UNL     1      -0.633  -6.823  -1.849  0.00  0.00    -0.264 OA
ATOM     14  C   UNL     1       2.424  -7.770   1.695  0.00  0.00    +0.171 C 
ATOM     15  C   UNL     1       1.042  -5.054   2.326  0.00  0.00    +0.067 C 
BRANCH  11  16
ATOM     16  C   UNL     1       1.292  -8.803  -0.982  0.00  0.00    +0.067 A 
ATOM     17  C   UNL     1       1.606  -8.815  -2.335  0.00  0.00    +0.028 A 
ATOM     18  C   UNL     1       1.981  -9.996  -2.945  0.00  0.00    +0.002 A 
ATOM     19  C   UNL     1       2.033 -11.168  -2.213  0.00  0.00    +0.000 A 
ATOM     20  C   UNL     1       1.715 -11.161  -0.867  0.00  0.00    +0.002 A 
ATOM     21  C   UNL     1       1.345  -9.982  -0.250  0.00  0.00    +0.028 A 
ENDBRANCH  11  16
ENDBRANCH   5   8
BRANCH   1  24
ATOM     22  C   UNL     1       0.741   1.561  -1.267  0.00  0.00    +0.162 A 
ATOM     23  C   UNL     1      -0.408   0.797  -1.289  0.00  0.00    +0.057 A 
ATOM     24  C   UNL     1      -0.565  -0.252  -0.372  0.00  0.00    -0.019 A 
ATOM     25  C   UNL     1       0.448  -0.519   0.560  0.00  0.00    +0.012 A 
ATOM     26  C   UNL     1       1.590   0.249   0.573  0.00  0.00    +0.050 A 
ATOM     27  C   UNL     1       1.743   1.289  -0.335  0.00  0.00    +0.158 A 
BRANCH  27  28
ATOM     28  O   UNL     1       2.873   2.042  -0.317  0.00  0.00    -0.503 OA
ATOM     29  H   UNL     1       3.580   1.705  -0.883  0.00  0.00    +0.292 HD
ENDBRANCH  27  28
BRANCH  22  30
ATOM     30  O   UNL     1       0.896   2.580  -2.154  0.00  0.00    -0.489 OA
BRANCH  30  32
ATOM     31  C   UNL     1       0.184   3.982  -3.989  0.00  0.00    +0.048 C 
ATOM     32  C   UNL     1      -0.169   2.803  -3.079  0.00  0.00    +0.226 C 
ENDBRANCH  30  32
ENDBRANCH  22  30
ENDBRANCH   1  24
BRANCH   6  33
ATOM     33  C   UNL     1      -3.097  -5.720   0.281  0.00  0.00    +0.016 A 
ATOM     34  C   UNL     1      -4.467  -5.676   0.017  0.00  0.00    +0.011 A 
ATOM     35  C   UNL     1      -5.237  -6.806   0.200  0.00  0.00    +0.001 A 
ATOM     36  C   UNL     1      -4.657  -7.976   0.655  0.00  0.00    +0.000 A 
ATOM     37  C   UNL     1      -3.301  -8.025   0.924  0.00  0.00    +0.001 A 
ATOM     38  C   UNL     1      -2.518  -6.904   0.740  0.00  0.00    +0.011 A 
ENDBRANCH   6  33
TORSDOF 7
