REMARK  Name = ZINC40664050
REMARK  9 active torsions:
REMARK  status: ('A' for Active; 'I' for Inactive)
REMARK    1  A    between atoms: C_1  and  C_2
REMARK    2  A    between atoms: C_4  and  N_18
REMARK    3  A    between atoms: C_6  and  C_17
REMARK    4  A    between atoms: C_7  and  S_8
REMARK    5  A    between atoms: S_8  and  N_11
REMARK    6  A    between atoms: N_11  and  C_12
REMARK    7  A    between atoms: C_12  and  C_14
REMARK    8  A    between atoms: C_12  and  C_15
REMARK    9  A    between atoms: C_15  and  O_16
REMARK                            x       y       z     vdW  Elec       q    Type
REMARK                         _______ _______ _______ _____ _____    ______ ____
ROOT
ATOM      1  C   UNL     1      -0.422   1.579  -0.280  0.00  0.00    +0.046 C 
ATOM      2  C   UNL     1      -0.041   0.123  -0.193  0.00  0.00    -0.022 A 
ATOM      3  C   UNL     1       0.034  -0.639  -1.342  0.00  0.00    +0.030 A 
ATOM      4  C   UNL     1       0.386  -1.981  -1.262  0.00  0.00    +0.051 A 
ATOM      5  C   UNL     1       0.659  -2.551  -0.025  0.00  0.00    +0.030 A 
ATOM      6  C   UNL     1       0.582  -1.782   1.120  0.00  0.00    -0.022 A 
ATOM      7  C   UNL     1       0.237  -0.446   1.036  0.00  0.00    +0.111 A 
ATOM      8  C   UNL     1       0.878  -2.400   2.463  0.00  0.00    +0.046 C 
ENDROOT
BRANCH   4   9
ATOM      9  N   UNL     1       0.463  -2.755  -2.421  0.00  0.00    -0.207 N 
ATOM     10  C   UNL     1      -0.295  -4.010  -2.548  0.00  0.00    +0.131 C 
ATOM     11  C   UNL     1       0.668  -5.159  -2.837  0.00  0.00    +0.022 C 
ATOM     12  C   UNL     1       1.348  -4.967  -4.191  0.00  0.00    +0.026 C 
ATOM     13  C   UNL     1       2.341  -3.801  -4.111  0.00  0.00    +0.189 C 
ATOM     14  S   UNL     1       1.409  -2.284  -3.707  0.00  0.00    +0.045 S 
ATOM     15  O   UNL     1       0.492  -1.972  -4.746  0.00  0.00    -0.155 OA
ATOM     16  O   UNL     1       2.281  -1.293  -3.180  0.00  0.00    -0.155 OA
ENDBRANCH   4   9
BRANCH   7  17
ATOM     17  S   UNL     1       0.147   0.533   2.498  0.00  0.00    +0.059 S 
ATOM     18  O   UNL     1       0.856  -0.176   3.505  0.00  0.00    -0.153 OA
ATOM     19  O   UNL     1       0.484   1.860   2.120  0.00  0.00    -0.153 OA
BRANCH  17  20
ATOM     20  N   UNL     1      -1.440   0.563   2.970  0.00  0.00    -0.185 NA
ATOM     21  H   UNL     1      -1.935   1.397   2.955  0.00  0.00    +0.148 HD
BRANCH  20  22
ATOM     22  C   UNL     1      -2.097  -0.670   3.410  0.00  0.00    +0.099 C 
ATOM     23  C   UNL     1      -2.038  -0.763   4.936  0.00  0.00    +0.028 C 
BRANCH  22  24
ATOM     24  C   UNL     1      -3.558  -0.659   2.956  0.00  0.00    +0.175 C 
BRANCH  24  25
ATOM     25  O   UNL     1      -4.255   0.398   3.619  0.00  0.00    -0.393 OA
ATOM     26  H   UNL     1      -5.189   0.465   3.379  0.00  0.00    +0.209 HD
ENDBRANCH  24  25
ENDBRANCH  22  24
ENDBRANCH  20  22
ENDBRANCH  17  20
ENDBRANCH   7  17
TORSDOF 6
