REMARK  Name = ZINC20179257
REMARK  8 active torsions:
REMARK  status: ('A' for Active; 'I' for Inactive)
REMARK    1  A    between atoms: C_1  and  C_2
REMARK    2  A    between atoms: C_2  and  N_3
REMARK    3  A    between atoms: C_7  and  C_9
REMARK    4  A    between atoms: C_9  and  N_10
REMARK    5  A    between atoms: C_11  and  C_13
REMARK    6  A    between atoms: C_16  and  C_19
REMARK    7  A    between atoms: N_23  and  C_31
REMARK    8  A    between atoms: C_31  and  C_32
REMARK                            x       y       z     vdW  Elec       q    Type
REMARK                         _______ _______ _______ _____ _____    ______ ____
ROOT
ATOM      1  C   UNL     1       4.538   1.110  -0.837  0.00  0.00    +0.059 C 
ATOM      2  C   UNL     1       3.570   1.794  -0.186  0.00  0.00    +0.191 C 
ATOM      3  C   UNL     1       3.754   3.209   0.207  0.00  0.00    +0.287 C 
ATOM      4  O   UNL     1       4.863   3.675   0.388  0.00  0.00    -0.266 OA
ATOM      5  N   UNL     1       2.640   3.966   0.357  0.00  0.00    -0.257 N 
ATOM      6  C   UNL     1       1.390   3.380   0.122  0.00  0.00    +0.079 A 
ATOM      7  C   UNL     1       0.262   4.178  -0.005  0.00  0.00    +0.027 A 
ATOM      8  C   UNL     1      -0.970   3.599  -0.240  0.00  0.00    +0.002 A 
ATOM      9  C   UNL     1      -1.083   2.225  -0.356  0.00  0.00    +0.004 A 
ATOM     10  C   UNL     1       0.035   1.422  -0.225  0.00  0.00    +0.048 A 
ATOM     11  C   UNL     1       1.274   1.995   0.012  0.00  0.00    +0.150 A 
ATOM     12  O   UNL     1       2.378   1.208   0.138  0.00  0.00    -0.449 OA
ENDROOT
BRANCH   1  16
ATOM     13  C   UNL     1       4.076  -3.035  -1.571  0.00  0.00    +0.037 A 
ATOM     14  C   UNL     1       5.152  -2.342  -2.134  0.00  0.00    +0.013 A 
ATOM     15  C   UNL     1       5.302  -1.005  -1.898  0.00  0.00    +0.009 A 
ATOM     16  C   UNL     1       4.378  -0.329  -1.092  0.00  0.00    -0.021 A 
ATOM     17  C   UNL     1       3.304  -1.025  -0.525  0.00  0.00    +0.009 A 
ATOM     18  C   UNL     1       3.152  -2.361  -0.767  0.00  0.00    +0.013 A 
BRANCH  13  20
ATOM     19  N   UNL     1       2.877  -5.149  -1.286  0.00  0.00    -0.313 N 
ATOM     20  C   UNL     1       3.914  -4.480  -1.827  0.00  0.00    +0.244 C 
ATOM     21  O   UNL     1       4.717  -5.067  -2.527  0.00  0.00    -0.270 OA
ATOM     22  H   UNL     1       2.151  -4.618  -0.653  0.00  0.00    +0.149 HD
BRANCH  19  23
ATOM     23  C   UNL     1       2.717  -6.583  -1.540  0.00  0.00    +0.089 C 
BRANCH  23  28
ATOM     24  N   UNL     1       1.209  -8.499  -1.214  0.00  0.00    +0.382 N 
ATOM     25  C   UNL     1       1.176  -9.247   0.060  0.00  0.00    -0.078 C 
ATOM     26  C   UNL     1       0.746  -8.203   1.121  0.00  0.00    -0.020 C 
ATOM     27  C   UNL     1       1.477  -6.929   0.621  0.00  0.00    -0.016 C 
ATOM     28  C   UNL     1       1.408  -7.069  -0.914  0.00  0.00    -0.051 C 
ATOM     29  H   UNL     1       0.259  -8.634  -1.751  0.00  0.00    -0.081 HD
BRANCH  24  31
ATOM     30  C   UNL     1       2.068 -10.503  -2.329  0.00  0.00    -0.017 C 
ATOM     31  C   UNL     1       2.271  -9.005  -2.094  0.00  0.00    -0.082 C 
ENDBRANCH  24  31
ENDBRANCH  23  28
ENDBRANCH  19  23
ENDBRANCH  13  20
ENDBRANCH   1  16
BRANCH   5  32
ATOM     32  C   UNL     1       2.741   5.371   0.759  0.00  0.00    +0.152 C 
BRANCH  32  33
ATOM     33  C   UNL     1       2.699   5.467   2.262  0.00  0.00    +0.005 A 
ATOM     34  C   UNL     1       1.525   5.820   2.900  0.00  0.00    +0.008 A 
ATOM     35  C   UNL     1       1.484   5.903   4.279  0.00  0.00    +0.000 A 
ATOM     36  C   UNL     1       2.622   5.645   5.022  0.00  0.00    +0.003 A 
ATOM     37  C   UNL     1       3.799   5.298   4.386  0.00  0.00    +0.038 A 
ATOM     38  C   UNL     1       3.839   5.209   3.005  0.00  0.00    +0.128 A 
ATOM     39  F   UNL     1       4.989   4.870   2.382  0.00  0.00    -0.205 F 
ENDBRANCH  32  33
ENDBRANCH   5  32
TORSDOF 7
