REMARK  Name = ZINC48758972
REMARK  4 active torsions:
REMARK  status: ('A' for Active; 'I' for Inactive)
REMARK    1  A    between atoms: C_3  and  O_12
REMARK    2  A    between atoms: C_6  and  S_7
REMARK    3  A    between atoms: S_7  and  N_10
REMARK    4  A    between atoms: O_12  and  C_13
REMARK                            x       y       z     vdW  Elec       q    Type
REMARK                         _______ _______ _______ _____ _____    ______ ____
ROOT
ATOM      1  C   UNL     1       0.138   1.316  -1.012  0.00  0.00    +0.032 A 
ATOM      2  C   UNL     1       1.273   2.045  -0.711  0.00  0.00    +0.049 A 
ATOM      3  C   UNL     1       2.430   1.391  -0.317  0.00  0.00    +0.147 A 
ATOM      4  C   UNL     1       2.446   0.006  -0.224  0.00  0.00    +0.085 A 
ATOM      5  C   UNL     1       1.308  -0.718  -0.526  0.00  0.00    +0.052 A 
ATOM      6  C   UNL     1       0.155  -0.063  -0.920  0.00  0.00    +0.107 A 
ATOM      7 CL   UNL     1       3.893  -0.817   0.269  0.00  0.00    -0.080 Cl
ENDROOT
BRANCH   6   8
ATOM      8  S   UNL     1      -1.295  -0.988  -1.304  0.00  0.00    +0.056 S 
ATOM      9  O   UNL     1      -1.181  -2.226  -0.614  0.00  0.00    -0.153 OA
ATOM     10  O   UNL     1      -2.397  -0.111  -1.119  0.00  0.00    -0.153 OA
BRANCH   8  11
ATOM     11  N   UNL     1      -1.236  -1.341  -2.921  0.00  0.00    -0.204 NA
ATOM     12  H   UNL     1      -1.649  -2.153  -3.256  0.00  0.00    +0.144 HD
ATOM     13  H   UNL     1      -0.790  -0.736  -3.533  0.00  0.00    +0.144 HD
ENDBRANCH   8  11
ENDBRANCH   6   8
BRANCH   3  14
ATOM     14  O   UNL     1       3.548   2.106  -0.021  0.00  0.00    -0.454 OA
BRANCH  14  15
ATOM     15  C   UNL     1       3.484   3.459  -0.118  0.00  0.00    +0.131 A 
ATOM     16  C   UNL     1       3.107   4.218   0.981  0.00  0.00    +0.066 A 
ATOM     17  C   UNL     1       3.043   5.595   0.880  0.00  0.00    +0.046 A 
ATOM     18  C   UNL     1       3.355   6.218  -0.316  0.00  0.00    +0.040 A 
ATOM     19  C   UNL     1       3.731   5.463  -1.413  0.00  0.00    +0.046 A 
ATOM     20  C   UNL     1       3.803   4.086  -1.315  0.00  0.00    +0.066 A 
ATOM     21 CL   UNL     1       4.121   6.247  -2.912  0.00  0.00    -0.083 Cl
ATOM     22 CL   UNL     1       2.570   6.544   2.254  0.00  0.00    -0.083 Cl
ENDBRANCH  14  15
ENDBRANCH   3  14
TORSDOF 4
