REMARK  Name = ZINC02609917
REMARK  8 active torsions:
REMARK  status: ('A' for Active; 'I' for Inactive)
REMARK    1  A    between atoms: C_1  and  C_2
REMARK    2  A    between atoms: C_4  and  O_11
REMARK    3  A    between atoms: C_7  and  N_8
REMARK    4  A    between atoms: O_11  and  C_12
REMARK    5  A    between atoms: C_12  and  C_13
REMARK    6  A    between atoms: N_15  and  C_16
REMARK    7  A    between atoms: C_17  and  C_27
REMARK    8  A    between atoms: C_22  and  C_26
REMARK                            x       y       z     vdW  Elec       q    Type
REMARK                         _______ _______ _______ _____ _____    ______ ____
ROOT
ATOM      1  C   UNL     1      -0.051  -4.724  -3.731  0.00  0.00    +0.255 C 
ATOM      2  O   UNL     1      -0.382  -4.007  -4.651  0.00  0.00    -0.272 OA
ATOM      3  N   UNL     1       0.173  -6.036  -3.946  0.00  0.00    -0.277 N 
ATOM      4  H   UNL     1       0.438  -6.609  -3.210  0.00  0.00    +0.155 HD
ENDROOT
BRANCH   3   5
ATOM      5  C   UNL     1       0.024  -6.565  -5.219  0.00  0.00    +0.084 A 
ATOM      6  C   UNL     1       0.204  -7.879  -5.622  0.00  0.00    +0.068 A 
ATOM      7  C   UNL     1      -0.016  -8.179  -7.026  0.00  0.00    -0.023 A 
ATOM      8  C   UNL     1      -0.376  -7.111  -7.769  0.00  0.00    -0.004 A 
ATOM      9  S   UNL     1      -0.423  -5.763  -6.625  0.00  0.00    -0.077 S 
ATOM     10  C   UNL     1      -0.670  -7.095  -9.238  0.00  0.00    +0.046 C 
ATOM     11  C   UNL     1      -0.137  -8.398  -9.851  0.00  0.00    -0.009 C 
ATOM     12  C   UNL     1      -0.600  -9.576  -8.989  0.00  0.00    +0.008 C 
ATOM     13  C   UNL     1       0.133  -9.560  -7.646  0.00  0.00    +0.037 C 
ATOM     14  C   UNL     1      -0.678  -8.555 -11.273  0.00  0.00    +0.008 C 
BRANCH   6  15
ATOM     15  C   UNL     1       0.601  -8.922  -4.671  0.00  0.00    +0.244 C 
ATOM     16  O   UNL     1      -0.248  -9.557  -4.074  0.00  0.00    -0.270 OA
ATOM     17  N   UNL     1       1.907  -9.178  -4.458  0.00  0.00    -0.325 N 
ATOM     18  H   UNL     1       2.585  -8.672  -4.934  0.00  0.00    +0.145 HD
ATOM     19  H   UNL     1       2.170  -9.868  -3.829  0.00  0.00    +0.145 HD
ENDBRANCH   6  15
ENDBRANCH   3   5
BRANCH   1  20
ATOM     20  C   UNL     1       0.111  -4.149  -2.348  0.00  0.00    +0.324 C 
BRANCH  20  21
ATOM     21  O   UNL     1      -0.179  -2.750  -2.376  0.00  0.00    -0.483 OA
BRANCH  21  25
ATOM     22  C   UNL     1      -0.537   1.447   0.089  0.00  0.00    +0.046 C 
ATOM     23  C   UNL     1      -0.246  -0.031   0.040  0.00  0.00    -0.017 A 
ATOM     24  C   UNL     1      -0.348  -0.715  -1.157  0.00  0.00    +0.051 A 
ATOM     25  C   UNL     1      -0.080  -2.075  -1.201  0.00  0.00    +0.122 A 
ATOM     26  C   UNL     1       0.289  -2.745  -0.044  0.00  0.00    +0.048 A 
ATOM     27  C   UNL     1       0.389  -2.057   1.149  0.00  0.00    +0.036 A 
ATOM     28  C   UNL     1       0.127  -0.700   1.190  0.00  0.00    +0.129 A 
BRANCH  28  29
ATOM     29  N   UNL     1       0.241   0.037   2.469  0.00  0.00    +0.057 N 
ATOM     30  O   UNL     1       0.676   1.165   2.480  0.00  0.00    -0.126 OA
ATOM     31  O   UNL     1      -0.100  -0.490   3.502  0.00  0.00    -0.126 OA
ENDBRANCH  28  29
ENDBRANCH  21  25
ENDBRANCH  20  21
ENDBRANCH   1  20
TORSDOF 6
