REMARK  Name = ZINC02071707
REMARK  6 active torsions:
REMARK  status: ('A' for Active; 'I' for Inactive)
REMARK    1  A    between atoms: C_8  and  C_10
REMARK    2  A    between atoms: C_12  and  N_17
REMARK    3  A    between atoms: C_15  and  O_16
REMARK    4  A    between atoms: C_18  and  C_19
REMARK    5  A    between atoms: C_23  and  N_30
REMARK    6  A    between atoms: C_28  and  O_29
REMARK                            x       y       z     vdW  Elec       q    Type
REMARK                         _______ _______ _______ _____ _____    ______ ____
ROOT
ATOM      1  C   UNL     1       2.983  -4.021  -0.049  0.00  0.00    +0.051 A 
ATOM      2  C   UNL     1       4.325  -4.397  -0.058  0.00  0.00    +0.042 A 
ATOM      3  C   UNL     1       4.664  -5.749  -0.068  0.00  0.00    +0.065 A 
ATOM      4  C   UNL     1       3.659  -6.722  -0.069  0.00  0.00    +0.031 A 
ATOM      5  C   UNL     1       2.332  -6.347  -0.060  0.00  0.00    +0.048 A 
ATOM      6  C   UNL     1       1.985  -5.004  -0.043  0.00  0.00    +0.127 A 
ENDROOT
BRANCH   1  14
ATOM      7  C   UNL     1      -0.016   1.355   0.009  0.00  0.00    +0.002 A 
ATOM      8  C   UNL     1       1.155   2.100   0.002  0.00  0.00    +0.001 A 
ATOM      9  C   UNL     1       2.373   1.447  -0.013  0.00  0.00    +0.017 A 
ATOM     10  C   UNL     1       2.403   0.074  -0.021  0.00  0.00    +0.040 A 
ATOM     11  C   UNL     1       1.227  -0.713  -0.013  0.00  0.00    +0.079 A 
ATOM     12  C   UNL     1       0.002  -0.004   0.002  0.00  0.00    +0.029 A 
ATOM     13  N   UNL     1       1.417  -2.047  -0.023  0.00  0.00    -0.239 NA
ATOM     14  C   UNL     1       2.615  -2.590  -0.038  0.00  0.00    +0.113 A 
ATOM     15  S   UNL     1       3.683  -1.157  -0.040  0.00  0.00    -0.067 S 
ENDBRANCH   1  14
BRANCH   6  16
ATOM     16  O   UNL     1       0.676  -4.642  -0.028  0.00  0.00    -0.506 OA
ATOM     17  H   UNL     1       0.288  -4.533  -0.907  0.00  0.00    +0.292 HD
ENDBRANCH   6  16
BRANCH   3  18
ATOM     18  N   UNL     1       5.979  -6.125  -0.078  0.00  0.00    -0.255 NA
ATOM     19  C   UNL     1       6.393  -7.078   0.713  0.00  0.00    +0.123 C 
BRANCH  19  20
ATOM     20  C   UNL     1       7.801  -7.480   0.703  0.00  0.00    +0.042 A 
ATOM     21  C   UNL     1       8.280  -8.550   1.579  0.00  0.00    -0.006 A 
ATOM     22  C   UNL     1       7.416  -9.222   2.450  0.00  0.00    +0.011 A 
ATOM     23  C   UNL     1       7.902 -10.214   3.250  0.00  0.00    +0.033 A 
ATOM     24  C   UNL     1       9.248 -10.568   3.211  0.00  0.00    +0.127 A 
ATOM     25  C   UNL     1      10.116  -9.934   2.375  0.00  0.00    +0.041 A 
ATOM     26  C   UNL     1       9.650  -8.907   1.537  0.00  0.00    -0.015 A 
ATOM     27  C   UNL     1      10.517  -8.231   0.659  0.00  0.00    +0.012 A 
ATOM     28  C   UNL     1      10.057  -7.240  -0.148  0.00  0.00    +0.046 A 
ATOM     29  C   UNL     1       8.716  -6.854  -0.148  0.00  0.00    +0.126 A 
BRANCH  24  30
ATOM     30  N   UNL     1       9.743 -11.649   4.093  0.00  0.00    +0.056 N 
ATOM     31  O   UNL     1       8.981 -12.217   4.839  0.00  0.00    -0.126 OA
ATOM     32  O   UNL     1      10.910 -11.963   4.067  0.00  0.00    -0.126 OA
ENDBRANCH  24  30
BRANCH  29  33
ATOM     33  O   UNL     1       8.300  -5.864  -0.975  0.00  0.00    -0.506 OA
ATOM     34  H   UNL     1       8.354  -4.979  -0.588  0.00  0.00    +0.292 HD
ENDBRANCH  29  33
ENDBRANCH  19  20
ENDBRANCH   3  18
TORSDOF 6
