REMARK  Name = ZINC14608153
REMARK  3 active torsions:
REMARK  status: ('A' for Active; 'I' for Inactive)
REMARK    1  A    between atoms: C_1  and  C_2
REMARK    2  A    between atoms: C_7  and  C_19
REMARK    3  A    between atoms: C_13  and  C_18
REMARK                            x       y       z     vdW  Elec       q    Type
REMARK                         _______ _______ _______ _____ _____    ______ ____
ROOT
ATOM      1  C   UNL     1      -1.254  -3.371  -0.357  0.00  0.00    +0.090 C 
ATOM      2  C   UNL     1      -0.464  -2.106  -0.142  0.00  0.00    +0.150 A 
ATOM      3  N   UNL     1      -0.947  -0.864  -0.245  0.00  0.00    -0.198 NA
ATOM      4  C   UNL     1       0.002  -0.004   0.002  0.00  0.00    +0.219 A 
ATOM      5  N   UNL     1       1.134  -0.698   0.280  0.00  0.00    -0.221 N 
ATOM      6  N   UNL     1       0.806  -2.049   0.176  0.00  0.00    -0.153 NA
ATOM      7  C   UNL     1       2.402  -0.063   0.615  0.00  0.00    +0.178 C 
ATOM      8  C   UNL     1       2.349   1.411   0.278  0.00  0.00    +0.041 C 
ATOM      9  C   UNL     1       1.188   2.043   0.002  0.00  0.00    +0.020 C 
ATOM     10  N   UNL     1      -0.017   1.381   0.010  0.00  0.00    -0.287 N 
ATOM     11  C   UNL     1       1.167   3.515  -0.338  0.00  0.00    +0.055 C 
ATOM     12  C   UNL     1       2.308   4.227   0.390  0.00  0.00    -0.001 C 
ATOM     13  C   UNL     1       3.631   3.580  -0.036  0.00  0.00    +0.083 C 
ATOM     14  C   UNL     1       3.571   2.108   0.263  0.00  0.00    +0.163 C 
ATOM     15  O   UNL     1       4.601   1.506   0.498  0.00  0.00    -0.292 OA
ATOM     16  C   UNL     1       2.315   5.710   0.012  0.00  0.00    +0.008 C 
ATOM     17  H   UNL     1      -0.855   1.869   0.016  0.00  0.00    +0.155 HD
ENDROOT
BRANCH   7  18
ATOM     18  C   UNL     1       2.669  -0.229   2.089  0.00  0.00    +0.017 A 
ATOM     19  C   UNL     1       1.784   0.291   3.015  0.00  0.00    +0.009 A 
ATOM     20  C   UNL     1       2.026   0.134   4.367  0.00  0.00    +0.001 A 
ATOM     21  C   UNL     1       3.160  -0.533   4.795  0.00  0.00    +0.003 A 
ATOM     22  C   UNL     1       4.049  -1.048   3.871  0.00  0.00    +0.039 A 
ATOM     23  C   UNL     1       3.804  -0.896   2.516  0.00  0.00    +0.129 A 
ATOM     24  F   UNL     1       4.673  -1.400   1.612  0.00  0.00    -0.205 F 
ENDBRANCH   7  18
TORSDOF 1
