REMARK  Name = ZINC06443265
REMARK  7 active torsions:
REMARK  status: ('A' for Active; 'I' for Inactive)
REMARK    1  A    between atoms: C_1  and  C_2
REMARK    2  A    between atoms: C_2  and  C_4
REMARK    3  A    between atoms: C_2  and  O_23
REMARK    4  A    between atoms: C_14  and  O_21
REMARK    5  A    between atoms: C_15  and  O_19
REMARK    6  A    between atoms: O_19  and  C_20
REMARK    7  A    between atoms: O_21  and  C_22
REMARK                            x       y       z     vdW  Elec       q    Type
REMARK                         _______ _______ _______ _____ _____    ______ ____
ROOT
ATOM      1  C   UNL     1       2.441   2.783  -5.854  0.00  0.00    +0.135 A 
ATOM      2  C   UNL     1       1.444   2.250  -5.114  0.00  0.00    +0.060 A 
ATOM      3  C   UNL     1       1.802   2.424  -3.759  0.00  0.00    +0.072 A 
ATOM      4  C   UNL     1       3.028   3.069  -3.756  0.00  0.00    +0.186 A 
ATOM      5  O   UNL     1       3.384   3.271  -5.038  0.00  0.00    -0.453 OA
ATOM      6  C   UNL     1       3.684   3.401  -2.484  0.00  0.00    +0.229 C 
ATOM      7  O   UNL     1       4.761   3.968  -2.486  0.00  0.00    -0.283 OA
ATOM      8  C   UNL     1       3.038   3.047  -1.205  0.00  0.00    +0.040 A 
ATOM      9  C   UNL     1       3.653   3.357   0.004  0.00  0.00    +0.016 A 
ATOM     10  C   UNL     1       3.043   3.023   1.200  0.00  0.00    +0.050 A 
ATOM     11  C   UNL     1       1.815   2.384   1.209  0.00  0.00    +0.162 A 
ATOM     12  C   UNL     1       1.182   2.057   0.002  0.00  0.00    +0.173 A 
ATOM     13  C   UNL     1       1.791   2.390  -1.207  0.00  0.00    +0.078 A 
ATOM     14  C   UNL     1       1.140   2.061  -2.490  0.00  0.00    +0.201 C 
ATOM     15  O   UNL     1       0.065   1.494  -2.501  0.00  0.00    -0.286 OA
ENDROOT
BRANCH   1  17
ATOM     16  C   UNL     1       2.058   4.210  -7.846  0.00  0.00    +0.046 C 
ATOM     17  C   UNL     1       2.484   2.823  -7.360  0.00  0.00    +0.177 C 
BRANCH  17  18
ATOM     18  O   UNL     1       3.814   2.550  -7.805  0.00  0.00    -0.384 OA
ATOM     19  H   UNL     1       3.917   2.559  -8.767  0.00  0.00    +0.210 HD
ENDBRANCH  17  18
ENDBRANCH   1  17
BRANCH  12  20
ATOM     20  O   UNL     1      -0.017   1.425   0.010  0.00  0.00    -0.491 OA
ATOM     21  C   UNL     1       0.002  -0.004   0.002  0.00  0.00    +0.277 C 
ENDBRANCH  12  20
BRANCH  11  22
ATOM     22  O   UNL     1       1.225   2.067   2.389  0.00  0.00    -0.491 OA
ATOM     23  C   UNL     1       1.924   2.429   3.582  0.00  0.00    +0.277 C 
ENDBRANCH  11  22
TORSDOF 4
