REMARK  Name = ZINC05514866
REMARK  6 active torsions:
REMARK  status: ('A' for Active; 'I' for Inactive)
REMARK    1  A    between atoms: C_1  and  O_2
REMARK    2  A    between atoms: O_2  and  C_3
REMARK    3  A    between atoms: C_7  and  C_10
REMARK    4  A    between atoms: C_8  and  O_9
REMARK    5  A    between atoms: N_11  and  N_12
REMARK    6  A    between atoms: N_12  and  C_13
REMARK                            x       y       z     vdW  Elec       q    Type
REMARK                         _______ _______ _______ _____ _____    ______ ____
ROOT
ATOM      1  N   UNL     1       0.865  -6.204  -1.459  0.00  0.00    -0.232 N 
ATOM      2  H   UNL     1       1.297  -6.628  -2.218  0.00  0.00    +0.175 HD
ENDROOT
BRANCH   1   3
ATOM      3  C   UNL     1       0.297  -6.989  -0.450  0.00  0.00    +0.124 A 
ATOM      4  C   UNL     1      -0.045  -6.415   0.769  0.00  0.00    +0.187 A 
ATOM      5  C   UNL     1      -0.608  -7.193   1.766  0.00  0.00    +0.198 A 
ATOM      6  C   UNL     1      -0.829  -8.544   1.550  0.00  0.00    +0.199 A 
ATOM      7  C   UNL     1      -0.489  -9.119   0.336  0.00  0.00    +0.198 A 
ATOM      8  C   UNL     1       0.069  -8.343  -0.667  0.00  0.00    +0.187 A 
ATOM      9  F   UNL     1       0.396  -8.903  -1.852  0.00  0.00    -0.200 F 
ATOM     10  F   UNL     1      -0.706 -10.436   0.128  0.00  0.00    -0.199 F 
ATOM     11  F   UNL     1      -1.378  -9.302   2.525  0.00  0.00    -0.199 F 
ATOM     12  F   UNL     1      -0.940  -6.636   2.951  0.00  0.00    -0.199 F 
ATOM     13  F   UNL     1       0.171  -5.098   0.981  0.00  0.00    -0.200 F 
ENDBRANCH   1   3
BRANCH   1  15
ATOM     14  C   UNL     1       1.337  -4.078  -2.312  0.00  0.00    +0.142 C 
ATOM     15  N   UNL     1       0.810  -4.807  -1.375  0.00  0.00    -0.190 NA
BRANCH  14  20
ATOM     16  C   UNL     1       0.606  -0.608  -1.056  0.00  0.00    +0.162 A 
ATOM     17  C   UNL     1       1.173   0.161  -2.062  0.00  0.00    +0.049 A 
ATOM     18  C   UNL     1       1.789  -0.446  -3.142  0.00  0.00    +0.004 A 
ATOM     19  C   UNL     1       1.846  -1.821  -3.229  0.00  0.00    +0.013 A 
ATOM     20  C   UNL     1       1.279  -2.608  -2.223  0.00  0.00    +0.040 A 
ATOM     21  C   UNL     1       0.661  -1.994  -1.127  0.00  0.00    +0.167 A 
BRANCH  16  23
ATOM     22  C   UNL     1      -0.017   1.425   0.010  0.00  0.00    +0.277 C 
ATOM     23  O   UNL     1       0.002  -0.004   0.002  0.00  0.00    -0.491 OA
ENDBRANCH  16  23
BRANCH  21  24
ATOM     24  O   UNL     1       0.111  -2.750  -0.140  0.00  0.00    -0.503 OA
ATOM     25  H   UNL     1      -0.817  -2.977  -0.289  0.00  0.00    +0.292 HD
ENDBRANCH  21  24
ENDBRANCH  14  20
ENDBRANCH   1  15
TORSDOF 5
