REMARK  Name = ZINC41140787
REMARK  7 active torsions:
REMARK  status: ('A' for Active; 'I' for Inactive)
REMARK    1  A    between atoms: C_1  and  C_2
REMARK    2  A    between atoms: C_6  and  N_9
REMARK    3  A    between atoms: C_7  and  C_8
REMARK    4  A    between atoms: C_10  and  C_18
REMARK    5  A    between atoms: C_13  and  C_15
REMARK    6  A    between atoms: C_15  and  C_16
REMARK    7  A    between atoms: C_16  and  N_17
REMARK                            x       y       z     vdW  Elec       q    Type
REMARK                         _______ _______ _______ _____ _____    ______ ____
ROOT
ATOM      1  N   UNL     1       0.050  -2.797   2.389  0.00  0.00    -0.217 N 
ATOM      2  C   UNL     1      -0.912  -3.840   2.784  0.00  0.00    +0.134 C 
ATOM      3  C   UNL     1      -0.420  -4.264   4.182  0.00  0.00    +0.081 C 
ATOM      4  C   UNL     1       0.791  -3.389   4.419  0.00  0.00    +0.037 C 
ATOM      5  N   UNL     1       0.980  -2.637   3.414  0.00  0.00    -0.188 NA
ENDROOT
BRANCH   1  11
ATOM      6  C   UNL     1      -0.018   1.503   0.010  0.00  0.00    +0.044 C 
ATOM      7  C   UNL     1       0.002  -0.004   0.002  0.00  0.00    -0.046 A 
ATOM      8  C   UNL     1       0.006  -0.688  -1.200  0.00  0.00    +0.004 A 
ATOM      9  C   UNL     1       0.024  -2.071  -1.213  0.00  0.00    +0.002 A 
ATOM     10  C   UNL     1       0.039  -2.774  -0.024  0.00  0.00    +0.025 A 
ATOM     11  C   UNL     1       0.035  -2.090   1.186  0.00  0.00    +0.055 A 
ATOM     12  C   UNL     1       0.023  -0.700   1.194  0.00  0.00    -0.025 A 
ATOM     13  C   UNL     1       0.026   0.046   2.503  0.00  0.00    +0.046 C 
ENDBRANCH   1  11
BRANCH   2  14
ATOM     14  C   UNL     1      -2.308  -3.276   2.855  0.00  0.00    -0.025 A 
ATOM     15  C   UNL     1      -2.514  -2.002   3.350  0.00  0.00    +0.005 A 
ATOM     16  C   UNL     1      -3.794  -1.484   3.415  0.00  0.00    +0.000 A 
ATOM     17  C   UNL     1      -4.868  -2.242   2.986  0.00  0.00    +0.000 A 
ATOM     18  C   UNL     1      -4.662  -3.516   2.491  0.00  0.00    +0.000 A 
ATOM     19  C   UNL     1      -3.381  -4.031   2.422  0.00  0.00    +0.005 A 
ENDBRANCH   2  14
BRANCH   4  20
ATOM     20  C   UNL     1       1.648  -3.413   5.659  0.00  0.00    +0.033 C 
BRANCH  20  21
ATOM     21  C   UNL     1       2.773  -2.385   5.520  0.00  0.00    -0.081 C 
BRANCH  21  22
ATOM     22  N   UNL     1       3.608  -2.408   6.728  0.00  0.00    +0.378 N 
ATOM     23  H   UNL     1       3.043  -2.180   7.532  0.00  0.00    -0.090 HD
ATOM     24  H   UNL     1       4.005  -3.328   6.846  0.00  0.00    -0.090 HD
ATOM     25  H   UNL     1       4.350  -1.730   6.637  0.00  0.00    -0.090 HD
ENDBRANCH  21  22
ENDBRANCH  20  21
ENDBRANCH   4  20
TORSDOF 5
