REMARK  Name = ZINC08934952
REMARK  11 active torsions:
REMARK  status: ('A' for Active; 'I' for Inactive)
REMARK    1  A    between atoms: C_1  and  C_2
REMARK    2  A    between atoms: C_2  and  O_4
REMARK    3  A    between atoms: O_4  and  C_5
REMARK    4  A    between atoms: C_6  and  O_32
REMARK    5  A    between atoms: C_8  and  C_13
REMARK    6  A    between atoms: C_10  and  O_11
REMARK    7  A    between atoms: O_11  and  C_12
REMARK    8  A    between atoms: C_16  and  C_27
REMARK    9  A    between atoms: C_22  and  N_26
REMARK   10  A    between atoms: C_23  and  C_24
REMARK   11  A    between atoms: O_32  and  C_33
REMARK                            x       y       z     vdW  Elec       q    Type
REMARK                         _______ _______ _______ _____ _____    ______ ____
ROOT
ATOM      1  C   UNL     1      -0.878  -6.325  -0.024  0.00  0.00    +0.102 C 
ATOM      2  C   UNL     1      -2.069  -6.896   0.701  0.00  0.00    +0.055 A 
ATOM      3  C   UNL     1      -3.409  -6.949   0.299  0.00  0.00    +0.107 A 
ATOM      4  N   UNL     1      -4.097  -7.540   1.259  0.00  0.00    -0.170 NA
ATOM      5  N   UNL     1      -3.212  -7.876   2.294  0.00  0.00    -0.246 N 
ATOM      6  H   UNL     1      -3.448  -8.319   3.124  0.00  0.00    +0.192 HD
ATOM      7  C   UNL     1      -1.975  -7.474   1.933  0.00  0.00    +0.223 A 
ATOM      8  O   UNL     1      -0.801  -7.584   2.603  0.00  0.00    -0.423 OA
ATOM      9  C   UNL     1       0.335  -7.354   1.914  0.00  0.00    +0.200 C 
ATOM     10  C   UNL     1       0.371  -6.778   0.691  0.00  0.00    +0.098 C 
ENDROOT
BRANCH   1  14
ATOM     11  C   UNL     1      -1.085  -2.050   0.001  0.00  0.00    +0.214 A 
ATOM     12  C   UNL     1      -1.057  -2.739  -1.205  0.00  0.00    +0.166 A 
ATOM     13  C   UNL     1      -0.990  -4.125  -1.209  0.00  0.00    +0.054 A 
ATOM     14  C   UNL     1      -0.951  -4.819  -0.015  0.00  0.00    -0.027 A 
ATOM     15  C   UNL     1      -0.979  -4.138   1.187  0.00  0.00    +0.054 A 
ATOM     16  C   UNL     1      -1.040  -2.753   1.200  0.00  0.00    +0.166 A 
BRANCH  16  17
ATOM     17  O   UNL     1      -1.061  -2.083   2.383  0.00  0.00    -0.491 OA
ATOM     18  C   UNL     1      -1.012  -2.869   3.575  0.00  0.00    +0.277 C 
ENDBRANCH  16  17
BRANCH  12  19
ATOM     19  O   UNL     1      -1.096  -2.057  -2.381  0.00  0.00    -0.491 OA
ATOM     20  C   UNL     1      -1.064  -2.830  -3.582  0.00  0.00    +0.277 C 
ENDBRANCH  12  19
BRANCH  11  21
ATOM     21  O   UNL     1      -1.151  -0.691   0.009  0.00  0.00    -0.419 OA
BRANCH  21  23
ATOM     22  C   UNL     1      -0.018   1.503   0.010  0.00  0.00    +0.136 C 
ATOM     23  C   UNL     1       0.002  -0.004   0.002  0.00  0.00    +0.309 C 
ATOM     24  O   UNL     1       1.060  -0.596  -0.011  0.00  0.00    -0.251 OA
ENDBRANCH  21  23
ENDBRANCH  11  21
ENDBRANCH   1  14
BRANCH   3  25
ATOM     25  C   UNL     1      -3.956  -6.435  -0.976  0.00  0.00    +0.040 A 
ATOM     26  C   UNL     1      -4.975  -6.935  -1.741  0.00  0.00    +0.018 A 
ATOM     27  C   UNL     1      -5.314  -6.278  -2.904  0.00  0.00    +0.008 A 
ATOM     28  C   UNL     1      -4.630  -5.160  -3.256  0.00  0.00    +0.046 A 
ATOM     29  S   UNL     1      -3.464  -4.997  -1.913  0.00  0.00    -0.095 S 
ENDBRANCH   3  25
BRANCH   9  30
ATOM     30  N   UNL     1       1.526  -7.728   2.486  0.00  0.00    -0.328 N 
ATOM     31  H   UNL     1       1.533  -8.145   3.362  0.00  0.00    +0.145 HD
ATOM     32  H   UNL     1       2.360  -7.576   2.015  0.00  0.00    +0.145 HD
ENDBRANCH   9  30
BRANCH  10  33
ATOM     33  C   UNL     1       1.638  -6.590   0.052  0.00  0.00    +0.101 C 
ATOM     34  N   UNL     1       2.644  -6.441  -0.456  0.00  0.00    -0.191 NA
ENDBRANCH  10  33
TORSDOF 8
