REMARK  Name = ZINC19818769
REMARK  5 active torsions:
REMARK  status: ('A' for Active; 'I' for Inactive)
REMARK    1  A    between atoms: C_1  and  C_2
REMARK    2  A    between atoms: C_2  and  C_3
REMARK    3  A    between atoms: C_3  and  N_4
REMARK    4  A    between atoms: C_14  and  C_16
REMARK    5  A    between atoms: C_14  and  C_17
REMARK                            x       y       z     vdW  Elec       q    Type
REMARK                         _______ _______ _______ _____ _____    ______ ____
ROOT
ATOM      1  N   UNL     1      -2.454   3.682   0.048  0.00  0.00    -0.278 N 
ATOM      2  C   UNL     1      -1.237   3.031   0.030  0.00  0.00    +0.150 A 
ATOM      3  C   UNL     1      -0.060   3.809   0.022  0.00  0.00    +0.086 A 
ATOM      4  C   UNL     1       1.179   3.180   0.004  0.00  0.00    -0.019 A 
ATOM      5  C   UNL     1       1.196   1.781   0.000  0.00  0.00    +0.040 A 
ATOM      6  C   UNL     1      -0.013   1.076   0.008  0.00  0.00    +0.124 A 
ATOM      7  N   UNL     1      -1.167   1.708   0.017  0.00  0.00    -0.236 NA
ATOM      8  C   UNL     1       2.480   1.061  -0.007  0.00  0.00    +0.165 C 
ATOM      9  O   UNL     1       2.532  -0.133   0.201  0.00  0.00    -0.292 OA
ATOM     10  C   UNL     1       3.734   1.865  -0.285  0.00  0.00    +0.086 C 
ATOM     11  C   UNL     1       3.627   3.175   0.506  0.00  0.00    -0.024 C 
ATOM     12  C   UNL     1       2.444   3.988  -0.015  0.00  0.00    +0.043 C 
ATOM     13  C   UNL     1       4.915   3.982   0.334  0.00  0.00    +0.011 C 
ATOM     14  C   UNL     1       3.416   2.860   1.988  0.00  0.00    +0.011 C 
ATOM     15  C   UNL     1      -0.187   5.277   0.032  0.00  0.00    +0.264 A 
ATOM     16  O   UNL     1       0.798   5.989   0.026  0.00  0.00    -0.267 OA
ATOM     17  N   UNL     1      -1.430   5.808   0.050  0.00  0.00    -0.274 N 
ATOM     18  H   UNL     1      -1.560   6.901   0.058  0.00  0.00    +0.173 HD
ATOM     19  C   UNL     1      -2.518   5.023   0.057  0.00  0.00    +0.331 A 
ATOM     20  O   UNL     1      -3.613   5.551   0.073  0.00  0.00    -0.246 OA
ENDROOT
BRANCH   1  21
ATOM     21  C   UNL     1      -3.692   2.899   0.057  0.00  0.00    +0.128 C 
BRANCH  21  23
ATOM     22  C   UNL     1      -5.400   1.800   1.511  0.00  0.00    +0.005 C 
ATOM     23  C   UNL     1      -4.107   2.618   1.502  0.00  0.00    +0.018 C 
ENDBRANCH  21  23
ENDBRANCH   1  21
TORSDOF 2
