REMARK  Name = ZINC62525819
REMARK  4 active torsions:
REMARK  status: ('A' for Active; 'I' for Inactive)
REMARK    1  A    between atoms: C_1  and  N_2
REMARK    2  A    between atoms: N_2  and  S_3
REMARK    3  A    between atoms: S_3  and  N_6
REMARK    4  A    between atoms: C_12  and  N_15
REMARK                            x       y       z     vdW  Elec       q    Type
REMARK                         _______ _______ _______ _____ _____    ______ ____
ROOT
ATOM      1  N   UNL     1       2.335  -0.460  -1.205  0.00  0.00    -0.193 N 
ATOM      2  C   UNL     1       2.966   0.669  -1.894  0.00  0.00    +0.137 C 
ATOM      3  C   UNL     1       4.460   0.570  -1.545  0.00  0.00    +0.058 C 
ATOM      4  C   UNL     1       4.562  -0.648  -0.654  0.00  0.00    -0.023 A 
ATOM      5  C   UNL     1       3.294  -1.187  -0.498  0.00  0.00    +0.057 A 
ATOM      6  C   UNL     1       3.133  -2.325   0.294  0.00  0.00    +0.048 A 
ATOM      7  C   UNL     1       4.227  -2.901   0.917  0.00  0.00    +0.032 A 
ATOM      8  C   UNL     1       5.492  -2.348   0.756  0.00  0.00    +0.023 A 
ATOM      9  C   UNL     1       5.654  -1.228  -0.035  0.00  0.00    +0.007 A 
ENDROOT
BRANCH   7  10
ATOM     10  N   UNL     1       4.059  -4.040   1.709  0.00  0.00    -0.330 N 
ATOM     11  C   UNL     1       2.785  -4.729   1.959  0.00  0.00    +0.105 C 
ATOM     12  C   UNL     1       3.082  -5.911   2.906  0.00  0.00    +0.020 C 
ATOM     13  C   UNL     1       4.409  -5.486   3.587  0.00  0.00    +0.020 C 
ATOM     14  C   UNL     1       5.132  -4.753   2.426  0.00  0.00    +0.105 C 
ENDBRANCH   7  10
BRANCH   1  15
ATOM     15  S   UNL     1       0.718  -0.816  -1.251  0.00  0.00    +0.111 S 
ATOM     16  O   UNL     1       0.599  -2.201  -0.959  0.00  0.00    -0.138 OA
ATOM     17  O   UNL     1       0.211  -0.243  -2.449  0.00  0.00    -0.138 OA
BRANCH  15  19
ATOM     18  C   UNL     1      -0.018   1.461   0.010  0.00  0.00    +0.129 C 
ATOM     19  N   UNL     1       0.002  -0.004   0.002  0.00  0.00    -0.180 NA
ATOM     20  H   UNL     1      -0.404  -0.499   0.731  0.00  0.00    +0.149 HD
ENDBRANCH  15  19
ENDBRANCH   1  15
TORSDOF 3
