REMARK  Name = ZINC32125238
REMARK  5 active torsions:
REMARK  status: ('A' for Active; 'I' for Inactive)
REMARK    1  A    between atoms: C_3  and  C_6
REMARK    2  A    between atoms: N_8  and  C_9
REMARK    3  A    between atoms: C_9  and  N_11
REMARK    4  A    between atoms: N_11  and  C_12
REMARK    5  A    between atoms: C_13  and  C_22
REMARK                            x       y       z     vdW  Elec       q    Type
REMARK                         _______ _______ _______ _____ _____    ______ ____
ROOT
ATOM      1  C   UNL     1       8.300   0.592  -0.075  0.00  0.00    +0.084 A 
ATOM      2  C   UNL     1       9.427  -0.212  -0.096  0.00  0.00    +0.068 A 
ATOM      3  C   UNL     1      10.724   0.452  -0.103  0.00  0.00    -0.023 A 
ATOM      4  C   UNL     1      10.649   1.799  -0.083  0.00  0.00    -0.004 A 
ATOM      5  S   UNL     1       8.914   2.155  -0.074  0.00  0.00    -0.077 S 
ATOM      6  C   UNL     1      11.781   2.778  -0.065  0.00  0.00    +0.043 C 
ATOM      7  C   UNL     1      12.790   2.401  -1.158  0.00  0.00    +0.005 C 
ATOM      8  C   UNL     1      13.808   1.430  -0.568  0.00  0.00    +0.001 C 
ATOM      9  C   UNL     1      13.144   0.546   0.486  0.00  0.00    +0.005 C 
ATOM     10  C   UNL     1      12.045  -0.302  -0.145  0.00  0.00    +0.037 C 
ENDROOT
BRANCH   2  11
ATOM     11  C   UNL     1       9.320  -1.674  -0.109  0.00  0.00    +0.244 C 
ATOM     12  O   UNL     1       9.264  -2.270  -1.169  0.00  0.00    -0.270 OA
ATOM     13  N   UNL     1       9.283  -2.357   1.052  0.00  0.00    -0.325 N 
ATOM     14  H   UNL     1       9.328  -1.882   1.896  0.00  0.00    +0.145 HD
ATOM     15  H   UNL     1       9.212  -3.325   1.043  0.00  0.00    +0.145 HD
ENDBRANCH   2  11
BRANCH   1  16
ATOM     16  N   UNL     1       6.972   0.198  -0.064  0.00  0.00    -0.291 N 
ATOM     17  H   UNL     1       6.746  -0.745  -0.067  0.00  0.00    +0.154 HD
BRANCH  16  18
ATOM     18  C   UNL     1       5.994   1.125  -0.050  0.00  0.00    +0.141 C 
ATOM     19  S   UNL     1       6.393   2.790  -0.045  0.00  0.00    -0.018 S 
BRANCH  18  22
ATOM     20  C   UNL     1       3.724   1.669  -0.025  0.00  0.00    +0.256 C 
ATOM     21  O   UNL     1       4.007   2.853  -0.022  0.00  0.00    -0.269 OA
ATOM     22  N   UNL     1       4.702   0.742  -0.039  0.00  0.00    -0.263 N 
ATOM     23  H   UNL     1       4.476  -0.201  -0.042  0.00  0.00    +0.157 HD
BRANCH  20  26
ATOM     24  C   UNL     1      -0.016   1.352   0.009  0.00  0.00    +0.008 A 
ATOM     25  C   UNL     1       1.175   2.036   0.002  0.00  0.00    +0.021 A 
ATOM     26  C   UNL     1       2.320   1.252  -0.013  0.00  0.00    +0.074 A 
ATOM     27  S   UNL     1       1.636  -0.394  -0.016  0.00  0.00    -0.092 S 
ATOM     28  C   UNL     1       0.002  -0.004   0.002  0.00  0.00    +0.046 A 
ENDBRANCH  20  26
ENDBRANCH  18  22
ENDBRANCH  16  18
ENDBRANCH   1  16
TORSDOF 5
