REMARK  Name = ZINC18177654
REMARK  8 active torsions:
REMARK  status: ('A' for Active; 'I' for Inactive)
REMARK    1  A    between atoms: C_1  and  C_2
REMARK    2  A    between atoms: C_2  and  C_38
REMARK    3  A    between atoms: C_6  and  N_30
REMARK    4  A    between atoms: C_10  and  N_29
REMARK    5  A    between atoms: C_11  and  C_13
REMARK    6  A    between atoms: N_15  and  C_16
REMARK    7  A    between atoms: C_16  and  C_17
REMARK    8  A    between atoms: C_16  and  C_23
REMARK                            x       y       z     vdW  Elec       q    Type
REMARK                         _______ _______ _______ _____ _____    ______ ____
ROOT
ATOM      1  C   UNL     1       6.206   2.055   0.873  0.00  0.00    +0.041 C 
ATOM      2  C   UNL     1       5.790   2.416  -0.554  0.00  0.00    +0.068 C 
ATOM      3  C   UNL     1       4.266   2.521  -0.637  0.00  0.00    +0.070 C 
ATOM      4  C   UNL     1       3.656   1.149  -0.529  0.00  0.00    -0.025 A 
ATOM      5  C   UNL     1       4.387   0.020  -0.715  0.00  0.00    +0.022 A 
ATOM      6  C   UNL     1       3.773  -1.236  -0.612  0.00  0.00    +0.128 A 
ATOM      7  N   UNL     1       2.483  -1.333  -0.333  0.00  0.00    -0.224 NA
ATOM      8  C   UNL     1       1.743  -0.262  -0.143  0.00  0.00    +0.113 A 
ATOM      9  C   UNL     1       2.272   1.046  -0.226  0.00  0.00    +0.033 A 
ATOM     10  C   UNL     1       1.316   2.115   0.013  0.00  0.00    +0.054 A 
ATOM     11  C   UNL     1       0.009   1.774   0.290  0.00  0.00    +0.097 A 
ATOM     12  S   UNL     1       0.028  -0.007   0.239  0.00  0.00    -0.062 S 
ATOM     13  C   UNL     1       5.860   0.078  -1.028  0.00  0.00    +0.199 C 
ATOM     14  O   UNL     1       6.223   1.390  -1.456  0.00  0.00    -0.369 OA
ATOM     15  C   UNL     1       6.421   3.752  -0.953  0.00  0.00    +0.041 C 
ENDROOT
BRANCH   6  16
ATOM     16  N   UNL     1       4.524  -2.386  -0.804  0.00  0.00    -0.310 N 
ATOM     17  C   UNL     1       4.020  -3.159  -1.948  0.00  0.00    +0.134 C 
ATOM     18  C   UNL     1       4.911  -4.386  -2.161  0.00  0.00    +0.178 C 
ATOM     19  O   UNL     1       4.944  -5.159  -0.958  0.00  0.00    -0.377 OA
ATOM     20  C   UNL     1       5.430  -4.437   0.177  0.00  0.00    +0.178 C 
ATOM     21  C   UNL     1       4.545  -3.211   0.413  0.00  0.00    +0.134 C 
ENDBRANCH   6  16
BRANCH  11  22
ATOM     22  C   UNL     1      -1.086   2.633   0.548  0.00  0.00    +0.253 C 
ATOM     23  O   UNL     1      -0.926   3.841   0.545  0.00  0.00    -0.270 OA
ATOM     24  N   UNL     1      -2.305   2.115   0.796  0.00  0.00    -0.300 N 
ATOM     25  H   UNL     1      -2.432   1.153   0.799  0.00  0.00    +0.150 HD
BRANCH  24  26
ATOM     26  C   UNL     1      -3.438   3.004   1.063  0.00  0.00    +0.134 C 
BRANCH  26  27
ATOM     27  C   UNL     1      -4.050   3.443  -0.242  0.00  0.00    -0.023 A 
ATOM     28  C   UNL     1      -4.177   2.543  -1.283  0.00  0.00    +0.006 A 
ATOM     29  C   UNL     1      -4.743   2.945  -2.479  0.00  0.00    +0.000 A 
ATOM     30  C   UNL     1      -5.172   4.250  -2.637  0.00  0.00    +0.000 A 
ATOM     31  C   UNL     1      -5.040   5.151  -1.597  0.00  0.00    +0.000 A 
ATOM     32  C   UNL     1      -4.479   4.748  -0.400  0.00  0.00    +0.006 A 
ENDBRANCH  26  27
BRANCH  26  33
ATOM     33  C   UNL     1      -4.470   2.271   1.880  0.00  0.00    -0.023 A 
ATOM     34  C   UNL     1      -4.758   0.947   1.603  0.00  0.00    +0.006 A 
ATOM     35  C   UNL     1      -5.702   0.273   2.357  0.00  0.00    +0.000 A 
ATOM     36  C   UNL     1      -6.364   0.925   3.379  0.00  0.00    +0.000 A 
ATOM     37  C   UNL     1      -6.080   2.251   3.652  0.00  0.00    +0.000 A 
ATOM     38  C   UNL     1      -5.133   2.923   2.903  0.00  0.00    +0.006 A 
ENDBRANCH  26  33
ENDBRANCH  24  26
ENDBRANCH  11  22
BRANCH  10  39
ATOM     39  N   UNL     1       1.709   3.445  -0.039  0.00  0.00    -0.356 N 
ATOM     40  H   UNL     1       1.212   4.117   0.454  0.00  0.00    +0.142 HD
ATOM     41  H   UNL     1       2.481   3.703  -0.567  0.00  0.00    +0.142 HD
ENDBRANCH  10  39
TORSDOF 6
