REMARK  Name = ZINC20453752
REMARK  5 active torsions:
REMARK  status: ('A' for Active; 'I' for Inactive)
REMARK    1  A    between atoms: C_9  and  C_12
REMARK    2  A    between atoms: C_12  and  N_13
REMARK    3  A    between atoms: C_16  and  N_22
REMARK    4  A    between atoms: C_18  and  O_21
REMARK    5  A    between atoms: C_25  and  O_28
REMARK                            x       y       z     vdW  Elec       q    Type
REMARK                         _______ _______ _______ _____ _____    ______ ____
ROOT
ATOM      1  N   UNL     1      -2.841   0.762   1.469  0.00  0.00    -0.296 NA
ATOM      2  C   UNL     1      -3.304   2.066   1.961  0.00  0.00    +0.083 C 
ATOM      3  C   UNL     1      -3.916   1.899   3.353  0.00  0.00    +0.003 C 
ATOM      4  C   UNL     1      -2.864   1.318   4.302  0.00  0.00    -0.037 C 
ATOM      5  C   UNL     1      -2.363  -0.016   3.742  0.00  0.00    +0.115 C 
ATOM      6  C   UNL     1      -1.796   0.207   2.338  0.00  0.00    +0.114 C 
ENDROOT
BRANCH   4   7
ATOM      7  N   UNL     1      -3.463   1.102   5.626  0.00  0.00    +0.383 N 
ATOM      8  C   UNL     1      -3.858   2.376   6.239  0.00  0.00    -0.076 C 
ATOM      9  C   UNL     1      -4.341   2.127   7.670  0.00  0.00    +0.013 C 
ATOM     10  C   UNL     1      -5.530   1.163   7.641  0.00  0.00    +0.111 C 
ATOM     11  C   UNL     1      -5.105  -0.138   6.955  0.00  0.00    +0.013 C 
ATOM     12  C   UNL     1      -4.600   0.176   5.545  0.00  0.00    -0.076 C 
ATOM     13  H   UNL     1      -2.701   0.641   6.272  0.00  0.00    -0.081 HD
BRANCH  10  14
ATOM     14  O   UNL     1      -5.951   0.882   8.978  0.00  0.00    -0.392 OA
ATOM     15  H   UNL     1      -6.798   0.204   9.156  0.00  0.00    +0.210 HD
ENDBRANCH  10  14
ENDBRANCH   4   7
BRANCH   5  16
ATOM     16  O   UNL     1      -1.340  -0.537   4.593  0.00  0.00    -0.392 OA
ATOM     17  H   UNL     1      -0.858  -1.495   4.349  0.00  0.00    +0.210 HD
ENDBRANCH   5  16
BRANCH   1  18
ATOM     18  C   UNL     1      -2.373   0.860   0.080  0.00  0.00    +0.118 C 
BRANCH  18  27
ATOM     19  C   UNL     1       3.423   3.756  -0.017  0.00  0.00    +0.023 A 
ATOM     20  C   UNL     1       2.163   4.260   0.255  0.00  0.00    +0.048 A 
ATOM     21  C   UNL     1       1.075   3.409   0.288  0.00  0.00    +0.128 A 
ATOM     22  C   UNL     1       1.252   2.042   0.034  0.00  0.00    +0.018 A 
ATOM     23  C   UNL     1       2.521   1.542  -0.235  0.00  0.00    +0.031 A 
ATOM     24  C   UNL     1       3.602   2.404  -0.258  0.00  0.00    +0.042 A 
ATOM     25 CL   UNL     1       5.191   1.789  -0.592  0.00  0.00    -0.084 Cl
ATOM     26  C   UNL     1       0.066   1.160   0.057  0.00  0.00    +0.015 C 
ATOM     27  C   UNL     1      -1.138   1.723   0.025  0.00  0.00    -0.018 C 
ATOM     28  C   UNL     1      -1.272   3.220  -0.061  0.00  0.00    +0.261 C 
ATOM     29  O   UNL     1      -0.171   3.868   0.574  0.00  0.00    -0.487 OA
ENDBRANCH  18  27
ENDBRANCH   1  18
TORSDOF 5
