REMARK  Name = ZINC21080402
REMARK  8 active torsions:
REMARK  status: ('A' for Active; 'I' for Inactive)
REMARK    1  A    between atoms: C_1  and  O_2
REMARK    2  A    between atoms: O_2  and  C_3
REMARK    3  A    between atoms: C_7  and  C_9
REMARK    4  A    between atoms: C_9  and  S_10
REMARK    5  A    between atoms: S_10  and  C_11
REMARK    6  A    between atoms: N_17  and  N_18
REMARK    7  A    between atoms: C_19  and  C_20
REMARK    8  A    between atoms: C_25  and  O_26
REMARK                            x       y       z     vdW  Elec       q    Type
REMARK                         _______ _______ _______ _____ _____    ______ ____
ROOT
ATOM      1  C   UNL     1       2.752  -6.452  -1.655  0.00  0.00    +0.191 A 
ATOM      2  N   UNL     1       3.672  -7.350  -1.194  0.00  0.00    -0.303 N 
ATOM      3  H   UNL     1       4.486  -7.136  -0.711  0.00  0.00    +0.171 HD
ATOM      4  C   UNL     1       3.245  -8.604  -1.532  0.00  0.00    +0.235 A 
ATOM      5  N   UNL     1       2.109  -8.485  -2.175  0.00  0.00    -0.111 NA
ATOM      6  N   UNL     1       1.794  -7.122  -2.249  0.00  0.00    -0.121 NA
ATOM      7  N   UNL     1       3.900  -9.793  -1.246  0.00  0.00    -0.205 N 
ATOM      8  H   UNL     1       4.741  -9.780  -0.763  0.00  0.00    +0.177 HD
ENDROOT
BRANCH   7   9
ATOM      9  N   UNL     1       3.346 -11.014  -1.654  0.00  0.00    -0.187 NA
ATOM     10  C   UNL     1       3.958 -12.127  -1.386  0.00  0.00    +0.142 C 
BRANCH  10  11
ATOM     11  C   UNL     1       3.376 -13.411  -1.816  0.00  0.00    +0.037 A 
ATOM     12  C   UNL     1       4.029 -14.611  -1.524  0.00  0.00    +0.033 A 
ATOM     13  C   UNL     1       3.477 -15.809  -1.929  0.00  0.00    +0.042 A 
ATOM     14  C   UNL     1       2.279 -15.827  -2.624  0.00  0.00    +0.023 A 
ATOM     15  C   UNL     1       1.624 -14.645  -2.918  0.00  0.00    +0.047 A 
ATOM     16  C   UNL     1       2.161 -13.434  -2.514  0.00  0.00    +0.126 A 
ATOM     17 CL   UNL     1       4.289 -17.301  -1.567  0.00  0.00    -0.084 Cl
BRANCH  16  18
ATOM     18  O   UNL     1       1.515 -12.274  -2.797  0.00  0.00    -0.506 OA
ATOM     19  H   UNL     1       1.766 -11.880  -3.644  0.00  0.00    +0.292 HD
ENDBRANCH  16  18
ENDBRANCH  10  11
ENDBRANCH   7   9
BRANCH   1  20
ATOM     20  S   UNL     1       2.834  -4.701  -1.477  0.00  0.00    -0.081 S 
BRANCH  20  21
ATOM     21  C   UNL     1       1.325  -4.106  -2.289  0.00  0.00    +0.112 C 
BRANCH  21  26
ATOM     22  C   UNL     1       0.606  -0.607  -1.056  0.00  0.00    +0.120 A 
ATOM     23  C   UNL     1       1.173   0.161  -2.063  0.00  0.00    +0.045 A 
ATOM     24  C   UNL     1       1.786  -0.455  -3.136  0.00  0.00    +0.004 A 
ATOM     25  C   UNL     1       1.836  -1.835  -3.208  0.00  0.00    +0.005 A 
ATOM     26  C   UNL     1       1.271  -2.602  -2.207  0.00  0.00    -0.034 A 
ATOM     27  C   UNL     1       0.661  -1.991  -1.128  0.00  0.00    +0.050 A 
BRANCH  22  29
ATOM     28  C   UNL     1      -0.017   1.425   0.010  0.00  0.00    +0.277 C 
ATOM     29  O   UNL     1       0.002  -0.004   0.002  0.00  0.00    -0.495 OA
ENDBRANCH  22  29
ENDBRANCH  21  26
ENDBRANCH  20  21
ENDBRANCH   1  20
TORSDOF 7
