REMARK  Name = ZINC39989581
REMARK  11 active torsions:
REMARK  status: ('A' for Active; 'I' for Inactive)
REMARK    1  A    between atoms: C_1  and  C_2
REMARK    2  A    between atoms: C_3  and  C_22
REMARK    3  A    between atoms: C_4  and  N_12
REMARK    4  A    between atoms: N_5  and  C_11
REMARK    5  A    between atoms: C_8  and  C_9
REMARK    6  A    between atoms: C_14  and  C_21
REMARK    7  A    between atoms: C_17  and  C_20
REMARK    8  A    between atoms: N_26  and  C_30
REMARK    9  A    between atoms: C_30  and  C_31
REMARK   10  A    between atoms: C_31  and  C_32
REMARK   11  A    between atoms: C_32  and  C_33
REMARK                            x       y       z     vdW  Elec       q    Type
REMARK                         _______ _______ _______ _____ _____    ______ ____
ROOT
ATOM      1  C   UNL     1       0.331   0.771   0.240  0.00  0.00    +0.046 C 
ATOM      2  C   UNL     1       0.052  -0.582  -0.361  0.00  0.00    -0.017 A 
ATOM      3  C   UNL     1      -1.147  -1.257  -0.076  0.00  0.00    +0.019 A 
ATOM      4  C   UNL     1      -1.383  -2.517  -0.650  0.00  0.00    +0.111 A 
ATOM      5  N   UNL     1      -0.464  -3.083  -1.474  0.00  0.00    -0.298 N 
ATOM      6  C   UNL     1       0.691  -2.457  -1.763  0.00  0.00    +0.270 A 
ATOM      7  O   UNL     1       1.498  -2.989  -2.505  0.00  0.00    -0.266 OA
ATOM      8  C   UNL     1       0.976  -1.181  -1.214  0.00  0.00    +0.120 A 
ATOM      9  C   UNL     1      -0.735  -4.399  -2.059  0.00  0.00    +0.154 C 
ENDROOT
BRANCH   4  10
ATOM     10  N   UNL     1      -2.545  -3.178  -0.377  0.00  0.00    -0.315 N 
ATOM     11  C   UNL     1      -2.964  -3.413   1.011  0.00  0.00    +0.109 C 
ATOM     12  C   UNL     1      -4.389  -2.880   1.193  0.00  0.00    +0.004 C 
ATOM     13  C   UNL     1      -5.304  -3.515   0.144  0.00  0.00    +0.009 C 
ATOM     14  C   UNL     1      -4.820  -3.133  -1.256  0.00  0.00    +0.004 C 
ATOM     15  C   UNL     1      -3.404  -3.663  -1.466  0.00  0.00    +0.109 C 
ATOM     16  C   UNL     1      -4.818  -1.609  -1.398  0.00  0.00    +0.009 C 
ATOM     17  C   UNL     1      -4.892  -3.235   2.594  0.00  0.00    +0.009 C 
ENDBRANCH   4  10
BRANCH   3  18
ATOM     18  C   UNL     1      -2.141  -0.653   0.812  0.00  0.00    +0.032 C 
ATOM     19  C   UNL     1      -2.806   0.470   0.426  0.00  0.00    +0.077 C 
ATOM     20  C   UNL     1      -3.699   1.299   1.170  0.00  0.00    +0.258 C 
ATOM     21  O   UNL     1      -3.970   1.046   2.331  0.00  0.00    -0.269 OA
ATOM     22  N   UNL     1      -4.224   2.349   0.563  0.00  0.00    -0.255 N 
ATOM     23  C   UNL     1      -3.924   2.629  -0.725  0.00  0.00    +0.121 C 
ATOM     24  S   UNL     1      -4.480   3.922  -1.699  0.00  0.00    -0.027 S 
ATOM     25  S   UNL     1      -2.792   1.314  -1.150  0.00  0.00    -0.061 S 
BRANCH  22  26
ATOM     26  C   UNL     1      -5.145   3.221   1.295  0.00  0.00    +0.115 C 
BRANCH  26  27
ATOM     27  C   UNL     1      -4.354   4.333   1.987  0.00  0.00    +0.031 C 
BRANCH  27  28
ATOM     28  C   UNL     1      -5.316   5.244   2.752  0.00  0.00    +0.126 C 
BRANCH  28  29
ATOM     29  C   UNL     1      -4.536   6.339   3.433  0.00  0.00    +0.356 C 
ATOM     30  O   UNL     1      -3.324   6.386   3.317  0.00  0.00    -0.246 OA
ATOM     31  O   UNL     1      -5.118   7.177   4.100  0.00  0.00    -0.246 OA
ENDBRANCH  28  29
ENDBRANCH  27  28
ENDBRANCH  26  27
ENDBRANCH  22  26
ENDBRANCH   3  18
BRANCH   8  32
ATOM     32  C   UNL     1       2.204  -0.516  -1.529  0.00  0.00    +0.105 C 
ATOM     33  N   UNL     1       3.179   0.011  -1.779  0.00  0.00    -0.191 NA
ENDBRANCH   8  32
TORSDOF 7
