REMARK  Name = ZINC12635720
REMARK  15 active torsions:
REMARK  status: ('A' for Active; 'I' for Inactive)
REMARK    1  A    between atoms: C_1  and  C_2
REMARK    2  A    between atoms: C_2  and  N_72
REMARK    3  A    between atoms: C_6  and  C_8
REMARK    4  A    between atoms: C_8  and  N_9
REMARK    5  A    between atoms: N_9  and  C_10
REMARK    6  A    between atoms: N_9  and  C_25
REMARK    7  A    between atoms: C_10  and  C_11
REMARK    8  A    between atoms: C_16  and  C_24
REMARK    9  A    between atoms: C_17  and  C_23
REMARK   10  A    between atoms: C_25  and  N_27
REMARK   11  A    between atoms: N_27  and  C_28
REMARK   12  A    between atoms: C_31  and  O_36
REMARK   13  A    between atoms: C_33  and  O_34
REMARK   14  A    between atoms: O_34  and  C_35
REMARK   15  A    between atoms: O_36  and  C_37
REMARK                            x       y       z     vdW  Elec       q    Type
REMARK                         _______ _______ _______ _____ _____    ______ ____
ROOT
ATOM      1  N   UNL     1      -2.779   3.611  -1.623  0.00  0.00    -0.309 N 
ENDROOT
BRANCH   1   2
ATOM      2  C   UNL     1      -2.631   4.691  -2.416  0.00  0.00    +0.137 C 
ATOM      3  S   UNL     1      -1.395   5.830  -2.088  0.00  0.00    -0.018 S 
BRANCH   2   4
ATOM      4  N   UNL     1      -3.455   4.874  -3.466  0.00  0.00    -0.294 N 
ATOM      5  H   UNL     1      -4.129   4.208  -3.676  0.00  0.00    +0.154 HD
BRANCH   4   6
ATOM      6  C   UNL     1      -3.339   6.027  -4.256  0.00  0.00    +0.075 A 
ATOM      7  C   UNL     1      -3.068   7.251  -3.662  0.00  0.00    +0.030 A 
ATOM      8  C   UNL     1      -2.948   8.386  -4.441  0.00  0.00    +0.047 A 
ATOM      9  C   UNL     1      -3.110   8.307  -5.816  0.00  0.00    +0.124 A 
ATOM     10  C   UNL     1      -3.386   7.087  -6.414  0.00  0.00    +0.093 A 
ATOM     11  C   UNL     1      -3.501   5.946  -5.637  0.00  0.00    +0.145 A 
BRANCH  11  12
ATOM     12  O   UNL     1      -3.772   4.748  -6.221  0.00  0.00    -0.493 OA
ATOM     13  C   UNL     1      -3.926   4.740  -7.642  0.00  0.00    +0.277 C 
ENDBRANCH  11  12
BRANCH   9  14
ATOM     14  O   UNL     1      -2.997   9.427  -6.579  0.00  0.00    -0.495 OA
ATOM     15  C   UNL     1      -2.711  10.650  -5.898  0.00  0.00    +0.277 C 
ENDBRANCH   9  14
ENDBRANCH   4   6
ENDBRANCH   2   4
ENDBRANCH   1   2
BRANCH   1  16
ATOM     16  C   UNL     1      -3.836   2.636  -1.903  0.00  0.00    +0.092 C 
BRANCH  16  20
ATOM     17  C   UNL     1      -7.259   2.418  -0.529  0.00  0.00    -0.078 C 
ATOM     18  C   UNL     1      -6.434   2.654   0.754  0.00  0.00    -0.020 C 
ATOM     19  C   UNL     1      -5.046   3.111   0.261  0.00  0.00    -0.016 C 
ATOM     20  C   UNL     1      -5.149   3.114  -1.280  0.00  0.00    -0.051 C 
ATOM     21  N   UNL     1      -6.243   2.175  -1.552  0.00  0.00    +0.382 N 
ATOM     22  H   UNL     1      -5.903   1.209  -1.485  0.00  0.00    -0.081 HD
BRANCH  21  24
ATOM     23  C   UNL     1      -7.791   1.295  -3.277  0.00  0.00    -0.017 C 
ATOM     24  C   UNL     1      -6.801   2.406  -2.923  0.00  0.00    -0.082 C 
ENDBRANCH  21  24
ENDBRANCH  16  20
ENDBRANCH   1  16
BRANCH   1  25
ATOM     25  C   UNL     1      -1.883   3.411  -0.481  0.00  0.00    +0.147 C 
BRANCH  25  26
ATOM     26  C   UNL     1      -0.682   2.612  -0.918  0.00  0.00    +0.035 A 
ATOM     27  C   UNL     1       0.456   3.251  -1.288  0.00  0.00    +0.020 A 
ATOM     28  C   UNL     1       1.605   2.445  -1.707  0.00  0.00    -0.001 A 
ATOM     29  C   UNL     1       2.805   3.047  -2.099  0.00  0.00    +0.010 A 
ATOM     30  C   UNL     1       3.859   2.267  -2.484  0.00  0.00    +0.004 A 
ATOM     31  C   UNL     1       3.749   0.883  -2.491  0.00  0.00    -0.046 A 
ATOM     32  C   UNL     1       2.575   0.269  -2.109  0.00  0.00    -0.024 A 
ATOM     33  C   UNL     1       1.489   1.043  -1.712  0.00  0.00    +0.052 A 
ATOM     34  N   UNL     1       0.303   0.455  -1.326  0.00  0.00    -0.322 N 
ATOM     35  H   UNL     1       0.225  -0.512  -1.330  0.00  0.00    +0.169 HD
ATOM     36  C   UNL     1      -0.748   1.203  -0.948  0.00  0.00    +0.254 A 
ATOM     37  O   UNL     1      -1.783   0.650  -0.618  0.00  0.00    -0.268 OA
ATOM     38  C   UNL     1       2.470  -1.234  -2.120  0.00  0.00    +0.046 C 
ATOM     39  C   UNL     1       4.924   0.044  -2.920  0.00  0.00    +0.044 C 
ENDBRANCH  25  26
ENDBRANCH   1  25
TORSDOF 10
