REMARK  Name = ZINC63769158
REMARK  6 active torsions:
REMARK  status: ('A' for Active; 'I' for Inactive)
REMARK    1  A    between atoms: C_1  and  C_2
REMARK    2  A    between atoms: C_3  and  C_27
REMARK    3  A    between atoms: C_5  and  N_21
REMARK    4  A    between atoms: C_6  and  C_7
REMARK    5  A    between atoms: N_9  and  C_10
REMARK    6  A    between atoms: C_22  and  C_24
REMARK                            x       y       z     vdW  Elec       q    Type
REMARK                         _______ _______ _______ _____ _____    ______ ____
ROOT
ATOM      1  C   UNL     1       0.029  -0.136   2.540  0.00  0.00    +0.251 C 
ATOM      2  O   UNL     1      -1.024   0.124   3.094  0.00  0.00    -0.270 OA
ATOM      3  N   UNL     1       1.197   0.172   3.136  0.00  0.00    -0.281 N 
ATOM      4  H   UNL     1       2.035  -0.095   2.727  0.00  0.00    +0.155 HD
ENDROOT
BRANCH   3   5
ATOM      5  C   UNL     1       1.202   0.877   4.346  0.00  0.00    +0.034 A 
ATOM      6  C   UNL     1       2.205   1.802   4.607  0.00  0.00    +0.025 A 
ATOM      7  C   UNL     1       2.210   2.496   5.800  0.00  0.00    +0.025 A 
ATOM      8  C   UNL     1       1.212   2.271   6.739  0.00  0.00    +0.037 A 
ATOM      9  C   UNL     1       0.209   1.346   6.477  0.00  0.00    -0.024 A 
ATOM     10  C   UNL     1       0.201   0.655   5.282  0.00  0.00    +0.028 A 
ATOM     11  C   UNL     1      -0.873   1.105   7.498  0.00  0.00    +0.046 C 
ATOM     12  C   UNL     1      -0.291   1.250   8.904  0.00  0.00    +0.101 C 
ATOM     13  C   UNL     1       0.504   2.525   9.001  0.00  0.00    +0.218 C 
ATOM     14  O   UNL     1       0.505   3.153  10.038  0.00  0.00    -0.275 OA
ATOM     15  N   UNL     1       1.214   2.974   7.949  0.00  0.00    -0.285 N 
ATOM     16  H   UNL     1       1.731   3.791   8.031  0.00  0.00    +0.155 HD
ENDBRANCH   3   5
BRANCH   1  22
ATOM     17  C   UNL     1      -0.005   1.490  -0.000  0.00  0.00    +0.045 C 
ATOM     18  C   UNL     1       0.009  -0.017   0.000  0.00  0.00    -0.027 A 
ATOM     19  C   UNL     1       0.013  -0.732  -1.140  0.00  0.00    -0.008 A 
ATOM     20  S   UNL     1       0.029  -2.417  -0.567  0.00  0.00    -0.078 S 
ATOM     21  C   UNL     1       0.031  -2.165   1.092  0.00  0.00    +0.084 A 
ATOM     22  C   UNL     1       0.025  -0.784   1.225  0.00  0.00    +0.069 A 
ATOM     23  C   UNL     1       0.005  -0.228  -2.560  0.00  0.00    +0.052 C 
BRANCH  21  24
ATOM     24  N   UNL     1       0.041  -3.118   2.099  0.00  0.00    -0.279 N 
ATOM     25  C   UNL     1       0.051  -4.429   1.786  0.00  0.00    +0.221 C 
ATOM     26  O   UNL     1       0.052  -4.775   0.623  0.00  0.00    -0.275 OA
ATOM     27  H   UNL     1       0.040  -2.841   3.029  0.00  0.00    +0.155 HD
BRANCH  25  28
ATOM     28  C   UNL     1       0.062  -5.465   2.880  0.00  0.00    +0.075 C 
ATOM     29  C   UNL     1       1.334  -6.299   3.051  0.00  0.00    +0.013 C 
ATOM     30  C   UNL     1       0.074  -6.936   2.460  0.00  0.00    +0.013 C 
ENDBRANCH  25  28
ENDBRANCH  21  24
ENDBRANCH   1  22
TORSDOF 4
