REMARK  Name = ZINC39699354
REMARK  13 active torsions:
REMARK  status: ('A' for Active; 'I' for Inactive)
REMARK    1  A    between atoms: C_1  and  C_2
REMARK    2  A    between atoms: C_2  and  N_3
REMARK    3  A    between atoms: N_6  and  C_9
REMARK    4  A    between atoms: C_9  and  C_11
REMARK    5  A    between atoms: C_9  and  C_27
REMARK    6  A    between atoms: C_16  and  O_25
REMARK    7  A    between atoms: C_17  and  O_23
REMARK    8  A    between atoms: O_23  and  C_24
REMARK    9  A    between atoms: O_25  and  C_26
REMARK   10  A    between atoms: N_32  and  C_33
REMARK   11  A    between atoms: C_33  and  C_34
REMARK   12  A    between atoms: C_33  and  C_35
REMARK   13  A    between atoms: C_33  and  C_36
REMARK                            x       y       z     vdW  Elec       q    Type
REMARK                         _______ _______ _______ _____ _____    ______ ____
ROOT
ATOM      1  C   UNL     1      -4.815  -2.700  -1.001  0.00  0.00    +0.115 C 
ENDROOT
BRANCH   1   2
ATOM      2  C   UNL     1      -5.679  -2.486   0.243  0.00  0.00    +0.119 C 
ATOM      3  C   UNL     1      -4.947  -3.087   1.427  0.00  0.00    -0.003 C 
ATOM      4  C   UNL     1      -4.659  -2.262   2.469  0.00  0.00    -0.003 A 
ATOM      5  C   UNL     1      -3.954  -2.768   3.650  0.00  0.00    +0.059 A 
ATOM      6  C   UNL     1      -3.685  -1.915   4.672  0.00  0.00    +0.162 A 
ATOM      7  C   UNL     1      -4.071  -0.562   4.614  0.00  0.00    +0.163 A 
ATOM      8  C   UNL     1      -4.735  -0.034   3.530  0.00  0.00    +0.073 A 
ATOM      9  C   UNL     1      -5.054  -0.842   2.430  0.00  0.00    +0.044 A 
ATOM     10  N   UNL     1      -5.699  -0.316   1.385  0.00  0.00    -0.284 N 
ATOM     11  C   UNL     1      -6.031  -1.018   0.317  0.00  0.00    +0.226 C 
ATOM     12  O   UNL     1      -6.618  -0.483  -0.605  0.00  0.00    -0.275 OA
ATOM     13  H   UNL     1      -5.935   0.624   1.413  0.00  0.00    +0.155 HD
BRANCH   7  14
ATOM     14  O   UNL     1      -3.779   0.247   5.660  0.00  0.00    -0.491 OA
ATOM     15  C   UNL     1      -4.189   1.612   5.559  0.00  0.00    +0.277 C 
ENDBRANCH   7  14
BRANCH   6  16
ATOM     16  O   UNL     1      -3.031  -2.377   5.771  0.00  0.00    -0.491 OA
ATOM     17  C   UNL     1      -2.664  -3.758   5.776  0.00  0.00    +0.277 C 
ENDBRANCH   6  16
ENDBRANCH   1   2
BRANCH   1  21
ATOM     18  N   UNL     1      -2.320   0.599  -0.130  0.00  0.00    +0.381 N 
ATOM     19  C   UNL     1      -2.872   0.491  -1.487  0.00  0.00    -0.063 C 
ATOM     20  C   UNL     1      -4.089  -0.437  -1.469  0.00  0.00    +0.066 C 
ATOM     21  N   UNL     1      -3.684  -1.762  -0.979  0.00  0.00    -0.299 NA
ATOM     22  C   UNL     1      -3.106  -1.666   0.369  0.00  0.00    +0.066 C 
ATOM     23  C   UNL     1      -1.897  -0.728   0.336  0.00  0.00    -0.063 C 
ATOM     24  H   UNL     1      -3.025   0.965   0.492  0.00  0.00    -0.082 HD
BRANCH  18  26
ATOM     25  C   UNL     1      -1.624   2.917  -0.509  0.00  0.00    -0.017 C 
ATOM     26  C   UNL     1      -1.163   1.504  -0.144  0.00  0.00    -0.082 C 
ENDBRANCH  18  26
ENDBRANCH   1  21
BRANCH   1  27
ATOM     27  C   UNL     1      -4.287  -4.136  -1.015  0.00  0.00    +0.236 C 
ATOM     28  N   UNL     1      -3.271  -4.318   0.031  0.00  0.00    -0.148 NA
ATOM     29  N   UNL     1      -2.203  -4.629  -0.501  0.00  0.00    -0.069 NA
ATOM     30  N   UNL     1      -2.291  -4.708  -1.890  0.00  0.00    -0.179 N 
ATOM     31  N   UNL     1      -3.574  -4.411  -2.280  0.00  0.00    -0.179 NA
ATOM     32  H   UNL     1      -1.562  -4.936  -2.487  0.00  0.00    +0.191 HD
BRANCH  31  33
ATOM     33  C   UNL     1      -4.184  -5.540  -2.993  0.00  0.00    +0.035 C 
ATOM     34  C   UNL     1      -5.635  -5.200  -3.341  0.00  0.00    +0.029 C 
ATOM     35  C   UNL     1      -3.402  -5.814  -4.280  0.00  0.00    +0.029 C 
ATOM     36  C   UNL     1      -4.152  -6.784  -2.103  0.00  0.00    +0.029 C 
ENDBRANCH  31  33
ENDBRANCH   1  27
TORSDOF 7
