REMARK  Name = ZINC25464248
REMARK  6 active torsions:
REMARK  status: ('A' for Active; 'I' for Inactive)
REMARK    1  A    between atoms: C_1  and  C_2
REMARK    2  A    between atoms: C_7  and  C_8
REMARK    3  A    between atoms: C_12  and  C_19
REMARK    4  A    between atoms: C_15  and  C_18
REMARK    5  A    between atoms: C_21  and  C_25
REMARK    6  A    between atoms: C_21  and  C_26
REMARK                            x       y       z     vdW  Elec       q    Type
REMARK                         _______ _______ _______ _____ _____    ______ ____
ROOT
ATOM      1  C   UNL     1      -0.003   1.174  -0.047  0.00  0.00    +0.047 C 
ATOM      2  C   UNL     1      -0.704   1.611   1.214  0.00  0.00    -0.010 A 
ATOM      3  C   UNL     1      -0.108   1.875   2.453  0.00  0.00    +0.042 A 
ATOM      4  C   UNL     1      -1.120   2.247   3.338  0.00  0.00    +0.028 A 
ATOM      5  N   UNL     1      -2.276   2.216   2.676  0.00  0.00    -0.354 N 
ATOM      6  H   UNL     1      -3.213   2.475   3.192  0.00  0.00    +0.166 HD
ATOM      7  C   UNL     1      -2.044   1.831   1.369  0.00  0.00    +0.106 A 
ATOM      8  C   UNL     1      -0.856   2.605   4.779  0.00  0.00    +0.060 C 
ATOM      9  C   UNL     1       0.494   2.020   5.205  0.00  0.00    -0.023 C 
ATOM     10  C   UNL     1       1.598   2.438   4.229  0.00  0.00    +0.086 C 
ATOM     11  C   UNL     1       1.301   1.815   2.873  0.00  0.00    +0.166 C 
ATOM     12  O   UNL     1       2.163   1.306   2.188  0.00  0.00    -0.292 OA
ATOM     13  C   UNL     1       0.842   2.526   6.607  0.00  0.00    +0.011 C 
ATOM     14  C   UNL     1       0.396   0.493   5.231  0.00  0.00    +0.011 C 
ENDROOT
BRANCH   7  15
ATOM     15  C   UNL     1      -3.064   1.683   0.324  0.00  0.00    +0.263 C 
ATOM     16  O   UNL     1      -3.592   2.669  -0.155  0.00  0.00    -0.268 OA
ATOM     17  N   UNL     1      -3.416   0.455  -0.105  0.00  0.00    -0.291 N 
ATOM     18  C   UNL     1      -2.879  -0.755   0.538  0.00  0.00    +0.139 C 
ATOM     19  C   UNL     1      -4.058  -1.680   0.880  0.00  0.00    +0.133 C 
ATOM     20  O   UNL     1      -4.850  -1.883  -0.293  0.00  0.00    -0.371 OA
ATOM     21  C   UNL     1      -5.448  -0.692  -0.809  0.00  0.00    +0.133 C 
ATOM     22  C   UNL     1      -4.344   0.283  -1.234  0.00  0.00    +0.139 C 
ATOM     23  C   UNL     1      -6.317  -1.039  -2.020  0.00  0.00    +0.039 C 
ATOM     24  C   UNL     1      -3.525  -3.025   1.377  0.00  0.00    +0.039 C 
ENDBRANCH   7  15
TORSDOF 1
