REMARK  Name = ZINC28055080
REMARK  7 active torsions:
REMARK  status: ('A' for Active; 'I' for Inactive)
REMARK    1  A    between atoms: C_1  and  C_2
REMARK    2  A    between atoms: C_10  and  C_18
REMARK    3  A    between atoms: C_25  and  C_28
REMARK    4  A    between atoms: C_30  and  O_36
REMARK    5  A    between atoms: C_33  and  O_34
REMARK    6  A    between atoms: O_34  and  C_35
REMARK    7  A    between atoms: O_36  and  C_37
REMARK                            x       y       z     vdW  Elec       q    Type
REMARK                         _______ _______ _______ _____ _____    ______ ____
ROOT
ATOM      1  C   UNL     1       0.567   6.961  -2.927  0.00  0.00    +0.044 C 
ATOM      2  C   UNL     1       1.335   6.038  -2.017  0.00  0.00    -0.050 A 
ATOM      3  C   UNL     1       1.181   6.138  -0.645  0.00  0.00    +0.007 A 
ATOM      4  C   UNL     1       1.880   5.298   0.203  0.00  0.00    +0.046 A 
ATOM      5  C   UNL     1       2.739   4.351  -0.323  0.00  0.00    +0.131 A 
ATOM      6  C   UNL     1       2.897   4.249  -1.711  0.00  0.00    +0.038 A 
ATOM      7  C   UNL     1       2.191   5.097  -2.556  0.00  0.00    +0.016 A 
ATOM      8  C   UNL     1       3.827   3.224  -2.241  0.00  0.00    +0.050 C 
ATOM      9  C   UNL     1       4.218   2.240  -1.429  0.00  0.00    +0.026 C 
ATOM     10  C   UNL     1       5.189   1.171  -1.865  0.00  0.00    +0.174 C 
ATOM     11  N   UNL     1       5.354   1.204  -3.312  0.00  0.00    -0.201 N 
ATOM     12  C   UNL     1       4.925   2.224  -4.099  0.00  0.00    +0.240 A 
ATOM     13  N   UNL     1       5.243   1.927  -5.327  0.00  0.00    -0.092 NA
ATOM     14  N   UNL     1       5.839   0.785  -5.369  0.00  0.00    -0.021 NA
ATOM     15  N   UNL     1       5.940   0.285  -4.180  0.00  0.00    -0.042 NA
ATOM     16  N   UNL     1       4.273   3.323  -3.565  0.00  0.00    -0.282 N 
ATOM     17  C   UNL     1       3.675   2.189  -0.019  0.00  0.00    +0.238 C 
ATOM     18  O   UNL     1       3.441   3.507   0.476  0.00  0.00    -0.479 OA
ATOM     19  H   UNL     1       4.101   4.248  -4.135  0.00  0.00    +0.155 HD
ENDROOT
BRANCH  10  20
ATOM     20  C   UNL     1       6.524   1.411  -1.208  0.00  0.00    -0.019 A 
ATOM     21  C   UNL     1       7.205   2.592  -1.438  0.00  0.00    +0.009 A 
ATOM     22  C   UNL     1       8.427   2.815  -0.832  0.00  0.00    +0.039 A 
ATOM     23  C   UNL     1       8.974   1.851  -0.002  0.00  0.00    +0.123 A 
ATOM     24  C   UNL     1       8.293   0.666   0.224  0.00  0.00    +0.039 A 
ATOM     25  C   UNL     1       7.069   0.448  -0.379  0.00  0.00    +0.009 A 
ATOM     26  F   UNL     1      10.170   2.066   0.587  0.00  0.00    -0.205 F 
ENDBRANCH  10  20
BRANCH  17  27
ATOM     27  C   UNL     1       2.380   1.418  -0.012  0.00  0.00    +0.042 A 
ATOM     28  C   UNL     1       1.177   2.088  -0.120  0.00  0.00    +0.056 A 
ATOM     29  C   UNL     1      -0.015   1.378  -0.112  0.00  0.00    +0.121 A 
ATOM     30  C   UNL     1       0.002  -0.004   0.003  0.00  0.00    +0.049 A 
ATOM     31  C   UNL     1       1.205  -0.673   0.109  0.00  0.00    +0.049 A 
ATOM     32  C   UNL     1       2.397   0.036   0.102  0.00  0.00    +0.127 A 
BRANCH  32  33
ATOM     33  O   UNL     1       3.582  -0.623   0.207  0.00  0.00    -0.495 OA
ATOM     34  C   UNL     1       3.524  -2.046   0.321  0.00  0.00    +0.277 C 
ENDBRANCH  32  33
BRANCH  29  35
ATOM     35  O   UNL     1      -1.199   2.037  -0.223  0.00  0.00    -0.495 OA
ATOM     36  C   UNL     1      -2.387   1.243  -0.214  0.00  0.00    +0.277 C 
ENDBRANCH  29  35
ENDBRANCH  17  27
TORSDOF 4
