REMARK  Name = ZINC13032754
REMARK  10 active torsions:
REMARK  status: ('A' for Active; 'I' for Inactive)
REMARK    1  A    between atoms: C_1  and  C_2
REMARK    2  A    between atoms: C_4  and  C_37
REMARK    3  A    between atoms: C_7  and  C_14
REMARK    4  A    between atoms: C_14  and  N_63
REMARK    5  A    between atoms: C_15  and  C_16
REMARK    6  A    between atoms: C_15  and  N_63
REMARK    7  A    between atoms: C_23  and  C_24
REMARK    8  A    between atoms: C_23  and  N_63
REMARK    9  A    between atoms: N_28  and  C_29
REMARK   10  A    between atoms: C_29  and  C_30
REMARK                            x       y       z     vdW  Elec       q    Type
REMARK                         _______ _______ _______ _____ _____    ______ ____
ROOT
ATOM      1  N   UNL     1       1.711  -1.846  -0.982  0.00  0.00    +0.390 N 
ATOM      2  H   UNL     1       0.994  -1.682  -1.698  0.00  0.00    -0.080 HD
ENDROOT
BRANCH   1   3
ATOM      3  C   UNL     1       1.621  -3.249  -0.525  0.00  0.00    -0.036 C 
BRANCH   3  10
ATOM      4  C   UNL     1      -6.022  -5.528  -0.651  0.00  0.00    +0.044 C 
ATOM      5  C   UNL     1      -4.569  -5.179  -0.846  0.00  0.00    -0.048 A 
ATOM      6  C   UNL     1      -3.949  -5.469  -2.054  0.00  0.00    +0.007 A 
ATOM      7  C   UNL     1      -2.632  -5.161  -2.251  0.00  0.00    -0.041 A 
ATOM      8  C   UNL     1      -1.902  -4.550  -1.227  0.00  0.00    +0.002 A 
ATOM      9  C   UNL     1      -0.491  -4.202  -1.406  0.00  0.00    +0.017 A 
ATOM     10  C   UNL     1       0.167  -3.615  -0.376  0.00  0.00    +0.001 A 
ATOM     11  C   UNL     1      -0.506  -3.341   0.834  0.00  0.00    +0.251 A 
ATOM     12  O   UNL     1       0.103  -2.809   1.746  0.00  0.00    -0.268 OA
ATOM     13  N   UNL     1      -1.803  -3.652   1.006  0.00  0.00    -0.322 N 
ATOM     14  H   UNL     1      -2.236  -3.450   1.850  0.00  0.00    +0.169 HD
ATOM     15  C   UNL     1      -2.527  -4.255  -0.001  0.00  0.00    +0.050 A 
ATOM     16  C   UNL     1      -3.869  -4.577   0.177  0.00  0.00    +0.029 A 
ATOM     17  C   UNL     1      -1.970  -5.479  -3.567  0.00  0.00    +0.044 C 
ENDBRANCH   3  10
ENDBRANCH   1   3
BRANCH   1  18
ATOM     18  C   UNL     1       3.043  -1.590  -1.568  0.00  0.00    -0.042 C 
BRANCH  18  19
ATOM     19  C   UNL     1       3.117  -2.263  -2.915  0.00  0.00    -0.064 A 
ATOM     20  C   UNL     1       3.693  -3.514  -3.031  0.00  0.00    +0.004 A 
ATOM     21  C   UNL     1       3.757  -4.135  -4.265  0.00  0.00    +0.038 A 
ATOM     22  C   UNL     1       3.252  -3.498  -5.386  0.00  0.00    +0.123 A 
ATOM     23  C   UNL     1       2.679  -2.243  -5.269  0.00  0.00    +0.038 A 
ATOM     24  C   UNL     1       2.612  -1.627  -4.034  0.00  0.00    +0.004 A 
ATOM     25  F   UNL     1       3.318  -4.101  -6.593  0.00  0.00    -0.205 F 
ENDBRANCH  18  19
ENDBRANCH   1  18
BRANCH   1  26
ATOM     26  C   UNL     1       1.475  -0.929   0.154  0.00  0.00    +0.001 C 
BRANCH  26  27
ATOM     27  C   UNL     1       1.425   0.485  -0.364  0.00  0.00    +0.135 A 
ATOM     28  N   UNL     1       2.446   1.282  -0.564  0.00  0.00    -0.115 NA
ATOM     29  N   UNL     1       1.995   2.402  -1.011  0.00  0.00    -0.023 NA
ATOM     30  N   UNL     1       0.713   2.342  -1.102  0.00  0.00    -0.044 NA
ATOM     31  N   UNL     1       0.323   1.175  -0.712  0.00  0.00    -0.227 N 
BRANCH  31  32
ATOM     32  C   UNL     1      -1.059   0.692  -0.658  0.00  0.00    +0.182 C 
BRANCH  32  33
ATOM     33  C   UNL     1      -1.475   0.206  -2.022  0.00  0.00    -0.026 A 
ATOM     34  C   UNL     1      -1.975   1.099  -2.952  0.00  0.00    +0.008 A 
ATOM     35  C   UNL     1      -2.352   0.655  -4.205  0.00  0.00    +0.038 A 
ATOM     36  C   UNL     1      -2.239  -0.688  -4.526  0.00  0.00    +0.123 A 
ATOM     37  C   UNL     1      -1.743  -1.582  -3.592  0.00  0.00    +0.038 A 
ATOM     38  C   UNL     1      -1.362  -1.135  -2.342  0.00  0.00    +0.008 A 
ATOM     39  F   UNL     1      -2.612  -1.124  -5.749  0.00  0.00    -0.205 F 
ENDBRANCH  32  33
ENDBRANCH  31  32
ENDBRANCH  26  27
ENDBRANCH   1  26
TORSDOF 8
