REMARK  Name = ZINC12883468
REMARK  9 active torsions:
REMARK  status: ('A' for Active; 'I' for Inactive)
REMARK    1  A    between atoms: C_1  and  C_2
REMARK    2  A    between atoms: C_4  and  C_31
REMARK    3  A    between atoms: C_5  and  C_30
REMARK    4  A    between atoms: C_6  and  S_9
REMARK    5  A    between atoms: C_7  and  C_8
REMARK    6  A    between atoms: S_9  and  N_12
REMARK    7  A    between atoms: N_15  and  C_18
REMARK    8  A    between atoms: C_18  and  C_20
REMARK    9  A    between atoms: C_18  and  C_27
REMARK                            x       y       z     vdW  Elec       q    Type
REMARK                         _______ _______ _______ _____ _____    ______ ____
ROOT
ATOM      1  N   UNL     1       0.993  -2.794   3.559  0.00  0.00    -0.174 NA
ATOM      2  C   UNL     1       1.589  -4.137   3.502  0.00  0.00    +0.125 C 
ATOM      3  C   UNL     1       3.018  -4.013   2.962  0.00  0.00    +0.102 C 
ATOM      4  N   UNL     1       3.761  -3.038   3.772  0.00  0.00    -0.285 NA
ATOM      5  C   UNL     1       3.168  -1.698   3.669  0.00  0.00    +0.102 C 
ATOM      6  C   UNL     1       1.747  -1.726   4.232  0.00  0.00    +0.125 C 
ENDROOT
BRANCH   1   7
ATOM      7  S   UNL     1      -0.486  -2.491   2.878  0.00  0.00    +0.061 S 
ATOM      8  O   UNL     1      -1.059  -1.419   3.612  0.00  0.00    -0.153 OA
ATOM      9  O   UNL     1      -1.132  -3.748   2.735  0.00  0.00    -0.153 OA
BRANCH   7  15
ATOM     10  C   UNL     1       0.554  -3.263  -2.186  0.00  0.00    +0.044 C 
ATOM     11  C   UNL     1       0.283  -2.297  -1.061  0.00  0.00    -0.045 A 
ATOM     12  C   UNL     1       0.263  -0.937  -1.308  0.00  0.00    +0.007 A 
ATOM     13  C   UNL     1       0.015  -0.052  -0.276  0.00  0.00    -0.045 A 
ATOM     14  C   UNL     1      -0.214  -0.526   1.002  0.00  0.00    -0.021 A 
ATOM     15  C   UNL     1      -0.195  -1.886   1.248  0.00  0.00    +0.112 A 
ATOM     16  C   UNL     1       0.049  -2.772   0.216  0.00  0.00    -0.021 A 
ATOM     17  C   UNL     1       0.065  -4.255   0.483  0.00  0.00    +0.046 C 
ATOM     18  C   UNL     1      -0.484   0.439   2.128  0.00  0.00    +0.046 C 
ATOM     19  C   UNL     1      -0.006   1.431  -0.544  0.00  0.00    +0.044 C 
ENDBRANCH   7  15
ENDBRANCH   1   7
BRANCH   4  20
ATOM     20  C   UNL     1       5.181  -3.015   3.398  0.00  0.00    +0.174 C 
BRANCH  20  21
ATOM     21  C   UNL     1       5.908  -2.005   4.248  0.00  0.00    -0.021 A 
ATOM     22  C   UNL     1       5.608  -1.889   5.593  0.00  0.00    +0.007 A 
ATOM     23  C   UNL     1       6.275  -0.964   6.373  0.00  0.00    +0.020 A 
ATOM     24  C   UNL     1       7.243  -0.152   5.808  0.00  0.00    +0.041 A 
ATOM     25  C   UNL     1       7.543  -0.269   4.463  0.00  0.00    +0.020 A 
ATOM     26  C   UNL     1       6.880  -1.199   3.685  0.00  0.00    +0.007 A 
ATOM     27 CL   UNL     1       8.080   1.011   6.787  0.00  0.00    -0.084 Cl
ENDBRANCH  20  21
BRANCH  20  28
ATOM     28  C   UNL     1       5.780  -4.380   3.617  0.00  0.00    +0.232 C 
ATOM     29  O   UNL     1       5.092  -5.283   4.043  0.00  0.00    -0.274 OA
ATOM     30  N   UNL     1       7.081  -4.598   3.340  0.00  0.00    -0.328 N 
ATOM     31  H   UNL     1       7.632  -3.876   2.999  0.00  0.00    +0.145 HD
ATOM     32  H   UNL     1       7.466  -5.477   3.481  0.00  0.00    +0.145 HD
ENDBRANCH  20  28
ENDBRANCH   4  20
TORSDOF 5
