REMARK  Name = ZINC49740003
REMARK  5 active torsions:
REMARK  status: ('A' for Active; 'I' for Inactive)
REMARK    1  A    between atoms: C_10  and  C_13
REMARK    2  A    between atoms: C_13  and  C_14
REMARK    3  A    between atoms: C_14  and  N_15
REMARK    4  A    between atoms: N_15  and  S_16
REMARK    5  A    between atoms: S_16  and  C_19
REMARK                            x       y       z     vdW  Elec       q    Type
REMARK                         _______ _______ _______ _____ _____    ______ ____
ROOT
ATOM      1  C   UNL     1       3.693  -1.677   2.103  0.00  0.00    +0.071 C 
ENDROOT
BRANCH   1  11
ATOM      2  C   UNL     1      -0.017   1.378   0.010  0.00  0.00    +0.002 A 
ATOM      3  C   UNL     1       1.169   2.090   0.002  0.00  0.00    +0.004 A 
ATOM      4  C   UNL     1       2.381   1.424  -0.019  0.00  0.00    +0.047 A 
ATOM      5  C   UNL     1       2.408   0.040  -0.030  0.00  0.00    +0.143 A 
ATOM      6  C   UNL     1       1.213  -0.677  -0.012  0.00  0.00    +0.076 A 
ATOM      7  C   UNL     1       0.002  -0.004   0.002  0.00  0.00    +0.027 A 
ATOM      8  N   UNL     1       1.250  -2.078   0.012  0.00  0.00    -0.280 N 
ATOM      9  C   UNL     1       2.425  -2.703   0.235  0.00  0.00    +0.258 C 
ATOM     10  O   UNL     1       2.498  -3.911   0.151  0.00  0.00    -0.271 OA
ATOM     11  C   UNL     1       3.647  -1.893   0.589  0.00  0.00    +0.260 C 
ATOM     12  O   UNL     1       3.593  -0.626  -0.070  0.00  0.00    -0.478 OA
ATOM     13  H   UNL     1       0.440  -2.592  -0.130  0.00  0.00    +0.155 HD
ENDBRANCH   1  11
BRANCH   1  14
ATOM     14  C   UNL     1       4.994  -0.965   2.477  0.00  0.00    +0.110 C 
BRANCH  14  15
ATOM     15  N   UNL     1       5.038  -0.758   3.927  0.00  0.00    -0.190 NA
ATOM     16  H   UNL     1       4.231  -0.857   4.456  0.00  0.00    +0.148 HD
BRANCH  15  17
ATOM     17  S   UNL     1       6.466  -0.354   4.663  0.00  0.00    +0.060 S 
ATOM     18  O   UNL     1       6.180  -0.198   6.046  0.00  0.00    -0.153 OA
ATOM     19  O   UNL     1       7.442  -1.270   4.185  0.00  0.00    -0.153 OA
BRANCH  17  20
ATOM     20  C   UNL     1       6.930   1.236   4.062  0.00  0.00    +0.123 A 
ATOM     21  C   UNL     1       6.984   2.313   4.927  0.00  0.00    +0.030 A 
ATOM     22  C   UNL     1       7.348   3.560   4.456  0.00  0.00    +0.002 A 
ATOM     23  C   UNL     1       7.659   3.732   3.119  0.00  0.00    +0.002 A 
ATOM     24  C   UNL     1       7.606   2.655   2.254  0.00  0.00    +0.022 A 
ATOM     25  C   UNL     1       7.247   1.405   2.726  0.00  0.00    +0.067 A 
ATOM     26 CL   UNL     1       7.187   0.052   1.641  0.00  0.00    -0.082 Cl
ENDBRANCH  17  20
ENDBRANCH  15  17
ENDBRANCH  14  15
ENDBRANCH   1  14
TORSDOF 5
