REMARK  Name = ZINC35554220
REMARK  7 active torsions:
REMARK  status: ('A' for Active; 'I' for Inactive)
REMARK    1  A    between atoms: C_1  and  C_2
REMARK    2  A    between atoms: C_2  and  C_3
REMARK    3  A    between atoms: C_3  and  N_4
REMARK    4  A    between atoms: C_12  and  C_13
REMARK    5  A    between atoms: C_16  and  C_18
REMARK    6  A    between atoms: N_20  and  N_21
REMARK    7  A    between atoms: C_22  and  C_24
REMARK                            x       y       z     vdW  Elec       q    Type
REMARK                         _______ _______ _______ _____ _____    ______ ____
ROOT
ATOM      1  C   UNL     1       2.919  -2.291  -0.039  0.00  0.00    +0.055 A 
ATOM      2  C   UNL     1       4.064  -2.990  -0.395  0.00  0.00    +0.020 A 
ATOM      3  C   UNL     1       5.059  -2.327  -1.055  0.00  0.00    +0.021 A 
ATOM      4  C   UNL     1       4.886  -0.981  -1.343  0.00  0.00    +0.076 A 
ATOM      5  S   UNL     1       3.267  -0.656  -0.666  0.00  0.00    -0.081 S 
ENDROOT
BRANCH   1  14
ATOM      6  N   UNL     1       0.762  -1.976   1.234  0.00  0.00    -0.323 N 
ATOM      7  C   UNL     1      -0.186  -2.813   1.788  0.00  0.00    +0.069 A 
ATOM      8  C   UNL     1      -1.371  -2.601   2.480  0.00  0.00    +0.028 A 
ATOM      9  C   UNL     1      -2.111  -3.680   2.915  0.00  0.00    +0.002 A 
ATOM     10  C   UNL     1      -1.679  -4.976   2.665  0.00  0.00    +0.002 A 
ATOM     11  C   UNL     1      -0.517  -5.205   1.986  0.00  0.00    +0.030 A 
ATOM     12  C   UNL     1       0.252  -4.125   1.535  0.00  0.00    +0.090 A 
ATOM     13  N   UNL     1       1.414  -4.037   0.857  0.00  0.00    -0.227 NA
ATOM     14  C   UNL     1       1.722  -2.775   0.668  0.00  0.00    +0.149 A 
BRANCH   6  15
ATOM     15  C   UNL     1       0.742  -0.511   1.242  0.00  0.00    +0.123 C 
BRANCH  15  17
ATOM     16  C   UNL     1      -0.019   1.526   0.010  0.00  0.00    +0.005 C 
ATOM     17  C   UNL     1       0.002  -0.004   0.002  0.00  0.00    +0.018 C 
ENDBRANCH  15  17
ENDBRANCH   6  15
ENDBRANCH   1  14
BRANCH   4  18
ATOM     18  C   UNL     1       5.798  -0.062  -2.034  0.00  0.00    +0.267 C 
ATOM     19  O   UNL     1       6.873  -0.462  -2.439  0.00  0.00    -0.268 OA
ATOM     20  N   UNL     1       5.445   1.226  -2.219  0.00  0.00    -0.230 N 
ATOM     21  H   UNL     1       4.588   1.544  -1.896  0.00  0.00    +0.173 HD
BRANCH  20  22
ATOM     22  N   UNL     1       6.315   2.103  -2.879  0.00  0.00    -0.230 N 
ATOM     23  C   UNL     1       5.962   3.390  -3.064  0.00  0.00    +0.260 C 
ATOM     24  O   UNL     1       4.888   3.790  -2.659  0.00  0.00    -0.269 OA
ATOM     25  H   UNL     1       7.173   1.784  -3.202  0.00  0.00    +0.173 HD
BRANCH  23  26
ATOM     26  C   UNL     1       6.880   4.316  -3.760  0.00  0.00    +0.038 A 
ATOM     27  C   UNL     1       8.112   3.859  -4.231  0.00  0.00    +0.014 A 
ATOM     28  C   UNL     1       8.965   4.727  -4.879  0.00  0.00    +0.016 A 
ATOM     29  C   UNL     1       8.602   6.051  -5.063  0.00  0.00    +0.018 A 
ATOM     30  C   UNL     1       7.381   6.511  -4.597  0.00  0.00    +0.016 A 
ATOM     31  C   UNL     1       6.517   5.650  -3.953  0.00  0.00    +0.014 A 
ATOM     32 BR   UNL     1       9.777   7.235  -5.952  0.00  0.00    -0.050 Br
ENDBRANCH  23  26
ENDBRANCH  20  22
ENDBRANCH   4  18
TORSDOF 6
