REMARK  Name = ZINC39687243
REMARK  9 active torsions:
REMARK  status: ('A' for Active; 'I' for Inactive)
REMARK    1  A    between atoms: C_1  and  C_2
REMARK    2  A    between atoms: C_2  and  C_3
REMARK    3  A    between atoms: C_3  and  C_4
REMARK    4  A    between atoms: C_4  and  C_5
REMARK    5  A    between atoms: C_9  and  C_18
REMARK    6  A    between atoms: N_20  and  C_21
REMARK    7  A    between atoms: C_21  and  C_23
REMARK    8  A    between atoms: C_21  and  C_30
REMARK    9  A    between atoms: C_23  and  C_24
REMARK                            x       y       z     vdW  Elec       q    Type
REMARK                         _______ _______ _______ _____ _____    ______ ____
ROOT
ATOM      1  C   UNL     1       3.161  -5.768   0.706  0.00  0.00    +0.219 C 
ATOM      2  O   UNL     1       3.658  -6.767   0.231  0.00  0.00    -0.275 OA
ATOM      3  N   UNL     1       3.363  -4.571   0.121  0.00  0.00    -0.303 N 
ATOM      4  H   UNL     1       2.966  -3.772   0.501  0.00  0.00    +0.149 HD
ENDROOT
BRANCH   1   9
ATOM      5  C   UNL     1       0.933  -2.519   1.952  0.00  0.00    +0.216 C 
ATOM      6  O   UNL     1       1.264  -1.525   2.563  0.00  0.00    -0.276 OA
ATOM      7  N   UNL     1       1.311  -3.736   2.391  0.00  0.00    -0.300 N 
ATOM      8  C   UNL     1       1.014  -5.054   1.783  0.00  0.00    +0.121 C 
ATOM      9  C   UNL     1       2.318  -5.865   1.951  0.00  0.00    +0.100 C 
ATOM     10  C   UNL     1       3.038  -5.208   3.141  0.00  0.00    -0.004 C 
ATOM     11  C   UNL     1       2.124  -4.058   3.589  0.00  0.00    +0.115 C 
ATOM     12  C   UNL     1       4.391  -4.659   2.702  0.00  0.00    -0.010 C 
ATOM     13  C   UNL     1       5.112  -4.061   3.914  0.00  0.00    -0.082 C 
ATOM     14  N   UNL     1       5.291  -5.098   4.938  0.00  0.00    +0.379 N 
ATOM     15  C   UNL     1       3.983  -5.555   5.422  0.00  0.00    -0.082 C 
ATOM     16  C   UNL     1       3.214  -6.215   4.274  0.00  0.00    -0.010 C 
ATOM     17  H   UNL     1       5.793  -5.878   4.542  0.00  0.00    -0.086 HD
ATOM     18  H   UNL     1       5.819  -4.718   5.710  0.00  0.00    -0.086 HD
BRANCH   5  19
ATOM     19  C   UNL     1       0.100  -2.394   0.703  0.00  0.00    +0.096 C 
BRANCH  19  20
ATOM     20  C   UNL     1      -0.189  -0.917   0.428  0.00  0.00    +0.009 C 
BRANCH  20  22
ATOM     21  C   UNL     1      -1.323   0.687  -1.115  0.00  0.00    +0.004 C 
ATOM     22  C   UNL     1      -1.034  -0.790  -0.841  0.00  0.00    -0.003 C 
ENDBRANCH  20  22
ENDBRANCH  19  20
ENDBRANCH   5  19
ENDBRANCH   1   9
BRANCH   3  23
ATOM     23  C   UNL     1       4.183  -4.476  -1.089  0.00  0.00    +0.163 C 
BRANCH  23  24
ATOM     24  C   UNL     1       4.760  -3.088  -1.198  0.00  0.00    +0.236 C 
ATOM     25  O   UNL     1       4.237  -2.166  -0.609  0.00  0.00    -0.274 OA
ATOM     26  N   UNL     1       5.858  -2.871  -1.949  0.00  0.00    -0.300 N 
ATOM     27  C   UNL     1       6.562  -3.993  -2.586  0.00  0.00    +0.108 C 
ATOM     28  C   UNL     1       6.697  -3.703  -4.084  0.00  0.00    +0.019 C 
ATOM     29  C   UNL     1       7.374  -2.344  -4.278  0.00  0.00    +0.003 C 
ATOM     30  C   UNL     1       6.510  -1.248  -3.650  0.00  0.00    +0.019 C 
ATOM     31  C   UNL     1       6.369  -1.509  -2.152  0.00  0.00    +0.108 C 
ENDBRANCH  23  24
BRANCH  23  32
ATOM     32  C   UNL     1       3.316  -4.765  -2.316  0.00  0.00    +0.067 C 
BRANCH  32  33
ATOM     33  C   UNL     1       2.862  -6.201  -2.284  0.00  0.00    -0.045 A 
ATOM     34  C   UNL     1       3.633  -7.183  -2.878  0.00  0.00    +0.004 A 
ATOM     35  C   UNL     1       3.217  -8.501  -2.848  0.00  0.00    +0.000 A 
ATOM     36  C   UNL     1       2.030  -8.837  -2.224  0.00  0.00    +0.000 A 
ATOM     37  C   UNL     1       1.260  -7.856  -1.629  0.00  0.00    +0.000 A 
ATOM     38  C   UNL     1       1.678  -6.538  -1.655  0.00  0.00    +0.004 A 
ENDBRANCH  32  33
ENDBRANCH  23  32
ENDBRANCH   3  23
TORSDOF 8
