REMARK  Name = ZINC00959856
REMARK  4 active torsions:
REMARK  status: ('A' for Active; 'I' for Inactive)
REMARK    1  A    between atoms: C_4  and  C_7
REMARK    2  A    between atoms: C_7  and  S_8
REMARK    3  A    between atoms: S_8  and  C_9
REMARK    4  A    between atoms: C_20  and  C_22
REMARK                            x       y       z     vdW  Elec       q    Type
REMARK                         _______ _______ _______ _____ _____    ______ ____
ROOT
ATOM      1  C   UNL     1       5.740  -1.842  -1.482  0.00  0.00    +0.171 A 
ATOM      2  N   UNL     1       6.472  -2.258  -2.553  0.00  0.00    -0.302 N 
ATOM      3  H   UNL     1       6.153  -2.086  -3.453  0.00  0.00    +0.171 HD
ATOM      4  C   UNL     1       7.642  -2.905  -2.365  0.00  0.00    +0.258 A 
ATOM      5  O   UNL     1       8.307  -3.277  -3.318  0.00  0.00    -0.267 OA
ATOM      6  C   UNL     1       8.075  -3.145  -1.056  0.00  0.00    +0.069 A 
ATOM      7  C   UNL     1       7.291  -2.709  -0.002  0.00  0.00    +0.135 A 
ATOM      8  N   UNL     1       6.143  -2.067  -0.247  0.00  0.00    -0.208 NA
ATOM      9  N   UNL     1       7.699  -2.943   1.296  0.00  0.00    -0.302 N 
ATOM     10  C   UNL     1       8.624  -3.913   1.571  0.00  0.00    +0.017 C 
ATOM     11  C   UNL     1       9.440  -4.386   0.607  0.00  0.00    +0.024 C 
ATOM     12  C   UNL     1       9.368  -3.861  -0.805  0.00  0.00    +0.093 C 
ATOM     13  C   UNL     1      10.390  -5.384   0.888  0.00  0.00    +0.162 C 
ATOM     14  O   UNL     1      11.095  -5.806  -0.008  0.00  0.00    -0.292 OA
ATOM     15  C   UNL     1      10.552  -5.940   2.276  0.00  0.00    +0.080 C 
ATOM     16  C   UNL     1      10.139  -4.869   3.292  0.00  0.00    +0.014 C 
ATOM     17  C   UNL     1       8.703  -4.440   2.984  0.00  0.00    +0.051 C 
ATOM     18  H   UNL     1       7.326  -2.414   2.020  0.00  0.00    +0.153 HD
ENDROOT
BRANCH  12  19
ATOM     19  C   UNL     1      10.512  -2.907  -1.035  0.00  0.00    -0.032 A 
ATOM     20  C   UNL     1      10.630  -1.772  -0.255  0.00  0.00    +0.008 A 
ATOM     21  C   UNL     1      11.678  -0.894  -0.461  0.00  0.00    +0.050 A 
ATOM     22  C   UNL     1      12.612  -1.150  -1.452  0.00  0.00    +0.166 A 
ATOM     23  C   UNL     1      12.493  -2.293  -2.238  0.00  0.00    +0.167 A 
ATOM     24  C   UNL     1      11.444  -3.172  -2.021  0.00  0.00    +0.054 A 
ATOM     25  O   UNL     1      13.524  -2.318  -3.131  0.00  0.00    -0.453 OA
ATOM     26  C   UNL     1      14.043  -0.975  -3.157  0.00  0.00    +0.466 C 
ATOM     27  O   UNL     1      13.718  -0.458  -1.853  0.00  0.00    -0.453 OA
ENDBRANCH  12  19
BRANCH   1  28
ATOM     28  S   UNL     1       4.221  -0.993  -1.752  0.00  0.00    -0.083 S 
BRANCH  28  29
ATOM     29  C   UNL     1       3.711  -0.707  -0.039  0.00  0.00    +0.112 C 
BRANCH  29  33
ATOM     30  C   UNL     1      -0.017   1.378   0.010  0.00  0.00    +0.000 A 
ATOM     31  C   UNL     1       1.171   2.086   0.002  0.00  0.00    +0.000 A 
ATOM     32  C   UNL     1       2.377   1.411  -0.014  0.00  0.00    +0.004 A 
ATOM     33  C   UNL     1       2.396   0.029  -0.022  0.00  0.00    -0.037 A 
ATOM     34  C   UNL     1       1.208  -0.679  -0.014  0.00  0.00    +0.004 A 
ATOM     35  C   UNL     1       0.002  -0.004   0.002  0.00  0.00    +0.000 A 
ENDBRANCH  29  33
ENDBRANCH  28  29
ENDBRANCH   1  28
TORSDOF 4
