REMARK  Name = ZINC59227738
REMARK  11 active torsions:
REMARK  status: ('A' for Active; 'I' for Inactive)
REMARK    1  A    between atoms: C_1  and  C_2
REMARK    2  A    between atoms: C_2  and  O_3
REMARK    3  A    between atoms: O_3  and  C_4
REMARK    4  A    between atoms: C_6  and  C_19
REMARK    5  A    between atoms: C_9  and  O_10
REMARK    6  A    between atoms: O_10  and  C_11
REMARK    7  A    between atoms: C_11  and  C_12
REMARK    8  A    between atoms: C_21  and  C_28
REMARK    9  A    between atoms: C_22  and  C_27
REMARK   10  A    between atoms: N_30  and  C_31
REMARK   11  A    between atoms: C_31  and  C_32
REMARK                            x       y       z     vdW  Elec       q    Type
REMARK                         _______ _______ _______ _____ _____    ______ ____
ROOT
ATOM      1  C   UNL     1       0.613  -4.895   0.585  0.00  0.00    +0.139 C 
ATOM      2  C   UNL     1       1.037  -5.041   2.032  0.00  0.00    +0.055 C 
ATOM      3  C   UNL     1       1.240  -6.289   2.504  0.00  0.00    +0.017 C 
ATOM      4  N   UNL     1       1.068  -7.382   1.704  0.00  0.00    -0.300 N 
ATOM      5  C   UNL     1       0.695  -7.311   0.420  0.00  0.00    +0.135 C 
ATOM      6  S   UNL     1       0.516  -8.762  -0.472  0.00  0.00    -0.019 S 
ATOM      7  N   UNL     1       0.456  -6.136  -0.193  0.00  0.00    -0.315 N 
ATOM      8  C   UNL     1       1.663  -6.479   3.938  0.00  0.00    +0.061 C 
ATOM      9  H   UNL     1       1.226  -8.259   2.087  0.00  0.00    +0.154 HD
ATOM     10  H   UNL     1       0.185  -6.107  -1.124  0.00  0.00    +0.149 HD
ENDROOT
BRANCH   1  13
ATOM     11  C   UNL     1      -1.933  -2.113   0.345  0.00  0.00    +0.162 A 
ATOM     12  C   UNL     1      -0.724  -2.791   0.369  0.00  0.00    +0.055 A 
ATOM     13  C   UNL     1      -0.703  -4.160   0.558  0.00  0.00    -0.019 A 
ATOM     14  C   UNL     1      -1.885  -4.857   0.722  0.00  0.00    +0.009 A 
ATOM     15  C   UNL     1      -3.095  -4.187   0.697  0.00  0.00    +0.050 A 
ATOM     16  C   UNL     1      -3.123  -2.814   0.515  0.00  0.00    +0.162 A 
BRANCH  11  17
ATOM     17  O   UNL     1      -1.955  -0.766   0.160  0.00  0.00    -0.489 OA
BRANCH  17  19
ATOM     18  C   UNL     1      -0.917   1.387  -0.195  0.00  0.00    +0.048 C 
ATOM     19  C   UNL     1      -0.703  -0.124  -0.089  0.00  0.00    +0.226 C 
ENDBRANCH  17  19
ENDBRANCH  11  17
BRANCH  16  20
ATOM     20  O   UNL     1      -4.311  -2.153   0.497  0.00  0.00    -0.484 OA
BRANCH  20  21
ATOM     21  C   UNL     1      -5.492  -2.937   0.678  0.00  0.00    +0.267 C 
BRANCH  21  22
ATOM     22  C   UNL     1      -6.703  -2.041   0.629  0.00  0.00    +0.025 A 
ATOM     23  C   UNL     1      -6.549  -0.682   0.426  0.00  0.00    +0.010 A 
ATOM     24  C   UNL     1      -7.659   0.140   0.381  0.00  0.00    +0.001 A 
ATOM     25  C   UNL     1      -8.924  -0.395   0.539  0.00  0.00    +0.003 A 
ATOM     26  C   UNL     1      -9.080  -1.752   0.742  0.00  0.00    +0.039 A 
ATOM     27  C   UNL     1      -7.969  -2.578   0.782  0.00  0.00    +0.130 A 
ATOM     28  F   UNL     1      -8.121  -3.907   0.975  0.00  0.00    -0.205 F 
ENDBRANCH  21  22
ENDBRANCH  20  21
ENDBRANCH  16  20
ENDBRANCH   1  13
BRANCH   2  29
ATOM     29  C   UNL     1       1.215  -3.906   2.861  0.00  0.00    +0.244 C 
ATOM     30  O   UNL     1       2.239  -3.253   2.787  0.00  0.00    -0.270 OA
ATOM     31  N   UNL     1       0.250  -3.551   3.733  0.00  0.00    -0.307 N 
ATOM     32  H   UNL     1      -0.534  -4.110   3.842  0.00  0.00    +0.149 HD
BRANCH  31  33
ATOM     33  C   UNL     1       0.387  -2.319   4.514  0.00  0.00    +0.139 C 
BRANCH  33  34
ATOM     34  C   UNL     1      -0.757  -2.214   5.490  0.00  0.00    -0.030 A 
ATOM     35  C   UNL     1      -1.961  -1.669   5.086  0.00  0.00    +0.005 A 
ATOM     36  C   UNL     1      -3.010  -1.572   5.981  0.00  0.00    +0.000 A 
ATOM     37  C   UNL     1      -2.855  -2.020   7.279  0.00  0.00    +0.000 A 
ATOM     38  C   UNL     1      -1.651  -2.566   7.682  0.00  0.00    +0.000 A 
ATOM     39  C   UNL     1      -0.603  -2.667   6.787  0.00  0.00    +0.005 A 
ENDBRANCH  33  34
ENDBRANCH  31  33
ENDBRANCH   2  29
TORSDOF 9
