REMARK  Name = ZINC08996756
REMARK  7 active torsions:
REMARK  status: ('A' for Active; 'I' for Inactive)
REMARK    1  A    between atoms: N_3  and  C_6
REMARK    2  A    between atoms: C_6  and  C_7
REMARK    3  A    between atoms: C_7  and  C_8
REMARK    4  A    between atoms: C_8  and  N_45
REMARK    5  A    between atoms: C_9  and  C_10
REMARK    6  A    between atoms: C_9  and  N_45
REMARK    7  A    between atoms: C_11  and  O_25
REMARK                            x       y       z     vdW  Elec       q    Type
REMARK                         _______ _______ _______ _____ _____    ______ ____
ROOT
ATOM      1  C   UNL     1       2.396   1.428  -0.013  0.00  0.00    +0.021 A 
ATOM      2  C   UNL     1       1.176   2.084   0.002  0.00  0.00    +0.140 A 
ATOM      3  C   UNL     1      -0.016   1.361   0.009  0.00  0.00    +0.083 A 
ATOM      4  C   UNL     1       0.002  -0.004   0.002  0.00  0.00    +0.035 A 
ATOM      5  C   UNL     1       1.226  -0.682  -0.013  0.00  0.00    +0.023 A 
ATOM      6  C   UNL     1       2.433   0.042  -0.022  0.00  0.00    +0.144 A 
ATOM      7  O   UNL     1       3.610  -0.619  -0.039  0.00  0.00    -0.422 OA
ATOM      8  C   UNL     1       3.662  -1.959  -0.047  0.00  0.00    +0.341 A 
ATOM      9  O   UNL     1       4.748  -2.509  -0.064  0.00  0.00    -0.245 OA
ATOM     10  C   UNL     1       2.491  -2.750  -0.037  0.00  0.00    +0.041 A 
ATOM     11  C   UNL     1       1.276  -2.146  -0.020  0.00  0.00    -0.027 A 
ATOM     12  C   UNL     1       0.175  -3.180  -0.010  0.00  0.00    +0.036 C 
ATOM     13  C   UNL     1       0.865  -4.497   0.411  0.00  0.00    +0.010 C 
ATOM     14  C   UNL     1       2.321  -4.254  -0.043  0.00  0.00    +0.043 C 
ATOM     15 CL   UNL     1      -1.535   2.204   0.021  0.00  0.00    -0.080 Cl
ENDROOT
BRANCH   2  16
ATOM     16  O   UNL     1       1.142   3.441   0.010  0.00  0.00    -0.505 OA
ATOM     17  H   UNL     1       1.140   3.829   0.895  0.00  0.00    +0.292 HD
ENDBRANCH   2  16
BRANCH   1  18
ATOM     18  C   UNL     1       3.679   2.218  -0.022  0.00  0.00    -0.039 C 
BRANCH  18  19
ATOM     19  N   UNL     1       4.077   2.480  -1.418  0.00  0.00    +0.382 N 
ATOM     20  H   UNL     1       4.214   1.586  -1.904  0.00  0.00    -0.085 HD
ATOM     21  H   UNL     1       3.336   3.014  -1.887  0.00  0.00    -0.085 HD
BRANCH  19  22
ATOM     22  C   UNL     1       5.332   3.253  -1.457  0.00  0.00    -0.080 C 
BRANCH  22  23
ATOM     23  C   UNL     1       5.719   3.509  -2.915  0.00  0.00    +0.003 C 
BRANCH  23  24
ATOM     24  C   UNL     1       7.021   4.311  -2.964  0.00  0.00    +0.121 C 
BRANCH  24  27
ATOM     25  C   UNL     1       8.257   4.350  -6.351  0.00  0.00    +0.130 A 
ATOM     26  C   UNL     1       8.178   3.756  -5.144  0.00  0.00    +0.106 A 
ATOM     27  N   UNL     1       7.391   4.556  -4.360  0.00  0.00    -0.337 N 
ATOM     28  C   UNL     1       7.024   5.616  -5.112  0.00  0.00    +0.199 A 
ATOM     29  N   UNL     1       7.545   5.486  -6.301  0.00  0.00    -0.244 NA
ENDBRANCH  24  27
ENDBRANCH  23  24
ENDBRANCH  22  23
ENDBRANCH  19  22
ENDBRANCH  18  19
ENDBRANCH   1  18
TORSDOF 7
