REMARK  Name = ZINC31056448
REMARK  5 active torsions:
REMARK  status: ('A' for Active; 'I' for Inactive)
REMARK    1  A    between atoms: C_3  and  C_6
REMARK    2  A    between atoms: C_8  and  C_11
REMARK    3  A    between atoms: C_11  and  N_12
REMARK    4  A    between atoms: C_16  and  C_19
REMARK    5  A    between atoms: N_21  and  C_22
REMARK                            x       y       z     vdW  Elec       q    Type
REMARK                         _______ _______ _______ _____ _____    ______ ____
ROOT
ATOM      1  N   UNL     1      -1.756   5.149   1.433  0.00  0.00    +0.386 N 
ATOM      2  C   UNL     1      -0.528   5.082   2.235  0.00  0.00    -0.078 C 
ATOM      3  C   UNL     1      -0.860   5.363   3.702  0.00  0.00    -0.018 C 
ATOM      4  C   UNL     1      -1.493   6.752   3.820  0.00  0.00    +0.009 C 
ATOM      5  C   UNL     1      -2.743   6.811   2.938  0.00  0.00    +0.058 C 
ATOM      6  C   UNL     1      -2.357   6.488   1.492  0.00  0.00    -0.065 C 
ATOM      7  H   UNL     1      -2.478   4.439   1.863  0.00  0.00    -0.081 HD
ENDROOT
BRANCH   5   8
ATOM      8  C   UNL     1      -3.339   8.194   3.002  0.00  0.00    +0.215 C 
ATOM      9  O   UNL     1      -3.445   8.856   1.991  0.00  0.00    -0.276 OA
ATOM     10  N   UNL     1      -3.755   8.694   4.182  0.00  0.00    -0.312 N 
ATOM     11  H   UNL     1      -3.659   8.093   5.099  0.00  0.00    +0.149 HD
BRANCH  10  12
ATOM     12  C   UNL     1      -4.335  10.038   4.245  0.00  0.00    +0.076 C 
ATOM     13  C   UNL     1      -3.229  11.091   4.489  0.00  0.00    +0.026 C 
ATOM     14  C   UNL     1      -3.612  11.755   5.847  0.00  0.00    -0.009 C 
ATOM     15  C   UNL     1      -4.888  12.591   5.527  0.00  0.00    +0.004 C 
ATOM     16  C   UNL     1      -5.994  11.538   5.282  0.00  0.00    +0.005 C 
ATOM     17  C   UNL     1      -5.280  10.165   5.478  0.00  0.00    +0.010 C 
ATOM     18  C   UNL     1      -4.246  10.532   6.600  0.00  0.00    +0.009 C 
ENDBRANCH  10  12
ENDBRANCH   5   8
BRANCH   1  19
ATOM     19  C   UNL     1      -1.500   4.749   0.043  0.00  0.00    +0.022 C 
BRANCH  19  22
ATOM     20  C   UNL     1      -0.018   1.473   0.010  0.00  0.00    +0.209 A 
ATOM     21  N   UNL     1      -1.118   2.263   0.019  0.00  0.00    -0.192 NA
ATOM     22  C   UNL     1      -0.668   3.492   0.027  0.00  0.00    +0.211 A 
ATOM     23  O   UNL     1       0.667   3.425   0.014  0.00  0.00    -0.340 OA
ATOM     24  N   UNL     1       1.025   2.266   0.004  0.00  0.00    -0.056 NA
BRANCH  20  27
ATOM     25  C   UNL     1       0.849  -2.210  -0.017  0.00  0.00    +0.008 A 
ATOM     26  C   UNL     1       1.077  -0.853  -0.018  0.00  0.00    +0.019 A 
ATOM     27  C   UNL     1       0.002  -0.004   0.002  0.00  0.00    +0.060 A 
ATOM     28  S   UNL     1      -1.369  -1.148   0.008  0.00  0.00    -0.093 S 
ATOM     29  C   UNL     1      -0.430  -2.666  -0.009  0.00  0.00    +0.046 A 
ENDBRANCH  20  27
ENDBRANCH  19  22
ENDBRANCH   1  19
TORSDOF 5
