REMARK  Name = ZINC09149273
REMARK  10 active torsions:
REMARK  status: ('A' for Active; 'I' for Inactive)
REMARK    1  A    between atoms: C_1  and  C_2
REMARK    2  A    between atoms: N_11  and  N_25
REMARK    3  A    between atoms: C_12  and  C_14
REMARK    4  A    between atoms: C_26  and  C_27
REMARK    5  A    between atoms: C_29  and  O_37
REMARK    6  A    between atoms: C_30  and  O_35
REMARK    7  A    between atoms: C_31  and  O_33
REMARK    8  A    between atoms: O_33  and  C_34
REMARK    9  A    between atoms: O_35  and  C_36
REMARK   10  A    between atoms: O_37  and  C_38
REMARK                            x       y       z     vdW  Elec       q    Type
REMARK                         _______ _______ _______ _____ _____    ______ ____
ROOT
ATOM      1  C   UNL     1      -1.816  15.730   1.364  0.00  0.00    +0.044 C 
ATOM      2  C   UNL     1      -1.635  14.241   1.224  0.00  0.00    -0.049 A 
ATOM      3  C   UNL     1      -0.557  13.606   1.825  0.00  0.00    +0.005 A 
ATOM      4  C   UNL     1      -0.369  12.254   1.713  0.00  0.00    +0.029 A 
ATOM      5  C   UNL     1      -1.276  11.457   0.976  0.00  0.00    +0.080 A 
ATOM      6  C   UNL     1      -2.361  12.137   0.378  0.00  0.00    +0.041 A 
ATOM      7  C   UNL     1      -2.541  13.492   0.495  0.00  0.00    +0.020 A 
ATOM      8  S   UNL     1      -3.231  10.818  -0.435  0.00  0.00    -0.050 S 
ATOM      9  C   UNL     1      -2.143   9.491   0.061  0.00  0.00    +0.189 A 
ATOM     10  N   UNL     1      -1.236  10.123   0.770  0.00  0.00    -0.223 NA
ATOM     11  N   UNL     1      -2.230   8.139  -0.232  0.00  0.00    -0.133 N 
ATOM     12  C   UNL     1      -1.246   7.301   0.150  0.00  0.00    +0.285 C 
ATOM     13  O   UNL     1      -0.283   7.730   0.750  0.00  0.00    -0.269 OA
ENDROOT
BRANCH  12  14
ATOM     14  C   UNL     1      -1.341   5.831  -0.168  0.00  0.00    +0.298 C 
ATOM     15  C   UNL     1      -2.527   5.214   0.584  0.00  0.00    +0.283 C 
ATOM     16  O   UNL     1      -2.580   3.818   0.271  0.00  0.00    -0.484 OA
ATOM     17  C   UNL     1      -1.404   3.134   0.326  0.00  0.00    +0.162 A 
ATOM     18  C   UNL     1      -1.425   1.749   0.389  0.00  0.00    +0.049 A 
ATOM     19  C   UNL     1      -0.240   1.041   0.448  0.00  0.00    +0.004 A 
ATOM     20  C   UNL     1       0.970   1.710   0.433  0.00  0.00    +0.004 A 
ATOM     21  C   UNL     1       0.997   3.091   0.367  0.00  0.00    +0.049 A 
ATOM     22  C   UNL     1      -0.189   3.808   0.314  0.00  0.00    +0.163 A 
ATOM     23  O   UNL     1      -0.146   5.167   0.257  0.00  0.00    -0.472 OA
ENDBRANCH  12  14
BRANCH  11  24
ATOM     24  N   UNL     1      -3.342   7.643  -0.925  0.00  0.00    -0.178 NA
ATOM     25  C   UNL     1      -3.549   7.995  -2.157  0.00  0.00    +0.139 C 
BRANCH  25  26
ATOM     26  C   UNL     1      -4.777   7.566  -2.850  0.00  0.00    +0.002 A 
ATOM     27  C   UNL     1      -5.717   6.775  -2.184  0.00  0.00    +0.059 A 
ATOM     28  C   UNL     1      -6.871   6.379  -2.836  0.00  0.00    +0.166 A 
ATOM     29  C   UNL     1      -7.091   6.758  -4.157  0.00  0.00    +0.204 A 
ATOM     30  C   UNL     1      -6.154   7.540  -4.825  0.00  0.00    +0.166 A 
ATOM     31  C   UNL     1      -5.000   7.944  -4.177  0.00  0.00    +0.059 A 
BRANCH  30  32
ATOM     32  O   UNL     1      -6.372   7.908  -6.116  0.00  0.00    -0.491 OA
ATOM     33  C   UNL     1      -5.369   8.711  -6.740  0.00  0.00    +0.277 C 
ENDBRANCH  30  32
BRANCH  29  34
ATOM     34  O   UNL     1      -8.224   6.361  -4.796  0.00  0.00    -0.488 OA
ATOM     35  C   UNL     1      -8.170   5.120  -5.502  0.00  0.00    +0.277 C 
ENDBRANCH  29  34
BRANCH  28  36
ATOM     36  O   UNL     1      -7.789   5.614  -2.186  0.00  0.00    -0.491 OA
ATOM     37  C   UNL     1      -7.499   5.263  -0.832  0.00  0.00    +0.277 C 
ENDBRANCH  28  36
ENDBRANCH  25  26
ENDBRANCH  11  24
TORSDOF 6
