REMARK  Name = ZINC10315665
REMARK  9 active torsions:
REMARK  status: ('A' for Active; 'I' for Inactive)
REMARK    1  A    between atoms: C_4  and  N_7
REMARK    2  A    between atoms: C_8  and  S_12
REMARK    3  A    between atoms: S_12  and  C_13
REMARK    4  A    between atoms: C_13  and  C_14
REMARK    5  A    between atoms: C_14  and  N_55
REMARK    6  A    between atoms: C_15  and  C_16
REMARK    7  A    between atoms: C_15  and  N_55
REMARK    8  A    between atoms: N_18  and  C_25
REMARK    9  A    between atoms: C_25  and  C_26
REMARK                            x       y       z     vdW  Elec       q    Type
REMARK                         _______ _______ _______ _____ _____    ______ ____
ROOT
ATOM      1  C   UNL     1      -0.741   6.409   0.042  0.00  0.00    -0.045 C 
ENDROOT
BRANCH   1   2
ATOM      2  C   UNL     1       0.245   5.269   0.027  0.00  0.00    -0.039 A 
ATOM      3  C   UNL     1       1.583   5.371   0.015  0.00  0.00    +0.089 A 
ATOM      4  N   UNL     1       2.147   4.124   0.003  0.00  0.00    -0.342 N 
ATOM      5  C   UNL     1       1.159   3.165   0.007  0.00  0.00    +0.050 A 
ATOM      6  C   UNL     1      -0.075   3.840   0.022  0.00  0.00    +0.001 A 
ATOM      7  C   UNL     1      -1.267   3.112   0.030  0.00  0.00    +0.010 A 
ATOM      8  C   UNL     1      -1.228   1.746   0.017  0.00  0.00    +0.001 A 
ATOM      9  C   UNL     1      -0.013   1.076   0.008  0.00  0.00    +0.002 A 
ATOM     10  C   UNL     1       1.175   1.774   0.000  0.00  0.00    +0.026 A 
BRANCH   4  11
ATOM     11  C   UNL     1       3.586   3.851  -0.012  0.00  0.00    +0.158 C 
BRANCH  11  12
ATOM     12  C   UNL     1       4.043   3.643  -1.433  0.00  0.00    -0.009 A 
ATOM     13  C   UNL     1       4.135   2.363  -1.948  0.00  0.00    +0.008 A 
ATOM     14  C   UNL     1       4.548   2.172  -3.253  0.00  0.00    +0.020 A 
ATOM     15  C   UNL     1       4.882   3.260  -4.040  0.00  0.00    +0.042 A 
ATOM     16  C   UNL     1       4.796   4.540  -3.523  0.00  0.00    +0.040 A 
ATOM     17  C   UNL     1       4.376   4.731  -2.218  0.00  0.00    +0.047 A 
ATOM     18 CL   UNL     1       4.267   6.337  -1.568  0.00  0.00    -0.083 Cl
ATOM     19 CL   UNL     1       5.409   3.019  -5.677  0.00  0.00    -0.083 Cl
ENDBRANCH  11  12
ENDBRANCH   4  11
ENDBRANCH   1   2
BRANCH   1  20
ATOM     20  N   UNL     1      -1.227   6.609   1.420  0.00  0.00    +0.382 N 
ATOM     21  H   UNL     1      -1.683   5.749   1.747  0.00  0.00    -0.085 HD
ATOM     22  H   UNL     1      -0.431   6.828   2.031  0.00  0.00    -0.085 HD
BRANCH  20  23
ATOM     23  C   UNL     1      -2.195   7.721   1.466  0.00  0.00    -0.071 C 
BRANCH  23  24
ATOM     24  C   UNL     1      -2.681   7.904   2.905  0.00  0.00    +0.058 C 
BRANCH  24  25
ATOM     25  S   UNL     1      -3.870   9.267   2.971  0.00  0.00    -0.086 S 
BRANCH  25  27
ATOM     26  N   UNL     1      -5.110  10.090   5.332  0.00  0.00    -0.187 N 
ATOM     27  C   UNL     1      -4.253   9.256   4.691  0.00  0.00    +0.214 A 
ATOM     28  N   UNL     1      -3.756   8.442   5.598  0.00  0.00    -0.101 NA
ATOM     29  N   UNL     1      -4.246   8.706   6.755  0.00  0.00    -0.022 NA
ATOM     30  N   UNL     1      -5.076   9.689   6.679  0.00  0.00    -0.038 NA
BRANCH  26  34
ATOM     31  C   UNL     1      -7.364  13.176   3.665  0.00  0.00    +0.000 A 
ATOM     32  C   UNL     1      -7.881  12.429   4.708  0.00  0.00    +0.002 A 
ATOM     33  C   UNL     1      -7.136  11.406   5.262  0.00  0.00    +0.028 A 
ATOM     34  C   UNL     1      -5.868  11.128   4.771  0.00  0.00    +0.070 A 
ATOM     35  C   UNL     1      -5.349  11.883   3.728  0.00  0.00    +0.028 A 
ATOM     36  C   UNL     1      -6.101  12.901   3.174  0.00  0.00    +0.002 A 
ENDBRANCH  26  34
ENDBRANCH  25  27
ENDBRANCH  24  25
ENDBRANCH  23  24
ENDBRANCH  20  23
ENDBRANCH   1  20
TORSDOF 9
