REMARK  Name = ZINC04147184
REMARK  11 active torsions:
REMARK  status: ('A' for Active; 'I' for Inactive)
REMARK    1  A    between atoms: C_1  and  C_2
REMARK    2  A    between atoms: N_9  and  C_10
REMARK    3  A    between atoms: C_12  and  O_18
REMARK    4  A    between atoms: C_15  and  O_16
REMARK    5  A    between atoms: O_16  and  C_17
REMARK    6  A    between atoms: O_18  and  C_19
REMARK    7  A    between atoms: C_21  and  C_42
REMARK    8  A    between atoms: C_24  and  O_41
REMARK    9  A    between atoms: C_26  and  C_30
REMARK   10  A    between atoms: C_30  and  C_32
REMARK   11  A    between atoms: C_30  and  C_33
REMARK                            x       y       z     vdW  Elec       q    Type
REMARK                         _______ _______ _______ _____ _____    ______ ____
ROOT
ATOM      1  C   UNL     1       1.458   2.723  -0.371  0.00  0.00    +0.014 C 
ATOM      2  C   UNL     1       0.065   2.099  -0.467  0.00  0.00    +0.042 C 
ATOM      3  C   UNL     1      -0.459   2.246  -1.888  0.00  0.00    +0.057 A 
ATOM      4  C   UNL     1      -1.756   2.581  -2.104  0.00  0.00    +0.015 A 
ATOM      5  S   UNL     1      -1.860   2.618  -3.873  0.00  0.00    -0.057 S 
ATOM      6  C   UNL     1      -0.204   2.196  -4.192  0.00  0.00    +0.163 A 
ATOM      7  N   UNL     1       0.286   2.062  -2.977  0.00  0.00    -0.229 NA
ATOM      8  N   UNL     1       0.436   2.039  -5.412  0.00  0.00    -0.291 N 
ATOM      9  C   UNL     1      -2.809   2.847  -1.087  0.00  0.00    +0.051 C 
ATOM     10  C   UNL     1      -2.321   2.342   0.285  0.00  0.00    -0.022 C 
ATOM     11  C   UNL     1      -0.883   2.813   0.505  0.00  0.00    +0.033 C 
ATOM     12  C   UNL     1      -0.426   2.470   1.927  0.00  0.00    +0.123 C 
ATOM     13  C   UNL     1      -1.357   3.110   2.954  0.00  0.00    +0.029 C 
ATOM     14  C   UNL     1      -2.772   2.563   2.746  0.00  0.00    +0.007 C 
ATOM     15  C   UNL     1      -3.246   2.948   1.346  0.00  0.00    +0.008 C 
ATOM     16  C   UNL     1      -2.397   0.815   0.337  0.00  0.00    +0.012 C 
ATOM     17  H   UNL     1       1.348   1.710  -5.442  0.00  0.00    +0.154 HD
ENDROOT
BRANCH   8  18
ATOM     18  C   UNL     1      -0.234   2.356  -6.600  0.00  0.00    +0.078 A 
ATOM     19  C   UNL     1      -1.214   3.338  -6.604  0.00  0.00    +0.072 A 
ATOM     20  C   UNL     1      -1.875   3.650  -7.782  0.00  0.00    +0.122 A 
ATOM     21  C   UNL     1      -1.558   2.980  -8.955  0.00  0.00    +0.049 A 
ATOM     22  C   UNL     1      -0.582   2.001  -8.953  0.00  0.00    +0.051 A 
ATOM     23  C   UNL     1       0.087   1.690  -7.781  0.00  0.00    +0.141 A 
BRANCH  23  24
ATOM     24  O   UNL     1       1.052   0.731  -7.781  0.00  0.00    -0.493 OA
ATOM     25  C   UNL     1       1.328   0.089  -9.028  0.00  0.00    +0.277 C 
ENDBRANCH  23  24
BRANCH  20  26
ATOM     26  O   UNL     1      -2.836   4.612  -7.788  0.00  0.00    -0.495 OA
ATOM     27  C   UNL     1      -3.477   4.882  -9.036  0.00  0.00    +0.277 C 
ENDBRANCH  20  26
ENDBRANCH   8  18
BRANCH  13  28
ATOM     28  C   UNL     1      -0.877   2.767   4.366  0.00  0.00    +0.078 C 
ATOM     29  C   UNL     1      -1.011   1.260   4.598  0.00  0.00    +0.017 C 
BRANCH  28  30
ATOM     30  C   UNL     1      -1.716   3.507   5.376  0.00  0.00    +0.219 C 
ATOM     31  O   UNL     1      -2.660   2.955   5.901  0.00  0.00    -0.275 OA
ATOM     32  N   UNL     1      -1.417   4.782   5.695  0.00  0.00    -0.300 N 
ATOM     33  C   UNL     1      -0.349   5.476   4.975  0.00  0.00    +0.118 C 
ATOM     34  C   UNL     1      -0.955   6.633   4.163  0.00  0.00    +0.088 C 
ATOM     35  S   UNL     1      -1.849   7.735   5.301  0.00  0.00    -0.158 S 
ATOM     36  C   UNL     1      -2.979   6.605   6.168  0.00  0.00    +0.088 C 
ATOM     37  C   UNL     1      -2.162   5.453   6.762  0.00  0.00    +0.118 C 
ENDBRANCH  28  30
ENDBRANCH  13  28
BRANCH  12  38
ATOM     38  O   UNL     1       0.903   2.954   2.127  0.00  0.00    -0.391 OA
ATOM     39  H   UNL     1       1.297   2.686   2.969  0.00  0.00    +0.210 HD
ENDBRANCH  12  38
TORSDOF 6
