REMARK  Name = ZINC00925495
REMARK  11 active torsions:
REMARK  status: ('A' for Active; 'I' for Inactive)
REMARK    1  A    between atoms: C_1  and  C_2
REMARK    2  A    between atoms: C_6  and  C_8
REMARK    3  A    between atoms: C_8  and  C_9
REMARK    4  A    between atoms: C_9  and  N_10
REMARK    5  A    between atoms: N_10  and  C_11
REMARK    6  A    between atoms: N_10  and  S_26
REMARK    7  A    between atoms: C_11  and  C_12
REMARK    8  A    between atoms: C_16  and  O_24
REMARK    9  A    between atoms: O_24  and  C_25
REMARK   10  A    between atoms: S_26  and  C_29
REMARK   11  A    between atoms: C_30  and  C_38
REMARK                            x       y       z     vdW  Elec       q    Type
REMARK                         _______ _______ _______ _____ _____    ______ ____
ROOT
ATOM      1  N   UNL     1       0.325   7.680  -1.073  0.00  0.00    -0.172 NA
ENDROOT
BRANCH   1   2
ATOM      2  S   UNL     1       1.415   8.808  -1.604  0.00  0.00    +0.064 S 
ATOM      3  O   UNL     1       1.010  10.054  -1.053  0.00  0.00    -0.153 OA
ATOM      4  O   UNL     1       2.707   8.261  -1.382  0.00  0.00    -0.153 OA
BRANCH   2   5
ATOM      5  C   UNL     1       1.218   8.942  -3.350  0.00  0.00    +0.136 A 
ATOM      6  C   UNL     1       0.416   9.902  -3.869  0.00  0.00    -0.022 A 
ATOM      7  C   UNL     1       0.237  10.037  -5.246  0.00  0.00    +0.007 A 
ATOM      8  C   UNL     1       0.857   9.215  -6.125  0.00  0.00    +0.031 A 
ATOM      9  C   UNL     1       1.713   8.186  -5.652  0.00  0.00    +0.102 A 
ATOM     10  C   UNL     1       1.904   8.047  -4.212  0.00  0.00    +0.126 A 
ATOM     11  N   UNL     1       2.732   7.049  -3.911  0.00  0.00    -0.189 NA
ATOM     12  S   UNL     1       3.176   6.421  -5.276  0.00  0.00    +0.117 S 
ATOM     13  N   UNL     1       2.409   7.282  -6.338  0.00  0.00    -0.191 NA
ATOM     14  C   UNL     1      -0.299  10.847  -2.938  0.00  0.00    +0.046 C 
ENDBRANCH   2   5
ENDBRANCH   1   2
BRANCH   1  15
ATOM     15  C   UNL     1       0.680   6.259  -1.081  0.00  0.00    +0.114 C 
BRANCH  15  16
ATOM     16  C   UNL     1       1.294   5.879   0.269  0.00  0.00    +0.052 C 
BRANCH  16  22
ATOM     17  C   UNL     1      -0.154   1.187   1.233  0.00  0.00    +0.044 C 
ATOM     18  C   UNL     1       0.894   2.156   0.751  0.00  0.00    -0.050 A 
ATOM     19  C   UNL     1       2.125   1.690   0.327  0.00  0.00    +0.003 A 
ATOM     20  C   UNL     1       3.084   2.578  -0.121  0.00  0.00    +0.001 A 
ATOM     21  C   UNL     1       2.815   3.934  -0.140  0.00  0.00    +0.004 A 
ATOM     22  C   UNL     1       1.587   4.401   0.289  0.00  0.00    -0.046 A 
ATOM     23  C   UNL     1       0.627   3.512   0.737  0.00  0.00    +0.007 A 
ENDBRANCH  16  22
ENDBRANCH  15  16
ENDBRANCH   1  15
BRANCH   1  24
ATOM     24  C   UNL     1      -0.994   8.103  -0.596  0.00  0.00    +0.150 C 
BRANCH  24  25
ATOM     25  C   UNL     1      -0.992   8.152   0.910  0.00  0.00    +0.033 A 
ATOM     26  C   UNL     1      -0.703   9.313   1.548  0.00  0.00    +0.020 A 
ATOM     27  C   UNL     1      -0.714   9.328   3.012  0.00  0.00    +0.002 A 
ATOM     28  C   UNL     1      -0.429  10.498   3.724  0.00  0.00    +0.055 A 
ATOM     29  C   UNL     1      -0.443  10.476   5.104  0.00  0.00    +0.121 A 
ATOM     30  C   UNL     1      -0.738   9.298   5.786  0.00  0.00    +0.047 A 
ATOM     31  C   UNL     1      -1.020   8.140   5.096  0.00  0.00    +0.030 A 
ATOM     32  C   UNL     1      -1.012   8.140   3.705  0.00  0.00    +0.049 A 
ATOM     33  N   UNL     1      -1.292   6.990   2.996  0.00  0.00    -0.322 N 
ATOM     34  H   UNL     1      -1.503   6.146   3.489  0.00  0.00    +0.169 HD
ATOM     35  C   UNL     1      -1.284   6.987   1.651  0.00  0.00    +0.254 A 
ATOM     36  O   UNL     1      -1.537   5.953   1.058  0.00  0.00    -0.268 OA
BRANCH  29  37
ATOM     37  O   UNL     1      -0.166  11.610   5.801  0.00  0.00    -0.495 OA
ATOM     38  C   UNL     1      -0.197  11.519   7.227  0.00  0.00    +0.277 C 
ENDBRANCH  29  37
ENDBRANCH  24  25
ENDBRANCH   1  24
TORSDOF 8
