REMARK  Name = ZINC38125146
REMARK  6 active torsions:
REMARK  status: ('A' for Active; 'I' for Inactive)
REMARK    1  A    between atoms: C_2  and  CA_13
REMARK    2  A    between atoms: CA_13  and  C_15
REMARK    3  A    between atoms: CA_13  and  N_17
REMARK    4  A    between atoms: C_15  and  O_16
REMARK    5  A    between atoms: N_17  and  C_18
REMARK    6  A    between atoms: C_18  and  C_19
REMARK                            x       y       z     vdW  Elec       q    Type
REMARK                         _______ _______ _______ _____ _____    ______ ____
ROOT
ATOM      1  C   UNL     1      -0.017   1.380   0.010  0.00  0.00    +0.051 A 
ATOM      2  C   UNL     1       1.175   2.083   0.002  0.00  0.00    -0.055 A 
ATOM      3  C   UNL     1       2.381   1.407  -0.013  0.00  0.00    +0.021 A 
ATOM      4  C   UNL     1       2.404   0.023  -0.022  0.00  0.00    +0.063 A 
ATOM      5  C   UNL     1       1.212  -0.683  -0.014  0.00  0.00    +0.176 A 
ATOM      6  C   UNL     1       0.002  -0.004   0.002  0.00  0.00    +0.163 A 
ATOM      7  O   UNL     1      -1.167  -0.709   0.010  0.00  0.00    -0.488 OA
ATOM      8  C   UNL     1      -1.468  -1.433  -1.184  0.00  0.00    +0.232 C 
ATOM      9  C   UNL     1      -0.780  -2.789  -1.181  0.00  0.00    +0.082 C 
ATOM     10  C   UNL     1       0.736  -2.670  -1.212  0.00  0.00    +0.232 C 
ATOM     11  O   UNL     1       1.220  -2.048  -0.021  0.00  0.00    -0.487 OA
ATOM     12 BR   UNL     1       4.054  -0.900  -0.044  0.00  0.00    -0.046 Br
ENDROOT
BRANCH   2  13
ATOM     13  CA  UNL     1       1.159   3.590   0.010  0.00  0.00    -0.015 C 
BRANCH  13  14
ATOM     14  N   UNL     1       2.206   4.096  -0.887  0.00  0.00    +0.385 N 
ATOM     15  H1  UNL     1       3.112   3.836  -0.527  0.00  0.00    -0.085 HD
ATOM     16  H2  UNL     1       2.083   3.697  -1.806  0.00  0.00    -0.085 HD
BRANCH  14  17
ATOM     17  C   UNL     1       2.113   5.559  -0.973  0.00  0.00    -0.078 C 
BRANCH  17  18
ATOM     18  C   UNL     1       3.204   6.086  -1.907  0.00  0.00    -0.028 C 
ATOM     19  C   UNL     1       4.274   6.996  -1.302  0.00  0.00    +0.002 C 
ATOM     20  C   UNL     1       3.202   7.583  -2.222  0.00  0.00    +0.002 C 
ENDBRANCH  17  18
ENDBRANCH  14  17
ENDBRANCH  13  14
BRANCH  13  21
ATOM     21  C   UNL     1       1.418   4.095   1.431  0.00  0.00    +0.144 C 
BRANCH  21  22
ATOM     22  O   UNL     1       2.638   3.536   1.921  0.00  0.00    -0.396 OA
ATOM     23  H   UNL     1       2.865   3.813   2.819  0.00  0.00    +0.209 HD
ENDBRANCH  21  22
ENDBRANCH  13  21
ENDBRANCH   2  13
TORSDOF 6
