REMARK  Name = ZINC08863621
REMARK  10 active torsions:
REMARK  status: ('A' for Active; 'I' for Inactive)
REMARK    1  A    between atoms: C_1  and  C_2
REMARK    2  A    between atoms: C_5  and  N_19
REMARK    3  A    between atoms: C_8  and  C_10
REMARK    4  A    between atoms: C_13  and  N_16
REMARK    5  A    between atoms: N_16  and  C_17
REMARK    6  A    between atoms: N_16  and  C_18
REMARK    7  A    between atoms: N_19  and  CA_20
REMARK    8  A    between atoms: CA_20  and  CB_22
REMARK    9  A    between atoms: CA_20  and  C_33
REMARK   10  A    between atoms: CB_22  and  CG_23
REMARK                            x       y       z     vdW  Elec       q    Type
REMARK                         _______ _______ _______ _____ _____    ______ ____
ROOT
ATOM      1  N   TRP A   1      -1.454  -2.820   0.823  0.00  0.00    +0.402 N 
ATOM      2  H1  TRP A   1      -1.264  -3.794   0.639  0.00  0.00    -0.082 HD
ATOM      3  H2  TRP A   1      -0.779  -2.248   0.336  0.00  0.00    -0.082 HD
ENDROOT
BRANCH   1   8
ATOM      4  C   UNK A   0      -2.870   1.380   0.194  0.00  0.00    +0.111 C 
ATOM      5  C   UNK A   0      -2.406  -0.039  -0.009  0.00  0.00    +0.230 C 
ATOM      6  O   UNK A   0      -1.420  -0.265  -0.678  0.00  0.00    -0.274 OA
ATOM      7  N   UNK A   0      -3.087  -1.057   0.553  0.00  0.00    -0.207 N 
ATOM      8  C   UNK A   0      -2.806  -2.488   0.354  0.00  0.00    +0.052 C 
ATOM      9  C   UNK A   0      -3.871  -3.190   1.219  0.00  0.00    +0.062 C 
ATOM     10  C   UNK A   0      -4.656  -2.049   1.827  0.00  0.00    +0.067 C 
ATOM     11  N   UNK A   0      -4.167  -0.927   1.423  0.00  0.00    -0.183 NA
BRANCH  10  12
ATOM     12  C   UNK A   0      -5.799  -2.198   2.745  0.00  0.00    -0.002 A 
ATOM     13  C   UNK A   0      -6.234  -3.472   3.123  0.00  0.00    +0.011 A 
ATOM     14  C   UNK A   0      -7.302  -3.607   3.981  0.00  0.00    +0.024 A 
ATOM     15  C   UNK A   0      -7.950  -2.477   4.471  0.00  0.00    +0.029 A 
ATOM     16  C   UNK A   0      -7.520  -1.208   4.098  0.00  0.00    +0.024 A 
ATOM     17  C   UNK A   0      -6.448  -1.065   3.245  0.00  0.00    +0.011 A 
BRANCH  15  18
ATOM     18  N   UNK A   0      -9.032  -2.618   5.339  0.00  0.00    -0.336 N 
ATOM     19  C   UNK A   0      -9.486  -3.954   5.734  0.00  0.00    +0.129 C 
ATOM     20  C   UNK A   0      -9.715  -1.430   5.857  0.00  0.00    +0.129 C 
ENDBRANCH  15  18
ENDBRANCH  10  12
ENDBRANCH   1   8
BRANCH   1  21
ATOM     21  CA  TRP A   1      -1.360  -2.567   2.267  0.00  0.00    +0.051 C 
BRANCH  21  22
ATOM     22  C   TRP A   1      -1.431  -1.083   2.522  0.00  0.00    +0.343 C 
ATOM     23  O   TRP A   1      -0.826  -0.310   1.798  0.00  0.00    -0.248 OA
ATOM     24  OXT TRP A   1      -2.092  -0.655   3.453  0.00  0.00    -0.248 OA
ENDBRANCH  21  22
BRANCH  21  25
ATOM     25  CB  TRP A   1      -0.032  -3.113   2.795  0.00  0.00    +0.033 C 
BRANCH  25  26
ATOM     26  CG  TRP A   1      -0.013  -4.613   2.651  0.00  0.00    -0.023 A 
ATOM     27  CD1 TRP A   1      -0.353  -5.509   3.591  0.00  0.00    +0.087 A 
ATOM     28  NE1 TRP A   1      -0.210  -6.778   3.099  0.00  0.00    -0.360 N 
ATOM     29  HE1 TRP A   1      -0.396  -7.592   3.593  0.00  0.00    +0.165 HD
ATOM     30  CE2 TRP A   1       0.237  -6.727   1.797  0.00  0.00    +0.047 A 
ATOM     31  CD2 TRP A   1       0.374  -5.369   1.458  0.00  0.00    +0.003 A 
ATOM     32  CE3 TRP A   1       0.812  -5.010   0.182  0.00  0.00    +0.010 A 
ATOM     33  CZ3 TRP A   1       1.102  -5.982  -0.734  0.00  0.00    +0.001 A 
ATOM     34  CH2 TRP A   1       0.964  -7.324  -0.406  0.00  0.00    +0.002 A 
ATOM     35  CZ2 TRP A   1       0.543  -7.700   0.851  0.00  0.00    +0.026 A 
ENDBRANCH  25  26
ENDBRANCH  21  25
ENDBRANCH   1  21
TORSDOF 7
