REMARK  Name = ZINC58481706
REMARK  7 active torsions:
REMARK  status: ('A' for Active; 'I' for Inactive)
REMARK    1  A    between atoms: C_6  and  C_7
REMARK    2  A    between atoms: C_7  and  N_8
REMARK    3  A    between atoms: N_8  and  C_9
REMARK    4  A    between atoms: N_8  and  C_26
REMARK    5  A    between atoms: C_9  and  C_10
REMARK    6  A    between atoms: C_10  and  C_11
REMARK    7  A    between atoms: N_13  and  N_14
REMARK                            x       y       z     vdW  Elec       q    Type
REMARK                         _______ _______ _______ _____ _____    ______ ____
ROOT
ATOM      1  C   UNL     1      -3.475  -2.018  -2.811  0.00  0.00    +0.079 C 
ENDROOT
BRANCH   1   2
ATOM      2  C   UNL     1      -4.856  -2.621  -2.819  0.00  0.00    +0.228 C 
ATOM      3  O   UNL     1      -5.478  -2.725  -1.783  0.00  0.00    -0.274 OA
ATOM      4  N   UNL     1      -5.399  -3.045  -3.977  0.00  0.00    -0.224 N 
ATOM      5  H   UNL     1      -4.902  -2.962  -4.806  0.00  0.00    +0.174 HD
BRANCH   4   6
ATOM      6  N   UNL     1      -6.683  -3.606  -3.985  0.00  0.00    -0.137 N 
ATOM      7  C   UNL     1      -6.934  -4.925  -4.112  0.00  0.00    +0.263 C 
ATOM      8  O   UNL     1      -6.122  -5.817  -4.236  0.00  0.00    -0.271 OA
ATOM      9  C   UNL     1      -8.439  -5.057  -4.065  0.00  0.00    +0.114 C 
ATOM     10  C   UNL     1      -8.861  -5.910  -2.875  0.00  0.00    +0.035 C 
ATOM     11  C   UNL     1     -10.389  -6.005  -2.829  0.00  0.00    +0.003 C 
ATOM     12  C   UNL     1     -10.899  -6.627  -4.130  0.00  0.00    +0.000 C 
ATOM     13  C   UNL     1     -10.488  -5.748  -5.313  0.00  0.00    +0.003 C 
ATOM     14  C   UNL     1      -8.961  -5.652  -5.369  0.00  0.00    +0.035 C 
ATOM     15  N   UNL     1      -8.913  -3.676  -3.903  0.00  0.00    -0.284 N 
ATOM     16  C   UNL     1      -7.814  -2.899  -3.861  0.00  0.00    +0.326 C 
ATOM     17  O   UNL     1      -7.845  -1.691  -3.729  0.00  0.00    -0.251 OA
ATOM     18  H   UNL     1      -9.835  -3.383  -3.836  0.00  0.00    +0.151 HD
ENDBRANCH   4   6
ENDBRANCH   1   2
BRANCH   1  19
ATOM     19  C   UNL     1      -3.099  -1.624  -1.381  0.00  0.00    -0.069 C 
BRANCH  19  20
ATOM     20  N   UNL     1      -1.789  -0.958  -1.385  0.00  0.00    +0.385 N 
ATOM     21  H   UNL     1      -1.113  -1.549  -1.845  0.00  0.00    -0.081 HD
BRANCH  20  22
ATOM     22  C   UNL     1      -1.892   0.320  -2.104  0.00  0.00    -0.068 C 
ATOM     23  C   UNL     1      -0.530   1.016  -2.102  0.00  0.00    -0.015 C 
ATOM     24  C   UNL     1      -0.637   2.347  -2.850  0.00  0.00    -0.002 C 
ATOM     25  C   UNL     1      -1.667   3.240  -2.157  0.00  0.00    -0.000 C 
ATOM     26  C   UNL     1      -3.030   2.543  -2.159  0.00  0.00    -0.002 C 
ATOM     27  C   UNL     1      -2.923   1.213  -1.411  0.00  0.00    -0.015 C 
ENDBRANCH  20  22
BRANCH  20  28
ATOM     28  C   UNL     1      -1.362  -0.709  -0.002  0.00  0.00    -0.043 C 
BRANCH  28  34
ATOM     29  C   UNL     1       0.629   0.697   0.567  0.00  0.00    +0.004 A 
ATOM     30  C   UNL     1       1.993   0.913   0.597  0.00  0.00    +0.038 A 
ATOM     31  C   UNL     1       2.857  -0.042   0.088  0.00  0.00    +0.123 A 
ATOM     32  C   UNL     1       2.352  -1.213  -0.450  0.00  0.00    +0.038 A 
ATOM     33  C   UNL     1       0.987  -1.428  -0.479  0.00  0.00    +0.004 A 
ATOM     34  C   UNL     1       0.126  -0.474   0.029  0.00  0.00    -0.064 A 
ATOM     35  F   UNL     1       4.191   0.169   0.116  0.00  0.00    -0.205 F 
ENDBRANCH  28  34
ENDBRANCH  20  28
ENDBRANCH  19  20
ENDBRANCH   1  19
TORSDOF 7
