REMARK  Name = ZINC20885450
REMARK  8 active torsions:
REMARK  status: ('A' for Active; 'I' for Inactive)
REMARK    1  A    between atoms: C_1  and  C_2
REMARK    2  A    between atoms: C_2  and  C_3
REMARK    3  A    between atoms: C_2  and  O_4
REMARK    4  A    between atoms: O_4  and  C_5
REMARK    5  A    between atoms: C_8  and  C_11
REMARK    6  A    between atoms: C_16  and  C_22
REMARK    7  A    between atoms: C_25  and  O_29
REMARK    8  A    between atoms: O_29  and  C_30
REMARK                            x       y       z     vdW  Elec       q    Type
REMARK                         _______ _______ _______ _____ _____    ______ ____
ROOT
ATOM      1  C   UNL     1      -3.538  -1.821   5.026  0.00  0.00    +0.032 C 
ATOM      2  C   UNL     1      -3.648  -0.561   5.887  0.00  0.00    +0.059 C 
ATOM      3  C   UNL     1      -4.189  -0.922   7.248  0.00  0.00    +0.018 C 
ATOM      4  C   UNL     1      -3.940  -2.132   7.792  0.00  0.00    +0.020 C 
ATOM      5  C   UNL     1      -4.482  -2.467   9.162  0.00  0.00    +0.063 C 
ATOM      6  C   UNL     1      -4.478  -1.209  10.032  0.00  0.00    +0.109 C 
ATOM      7  C   UNL     1      -5.100  -0.074   9.259  0.00  0.00    +0.218 C 
ATOM      8  O   UNL     1      -5.748   0.770   9.841  0.00  0.00    -0.275 OA
ATOM      9  N   UNL     1      -4.939   0.004   7.927  0.00  0.00    -0.289 N 
ATOM     10  C   UNL     1      -3.180  -3.098   7.112  0.00  0.00    +0.162 C 
ATOM     11  O   UNL     1      -2.968  -4.172   7.639  0.00  0.00    -0.292 OA
ATOM     12  C   UNL     1      -2.626  -2.823   5.740  0.00  0.00    +0.088 C 
ATOM     13  H   UNL     1      -5.421   0.829   7.381  0.00  0.00    +0.155 HD
ENDROOT
BRANCH   5  14
ATOM     14  C   UNL     1      -5.891  -2.985   9.033  0.00  0.00    -0.038 A 
ATOM     15  C   UNL     1      -6.202  -4.257   9.475  0.00  0.00    +0.008 A 
ATOM     16  C   UNL     1      -7.493  -4.734   9.358  0.00  0.00    +0.047 A 
ATOM     17  C   UNL     1      -8.479  -3.936   8.796  0.00  0.00    +0.134 A 
ATOM     18  C   UNL     1      -8.164  -2.659   8.353  0.00  0.00    +0.060 A 
ATOM     19  C   UNL     1      -6.872  -2.184   8.477  0.00  0.00    +0.023 A 
ATOM     20 BR   UNL     1      -9.504  -1.566   7.586  0.00  0.00    -0.047 Br
BRANCH  17  21
ATOM     21  O   UNL     1      -9.750  -4.403   8.680  0.00  0.00    -0.494 OA
ATOM     22  C   UNL     1     -10.001  -5.726   9.158  0.00  0.00    +0.277 C 
ENDBRANCH  17  21
ENDBRANCH   5  14
BRANCH   1  26
ATOM     23  C   UNL     1      -1.869  -0.818   1.222  0.00  0.00    +0.121 A 
ATOM     24  C   UNL     1      -1.153  -0.567   2.383  0.00  0.00    +0.046 A 
ATOM     25  C   UNL     1      -1.697  -0.886   3.612  0.00  0.00    +0.007 A 
ATOM     26  C   UNL     1      -2.950  -1.467   3.684  0.00  0.00    -0.043 A 
ATOM     27  C   UNL     1      -3.663  -1.724   2.528  0.00  0.00    +0.007 A 
ATOM     28  C   UNL     1      -3.126  -1.400   1.297  0.00  0.00    +0.046 A 
BRANCH  23  29
ATOM     29  O   UNL     1      -1.339  -0.499   0.012  0.00  0.00    -0.489 OA
BRANCH  29  31
ATOM     30  C   UNL     1       0.003   1.495   0.272  0.00  0.00    +0.051 C 
ATOM     31  C   UNL     1       0.005  -0.011   0.001  0.00  0.00    +0.167 C 
ATOM     32  C   UNL     1       0.635  -0.283  -1.366  0.00  0.00    +0.051 C 
ENDBRANCH  29  31
ENDBRANCH  23  29
ENDBRANCH   1  26
TORSDOF 5
