REMARK  Name = ZINC61546791
REMARK  8 active torsions:
REMARK  status: ('A' for Active; 'I' for Inactive)
REMARK    1  A    between atoms: C_1  and  C_2
REMARK    2  A    between atoms: C_2  and  C_3
REMARK    3  A    between atoms: C_2  and  C_4
REMARK    4  A    between atoms: C_2  and  N_5
REMARK    5  A    between atoms: C_6  and  C_8
REMARK    6  A    between atoms: C_8  and  N_9
REMARK    7  A    between atoms: C_10  and  C_12
REMARK    8  A    between atoms: C_12  and  C_13
REMARK                            x       y       z     vdW  Elec       q    Type
REMARK                         _______ _______ _______ _____ _____    ______ ____
ROOT
ATOM      1  N   UNL     1       4.051  -0.111  -2.677  0.00  0.00    -0.306 N 
ATOM      2  C   UNL     1       4.876  -0.420  -3.698  0.00  0.00    +0.218 C 
ATOM      3  O   UNL     1       4.480  -1.118  -4.607  0.00  0.00    -0.275 OA
ATOM      4  H   UNL     1       4.368   0.447  -1.950  0.00  0.00    +0.149 HD
ENDROOT
BRANCH   1   5
ATOM      5  C   UNL     1       2.677  -0.618  -2.667  0.00  0.00    +0.200 C 
BRANCH   5   7
ATOM      6  N   UNL     1       0.688  -0.476  -1.203  0.00  0.00    -0.309 N 
ATOM      7  C   UNL     1       1.972  -0.132  -1.427  0.00  0.00    +0.231 C 
ATOM      8  O   UNL     1       2.559   0.569  -0.630  0.00  0.00    -0.274 OA
ATOM      9  H   UNL     1       0.218  -1.037  -1.840  0.00  0.00    +0.149 HD
BRANCH   6  11
ATOM     10  C   UNL     1      -0.019   1.526   0.010  0.00  0.00    +0.031 C 
ATOM     11  C   UNL     1       0.002  -0.004   0.002  0.00  0.00    +0.026 C 
ATOM     12  C   UNL     1       0.742  -0.511   1.242  0.00  0.00    +0.031 C 
ATOM     13  C   UNL     1      -1.433  -0.534   0.013  0.00  0.00    +0.031 C 
ENDBRANCH   6  11
ENDBRANCH   5   7
ENDBRANCH   1   5
BRANCH   2  14
ATOM     14  C   UNL     1       6.290   0.102  -3.708  0.00  0.00    +0.132 C 
BRANCH  14  15
ATOM     15  C   UNL     1       6.995  -0.384  -4.948  0.00  0.00    -0.021 A 
ATOM     16  C   UNL     1       7.136   0.457  -6.036  0.00  0.00    +0.054 A 
ATOM     17  C   UNL     1       7.786   0.013  -7.178  0.00  0.00    +0.162 A 
ATOM     18  C   UNL     1       8.296  -1.280  -7.225  0.00  0.00    +0.163 A 
ATOM     19  C   UNL     1       8.150  -2.119  -6.131  0.00  0.00    +0.065 A 
ATOM     20  C   UNL     1       7.505  -1.669  -4.994  0.00  0.00    +0.025 A 
ATOM     21 BR   UNL     1       7.314  -2.814  -3.501  0.00  0.00    -0.050 Br
ATOM     22  O   UNL     1       8.944  -1.733  -8.333  0.00  0.00    -0.485 OA
ATOM     23  C   UNL     1       8.745  -0.993  -9.543  0.00  0.00    +0.270 C 
ATOM     24  C   UNL     1       8.897   0.501  -9.223  0.00  0.00    +0.270 C 
ATOM     25  O   UNL     1       7.914   0.851  -8.242  0.00  0.00    -0.485 OA
ENDBRANCH  14  15
ENDBRANCH   2  14
TORSDOF 5
