REMARK  Name = ZINC39695600
REMARK  8 active torsions:
REMARK  status: ('A' for Active; 'I' for Inactive)
REMARK    1  A    between atoms: C_1  and  C_2
REMARK    2  A    between atoms: C_2  and  N_3
REMARK    3  A    between atoms: C_7  and  C_9
REMARK    4  A    between atoms: C_9  and  N_10
REMARK    5  A    between atoms: C_11  and  C_13
REMARK    6  A    between atoms: C_24  and  C_26
REMARK    7  A    between atoms: C_30  and  O_31
REMARK    8  A    between atoms: O_31  and  C_32
REMARK                            x       y       z     vdW  Elec       q    Type
REMARK                         _______ _______ _______ _____ _____    ______ ____
ROOT
ATOM      1  C   UNL     1      -1.555  -1.292   4.969  0.00  0.00    +0.100 C 
ATOM      2  C   UNL     1      -0.130  -1.804   5.278  0.00  0.00    +0.121 C 
ATOM      3  N   UNL     1      -0.057  -1.839   6.758  0.00  0.00    -0.296 N 
ATOM      4  C   UNL     1      -1.390  -2.330   7.181  0.00  0.00    +0.115 C 
ATOM      5  C   UNL     1      -2.379  -1.640   6.220  0.00  0.00    -0.004 C 
ATOM      6  C   UNL     1      -2.934  -0.370   6.857  0.00  0.00    -0.010 C 
ATOM      7  C   UNL     1      -3.797  -0.746   8.065  0.00  0.00    -0.082 C 
ATOM      8  N   UNL     1      -4.894  -1.621   7.633  0.00  0.00    +0.379 N 
ATOM      9  C   UNL     1      -4.353  -2.879   7.106  0.00  0.00    -0.082 C 
ATOM     10  C   UNL     1      -3.513  -2.594   5.857  0.00  0.00    -0.010 C 
ATOM     11  C   UNL     1       0.985  -1.500   7.542  0.00  0.00    +0.251 C 
ATOM     12  O   UNL     1       1.987  -1.018   7.048  0.00  0.00    -0.270 OA
ATOM     13  H   UNL     1      -5.495  -1.817   8.418  0.00  0.00    -0.086 HD
ATOM     14  H   UNL     1      -5.427  -1.158   6.912  0.00  0.00    -0.086 HD
ENDROOT
BRANCH  11  15
ATOM     15  C   UNL     1       0.912  -1.714   8.995  0.00  0.00    +0.087 A 
ATOM     16  C   UNL     1       0.244  -2.793   9.533  0.00  0.00    +0.063 A 
ATOM     17  S   UNL     1       0.433  -2.612  11.190  0.00  0.00    -0.081 S 
ATOM     18  C   UNL     1       1.396  -1.116  11.235  0.00  0.00    +0.120 A 
ATOM     19  C   UNL     1       1.543  -0.807   9.927  0.00  0.00    +0.158 A 
ATOM     20 CL   UNL     1       2.003  -0.265  12.620  0.00  0.00    -0.072 Cl
BRANCH  19  21
ATOM     21  O   UNL     1       2.237   0.289   9.514  0.00  0.00    -0.492 OA
ATOM     22  C   UNL     1       1.501   1.505   9.366  0.00  0.00    +0.277 C 
ENDBRANCH  19  21
ENDBRANCH  11  15
BRANCH   1  24
ATOM     23  N   UNL     1      -3.129  -1.443   3.068  0.00  0.00    -0.317 N 
ATOM     24  C   UNL     1      -2.114  -1.996   3.760  0.00  0.00    +0.218 C 
ATOM     25  O   UNL     1      -1.650  -3.060   3.409  0.00  0.00    -0.275 OA
ATOM     26  H   UNL     1      -3.501  -0.592   3.348  0.00  0.00    +0.149 HD
BRANCH  23  27
ATOM     27  C   UNL     1      -3.673  -2.127   1.892  0.00  0.00    +0.089 C 
BRANCH  27  32
ATOM     28  N   UNL     1      -5.823  -1.015   2.329  0.00  0.00    +0.382 N 
ATOM     29  C   UNL     1      -7.104  -1.618   1.905  0.00  0.00    -0.078 C 
ATOM     30  C   UNL     1      -7.003  -1.719   0.362  0.00  0.00    -0.020 C 
ATOM     31  C   UNL     1      -5.507  -2.084   0.170  0.00  0.00    -0.016 C 
ATOM     32  C   UNL     1      -4.808  -1.292   1.296  0.00  0.00    -0.051 C 
ATOM     33  H   UNL     1      -5.533  -1.420   3.207  0.00  0.00    -0.081 HD
BRANCH  28  35
ATOM     34  C   UNL     1      -6.947   0.721   3.641  0.00  0.00    -0.017 C 
ATOM     35  C   UNL     1      -5.987   0.436   2.484  0.00  0.00    -0.082 C 
ENDBRANCH  28  35
ENDBRANCH  27  32
ENDBRANCH  23  27
ENDBRANCH   1  24
TORSDOF 6
