REMARK  Name = ZINC00898807
REMARK  9 active torsions:
REMARK  status: ('A' for Active; 'I' for Inactive)
REMARK    1  A    between atoms: C_1  and  C_2
REMARK    2  A    between atoms: C_4  and  C_28
REMARK    3  A    between atoms: C_7  and  C_13
REMARK    4  A    between atoms: C_15  and  C_26
REMARK    5  A    between atoms: C_16  and  N_25
REMARK    6  A    between atoms: C_18  and  C_24
REMARK    7  A    between atoms: C_19  and  C_20
REMARK    8  A    between atoms: C_20  and  O_22
REMARK    9  A    between atoms: O_22  and  C_23
REMARK                            x       y       z     vdW  Elec       q    Type
REMARK                         _______ _______ _______ _____ _____    ______ ____
ROOT
ATOM      1  C   UNL     1       1.283  -2.138  -0.022  0.00  0.00    +0.107 C 
ATOM      2  C   UNL     1       0.609  -2.677   1.210  0.00  0.00    +0.098 C 
ATOM      3  C   UNL     1      -0.627  -3.227   1.139  0.00  0.00    +0.198 C 
ATOM      4  O   UNL     1      -1.299  -3.311  -0.023  0.00  0.00    -0.445 OA
ATOM      5  C   UNL     1      -0.629  -3.206  -1.179  0.00  0.00    +0.115 C 
ATOM      6  C   UNL     1       0.593  -2.663  -1.251  0.00  0.00    +0.087 C 
ATOM      7  C   UNL     1      -1.272  -3.717  -2.442  0.00  0.00    +0.087 C 
ENDROOT
BRANCH   1  14
ATOM      8  C   UNL     1      -0.007   5.681   0.033  0.00  0.00    +0.044 C 
ATOM      9  C   UNL     1       0.004   4.174   0.024  0.00  0.00    -0.048 A 
ATOM     10  C   UNL     1      -1.203   3.479   0.033  0.00  0.00    +0.007 A 
ATOM     11  C   UNL     1      -1.226   2.118   0.031  0.00  0.00    -0.041 A 
ATOM     12  C   UNL     1      -0.017   1.404   0.010  0.00  0.00    +0.004 A 
ATOM     13  C   UNL     1       0.002  -0.004   0.002  0.00  0.00    +0.017 A 
ATOM     14  C   UNL     1       1.214  -0.632  -0.013  0.00  0.00    +0.003 A 
ATOM     15  C   UNL     1       2.388   0.121  -0.020  0.00  0.00    +0.134 A 
ATOM     16  N   UNL     1       2.366   1.433  -0.013  0.00  0.00    -0.235 NA
ATOM     17  C   UNL     1       1.212   2.108   0.002  0.00  0.00    +0.073 A 
ATOM     18  C   UNL     1       1.194   3.514   0.009  0.00  0.00    +0.031 A 
ATOM     19 CL   UNL     1       3.918  -0.699  -0.040  0.00  0.00    -0.062 Cl
ATOM     20  C   UNL     1      -2.541   1.382   0.045  0.00  0.00    +0.044 C 
ENDBRANCH   1  14
BRANCH   3  21
ATOM     21  N   UNL     1      -1.210  -3.711   2.283  0.00  0.00    -0.328 N 
ATOM     22  H   UNL     1      -0.737  -3.657   3.129  0.00  0.00    +0.145 HD
ATOM     23  H   UNL     1      -2.095  -4.107   2.247  0.00  0.00    +0.145 HD
ENDBRANCH   3  21
BRANCH   6  24
ATOM     24  C   UNL     1       1.246  -2.581  -2.506  0.00  0.00    +0.339 C 
ATOM     25  O   UNL     1       0.697  -3.003  -3.506  0.00  0.00    -0.245 OA
BRANCH  24  26
ATOM     26  O   UNL     1       2.477  -2.036  -2.591  0.00  0.00    -0.465 OA
ATOM     27  C   UNL     1       3.076  -1.986  -3.887  0.00  0.00    +0.280 C 
ENDBRANCH  24  26
ENDBRANCH   6  24
BRANCH   2  28
ATOM     28  C   UNL     1       1.282  -2.609   2.473  0.00  0.00    +0.101 C 
ATOM     29  N   UNL     1       1.815  -2.556   3.474  0.00  0.00    -0.191 NA
ENDBRANCH   2  28
TORSDOF 5
