REMARK  Name = ZINC13164724
REMARK  8 active torsions:
REMARK  status: ('A' for Active; 'I' for Inactive)
REMARK    1  A    between atoms: C_1  and  C_2
REMARK    2  A    between atoms: C_2  and  C_26
REMARK    3  A    between atoms: N_5  and  N_9
REMARK    4  A    between atoms: C_10  and  C_12
REMARK    5  A    between atoms: C_12  and  N_13
REMARK    6  A    between atoms: C_14  and  C_16
REMARK    7  A    between atoms: C_26  and  C_27
REMARK    8  A    between atoms: C_27  and  C_28
REMARK                            x       y       z     vdW  Elec       q    Type
REMARK                         _______ _______ _______ _____ _____    ______ ____
ROOT
ATOM      1  N   UNL     1       3.517   0.983  -0.027  0.00  0.00    -0.222 N 
ATOM      2  C   UNL     1       4.147   1.356  -1.158  0.00  0.00    +0.247 C 
ATOM      3  O   UNL     1       3.506   1.572  -2.165  0.00  0.00    -0.273 OA
ATOM      4  H   UNL     1       4.029   0.810   0.779  0.00  0.00    +0.174 HD
ENDROOT
BRANCH   1   9
ATOM      5  C   UNL     1      -0.690  -0.545  -1.251  0.00  0.00    +0.041 C 
ATOM      6  C   UNL     1       0.002  -0.004   0.002  0.00  0.00    +0.112 C 
ATOM      7  C   UNL     1       1.480  -0.340  -0.014  0.00  0.00    +0.263 C 
ATOM      8  O   UNL     1       1.980  -1.445  -0.025  0.00  0.00    -0.271 OA
ATOM      9  N   UNL     1       2.123   0.844  -0.014  0.00  0.00    -0.137 N 
ATOM     10  C   UNL     1       1.266   1.871   0.000  0.00  0.00    +0.326 C 
ATOM     11  O   UNL     1       1.608   3.037   0.003  0.00  0.00    -0.251 OA
ATOM     12  N   UNL     1      -0.018   1.469   0.010  0.00  0.00    -0.284 N 
ATOM     13  H   UNL     1      -0.803   2.038   0.017  0.00  0.00    +0.151 HD
BRANCH   6  14
ATOM     14  C   UNL     1      -0.662  -0.558   1.264  0.00  0.00    +0.040 C 
BRANCH  14  15
ATOM     15  C   UNL     1      -2.125  -0.113   1.308  0.00  0.00    +0.038 C 
BRANCH  15  16
ATOM     16  C   UNL     1      -2.780  -0.659   2.550  0.00  0.00    -0.047 A 
ATOM     17  C   UNL     1      -3.403  -1.892   2.518  0.00  0.00    +0.003 A 
ATOM     18  C   UNL     1      -4.000  -2.395   3.659  0.00  0.00    +0.000 A 
ATOM     19  C   UNL     1      -3.982  -1.660   4.830  0.00  0.00    +0.000 A 
ATOM     20  C   UNL     1      -3.362  -0.424   4.861  0.00  0.00    +0.000 A 
ATOM     21  C   UNL     1      -2.762   0.076   3.721  0.00  0.00    +0.003 A 
ENDBRANCH  15  16
ENDBRANCH  14  15
ENDBRANCH   6  14
ENDBRANCH   1   9
BRANCH   2  22
ATOM     22  C   UNL     1       5.646   1.506  -1.172  0.00  0.00    +0.202 C 
BRANCH  22  23
ATOM     23  N   UNL     1       6.084   1.917  -2.509  0.00  0.00    -0.302 N 
ATOM     24  C   UNL     1       7.394   2.113  -2.758  0.00  0.00    +0.253 C 
ATOM     25  O   UNL     1       8.213   1.948  -1.874  0.00  0.00    -0.270 OA
ATOM     26  H   UNL     1       5.431   2.048  -3.214  0.00  0.00    +0.150 HD
BRANCH  24  27
ATOM     27  C   UNL     1       7.832   2.525  -4.098  0.00  0.00    +0.093 A 
ATOM     28  C   UNL     1       9.096   2.769  -4.538  0.00  0.00    +0.068 A 
ATOM     29  C   UNL     1       9.310   3.158  -5.874  0.00  0.00    +0.008 A 
ATOM     30  C   UNL     1      10.540   3.454  -6.516  0.00  0.00    +0.010 A 
ATOM     31  C   UNL     1      10.571   3.817  -7.824  0.00  0.00    +0.001 A 
ATOM     32  C   UNL     1       9.410   3.913  -8.582  0.00  0.00    +0.001 A 
ATOM     33  C   UNL     1       8.192   3.634  -7.997  0.00  0.00    +0.016 A 
ATOM     34  C   UNL     1       8.144   3.264  -6.669  0.00  0.00    +0.021 A 
ATOM     35  S   UNL     1       6.839   2.822  -5.550  0.00  0.00    -0.082 S 
ATOM     36 CL   UNL     1      10.442   2.601  -3.455  0.00  0.00    -0.082 Cl
ENDBRANCH  24  27
ENDBRANCH  22  23
ENDBRANCH   2  22
TORSDOF 7
