REMARK  Name = ZINC39687703
REMARK  8 active torsions:
REMARK  status: ('A' for Active; 'I' for Inactive)
REMARK    1  A    between atoms: C_1  and  C_2
REMARK    2  A    between atoms: C_2  and  C_3
REMARK    3  A    between atoms: C_3  and  C_5
REMARK    4  A    between atoms: C_3  and  C_6
REMARK    5  A    between atoms: C_6  and  C_7
REMARK    6  A    between atoms: C_11  and  C_20
REMARK    7  A    between atoms: N_22  and  C_23
REMARK    8  A    between atoms: C_30  and  C_35
REMARK                            x       y       z     vdW  Elec       q    Type
REMARK                         _______ _______ _______ _____ _____    ______ ____
ROOT
ATOM      1  C   UNL     1       1.171  -2.613   2.526  0.00  0.00    +0.216 C 
ATOM      2  O   UNL     1       1.592  -1.759   3.278  0.00  0.00    -0.276 OA
ATOM      3  N   UNL     1       1.287  -3.915   2.853  0.00  0.00    -0.300 N 
ATOM      4  C   UNL     1       0.844  -5.091   2.068  0.00  0.00    +0.121 C 
ATOM      5  C   UNL     1       1.966  -6.136   2.264  0.00  0.00    +0.100 C 
ATOM      6  C   UNL     1       2.645  -5.740   3.585  0.00  0.00    -0.004 C 
ATOM      7  C   UNL     1       1.893  -4.495   4.076  0.00  0.00    +0.115 C 
ATOM      8  C   UNL     1       2.520  -6.870   4.603  0.00  0.00    -0.010 C 
ATOM      9  C   UNL     1       3.252  -6.476   5.888  0.00  0.00    -0.082 C 
ATOM     10  N   UNL     1       4.665  -6.215   5.588  0.00  0.00    +0.379 N 
ATOM     11  C   UNL     1       4.781  -5.068   4.681  0.00  0.00    -0.082 C 
ATOM     12  C   UNL     1       4.113  -5.402   3.344  0.00  0.00    -0.010 C 
ATOM     13  H   UNL     1       5.159  -6.016   6.446  0.00  0.00    -0.086 HD
ATOM     14  H   UNL     1       5.071  -7.030   5.152  0.00  0.00    -0.086 HD
ENDROOT
BRANCH   5  15
ATOM     15  C   UNL     1       2.950  -6.068   1.124  0.00  0.00    +0.218 C 
ATOM     16  O   UNL     1       3.151  -5.015   0.558  0.00  0.00    -0.275 OA
ATOM     17  N   UNL     1       3.606  -7.179   0.734  0.00  0.00    -0.312 N 
ATOM     18  H   UNL     1       3.446  -8.021   1.187  0.00  0.00    +0.149 HD
BRANCH  17  19
ATOM     19  C   UNL     1       4.563  -7.113  -0.373  0.00  0.00    +0.076 C 
ATOM     20  C   UNL     1       3.817  -7.263  -1.701  0.00  0.00    +0.041 C 
ATOM     21  C   UNL     1       4.816  -7.159  -2.858  0.00  0.00    +0.108 C 
ATOM     22  N   UNL     1       5.884  -8.147  -2.651  0.00  0.00    -0.316 N 
ATOM     23  C   UNL     1       6.605  -8.149  -1.371  0.00  0.00    +0.108 C 
ATOM     24  C   UNL     1       5.587  -8.242  -0.231  0.00  0.00    +0.041 C 
ATOM     25  C   UNL     1       6.205  -9.062  -3.647  0.00  0.00    +0.102 A 
ATOM     26  C   UNL     1       7.231  -8.774  -4.542  0.00  0.00    -0.012 A 
ATOM     27  C   UNL     1       7.540  -9.694  -5.528  0.00  0.00    +0.008 A 
ATOM     28  C   UNL     1       6.810 -10.874  -5.586  0.00  0.00    +0.018 A 
ATOM     29  C   UNL     1       5.806 -11.094  -4.665  0.00  0.00    +0.084 A 
ATOM     30  N   UNL     1       5.536 -10.201  -3.731  0.00  0.00    -0.349 N 
ATOM     31  C   UNL     1       7.994  -7.479  -4.440  0.00  0.00    +0.047 C 
ATOM     32  H   UNL     1       4.828 -10.382  -3.094  0.00  0.00    +0.167 HD
ENDBRANCH  17  19
ENDBRANCH   5  15
BRANCH   1  33
ATOM     33  C   UNL     1       0.519  -2.217   1.226  0.00  0.00    +0.099 C 
BRANCH  33  34
ATOM     34  C   UNL     1       0.516  -0.693   1.101  0.00  0.00    -0.006 C 
ATOM     35  C   UNL     1       1.956  -0.186   1.001  0.00  0.00    +0.008 C 
BRANCH  34  37
ATOM     36  C   UNL     1      -0.366   1.239  -0.217  0.00  0.00    +0.004 C 
ATOM     37  C   UNL     1      -0.256  -0.286  -0.157  0.00  0.00    +0.000 C 
ENDBRANCH  34  37
ENDBRANCH  33  34
ENDBRANCH   1  33
TORSDOF 5
