REMARK  Name = ZINC16534115
REMARK  10 active torsions:
REMARK  status: ('A' for Active; 'I' for Inactive)
REMARK    1  A    between atoms: C_1  and  C_2
REMARK    2  A    between atoms: C_6  and  N_9
REMARK    3  A    between atoms: C_7  and  C_8
REMARK    4  A    between atoms: C_10  and  O_33
REMARK    5  A    between atoms: C_11  and  C_17
REMARK    6  A    between atoms: C_12  and  C_14
REMARK    7  A    between atoms: C_14  and  C_15
REMARK    8  A    between atoms: C_14  and  C_16
REMARK    9  A    between atoms: N_21  and  C_25
REMARK   10  A    between atoms: C_25  and  C_26
REMARK                            x       y       z     vdW  Elec       q    Type
REMARK                         _______ _______ _______ _____ _____    ______ ____
ROOT
ATOM      1  N   UNL     1       1.077   3.484   0.072  0.00  0.00    -0.200 N 
ATOM      2  C   UNL     1       2.137   4.320   0.012  0.00  0.00    +0.223 A 
ATOM      3  C   UNL     1       1.638   5.619   0.081  0.00  0.00    +0.061 A 
ATOM      4  C   UNL     1       0.229   5.516   0.185  0.00  0.00    +0.077 A 
ATOM      5  N   UNL     1      -0.088   4.251   0.173  0.00  0.00    -0.167 NA
ENDROOT
BRANCH   3   6
ATOM      6  C   UNL     1       2.421   6.856   0.052  0.00  0.00    +0.043 C 
ATOM      7  C   UNL     1       3.490   7.003   0.881  0.00  0.00    +0.099 C 
ATOM      8  C   UNL     1       4.348   8.131   0.978  0.00  0.00    +0.269 C 
ATOM      9  O   UNL     1       4.268   9.159   0.330  0.00  0.00    -0.268 OA
ATOM     10  N   UNL     1       5.268   7.848   1.921  0.00  0.00    -0.216 N 
ATOM     11  C   UNL     1       5.041   6.621   2.419  0.00  0.00    +0.313 C 
ATOM     12  O   UNL     1       5.705   6.086   3.287  0.00  0.00    -0.252 OA
ATOM     13  N   UNL     1       3.967   6.074   1.820  0.00  0.00    -0.265 N 
ATOM     14  H   UNL     1       3.592   5.198   2.002  0.00  0.00    +0.157 HD
BRANCH  10  15
ATOM     15  C   UNL     1       6.349   8.743   2.340  0.00  0.00    +0.153 C 
BRANCH  15  16
ATOM     16  C   UNL     1       5.873   9.609   3.477  0.00  0.00    -0.029 A 
ATOM     17  C   UNL     1       5.283  10.831   3.215  0.00  0.00    +0.008 A 
ATOM     18  C   UNL     1       4.841  11.624   4.256  0.00  0.00    +0.038 A 
ATOM     19  C   UNL     1       4.999  11.199   5.565  0.00  0.00    +0.123 A 
ATOM     20  C   UNL     1       5.595   9.977   5.827  0.00  0.00    +0.038 A 
ATOM     21  C   UNL     1       6.031   9.183   4.783  0.00  0.00    +0.008 A 
ATOM     22  F   UNL     1       4.571  11.975   6.584  0.00  0.00    -0.205 F 
ENDBRANCH  15  16
ENDBRANCH  10  15
ENDBRANCH   3   6
BRANCH   1  28
ATOM     23  C   UNL     1      -0.558  -0.772  -1.771  0.00  0.00    +0.044 C 
ATOM     24  C   UNL     1       0.354  -0.003  -0.851  0.00  0.00    -0.046 A 
ATOM     25  C   UNL     1       1.250  -0.679  -0.043  0.00  0.00    +0.004 A 
ATOM     26  C   UNL     1       2.090   0.023   0.802  0.00  0.00    +0.002 A 
ATOM     27  C   UNL     1       2.035   1.403   0.842  0.00  0.00    +0.028 A 
ATOM     28  C   UNL     1       1.135   2.084   0.033  0.00  0.00    +0.072 A 
ATOM     29  C   UNL     1       0.294   1.376  -0.815  0.00  0.00    -0.022 A 
ATOM     30  C   UNL     1      -0.679   2.113  -1.699  0.00  0.00    +0.046 C 
ENDBRANCH   1  28
BRANCH   4  31
ATOM     31  C   UNL     1      -0.736   6.668   0.286  0.00  0.00    +0.034 C 
ATOM     32  C   UNL     1      -1.708   6.625  -0.895  0.00  0.00    +0.014 C 
ATOM     33  C   UNL     1      -1.520   6.564   1.596  0.00  0.00    +0.014 C 
ENDBRANCH   4  31
BRANCH   2  34
ATOM     34  O   UNL     1       3.438   3.963  -0.094  0.00  0.00    -0.492 OA
ATOM     35  H   UNL     1       3.750   3.880  -1.006  0.00  0.00    +0.294 HD
ENDBRANCH   2  34
TORSDOF 6
