REMARK  Name = ZINC04185391
REMARK  7 active torsions:
REMARK  status: ('A' for Active; 'I' for Inactive)
REMARK    1  A    between atoms: C_4  and  C_7
REMARK    2  A    between atoms: C_8  and  C_9
REMARK    3  A    between atoms: N_19  and  C_28
REMARK    4  A    between atoms: N_21  and  C_22
REMARK    5  A    between atoms: C_28  and  C_29
REMARK    6  A    between atoms: N_31  and  C_32
REMARK    7  A    between atoms: C_32  and  C_33
REMARK                            x       y       z     vdW  Elec       q    Type
REMARK                         _______ _______ _______ _____ _____    ______ ____
ROOT
ATOM      1  C   UNL     1       1.724   5.785  -1.103  0.00  0.00    +0.239 C 
ATOM      2  O   UNL     1       1.890   6.079  -2.272  0.00  0.00    -0.271 OA
ATOM      3  N   UNL     1       1.289   4.553  -0.772  0.00  0.00    -0.298 N 
ATOM      4  C   UNL     1       1.126   3.517  -1.800  0.00  0.00    +0.110 C 
ATOM      5  C   UNL     1       1.917   2.274  -1.376  0.00  0.00    +0.054 C 
ATOM      6  C   UNL     1       1.488   1.857   0.028  0.00  0.00    +0.115 C 
ATOM      7  C   UNL     1       1.760   2.975   1.029  0.00  0.00    +0.054 C 
ATOM      8  C   UNL     1       0.968   4.224   0.623  0.00  0.00    +0.110 C 
ATOM      9  C   UNL     1       0.025   1.483   0.041  0.00  0.00    +0.241 C 
ATOM     10  O   UNL     1      -0.905   2.261   0.038  0.00  0.00    -0.273 OA
ATOM     11  N   UNL     1      -0.070   0.137   0.050  0.00  0.00    -0.275 N 
ATOM     12  C   UNL     1       1.276  -0.451   0.028  0.00  0.00    +0.217 C 
ATOM     13  N   UNL     1       2.205   0.629   0.432  0.00  0.00    -0.300 N 
ENDROOT
BRANCH  13  14
ATOM     14  C   UNL     1       3.425   0.517  -0.240  0.00  0.00    +0.032 A 
ATOM     15  C   UNL     1       3.683  -0.593  -1.033  0.00  0.00    +0.023 A 
ATOM     16  C   UNL     1       4.888  -0.698  -1.700  0.00  0.00    +0.002 A 
ATOM     17  C   UNL     1       5.841   0.296  -1.570  0.00  0.00    +0.000 A 
ATOM     18  C   UNL     1       5.589   1.400  -0.777  0.00  0.00    +0.002 A 
ATOM     19  C   UNL     1       4.384   1.514  -0.112  0.00  0.00    +0.023 A 
ENDBRANCH  13  14
BRANCH   1  21
ATOM     20  C   UNL     1       2.329   8.035  -0.389  0.00  0.00    +0.013 C 
ATOM     21  C   UNL     1       1.998   6.771  -0.055  0.00  0.00    +0.068 C 
BRANCH  20  25
ATOM     22  C   UNL     1       3.122  10.890   2.647  0.00  0.00    +0.000 A 
ATOM     23  C   UNL     1       3.204  11.260   1.315  0.00  0.00    +0.001 A 
ATOM     24  C   UNL     1       2.948  10.337   0.323  0.00  0.00    +0.008 A 
ATOM     25  C   UNL     1       2.605   9.025   0.665  0.00  0.00    -0.025 A 
ATOM     26  C   UNL     1       2.519   8.661   2.012  0.00  0.00    +0.008 A 
ATOM     27  C   UNL     1       2.783   9.594   2.993  0.00  0.00    +0.001 A 
ENDBRANCH  20  25
ENDBRANCH   1  21
BRANCH  11  28
ATOM     28  C   UNL     1      -1.323  -0.621   0.078  0.00  0.00    +0.205 C 
BRANCH  28  29
ATOM     29  C   UNL     1      -1.780  -0.889  -1.333  0.00  0.00    +0.231 C 
ATOM     30  O   UNL     1      -1.123  -0.486  -2.269  0.00  0.00    -0.274 OA
ATOM     31  N   UNL     1      -2.918  -1.576  -1.554  0.00  0.00    -0.307 N 
ATOM     32  H   UNL     1      -3.443  -1.898  -0.805  0.00  0.00    +0.149 HD
BRANCH  31  33
ATOM     33  C   UNL     1      -3.362  -1.836  -2.925  0.00  0.00    +0.178 C 
BRANCH  33  34
ATOM     34  C   UNL     1      -4.651  -2.615  -2.897  0.00  0.00    +0.122 A 
ATOM     35  C   UNL     1      -5.889  -2.089  -2.876  0.00  0.00    +0.046 A 
ATOM     36  C   UNL     1      -6.795  -3.174  -2.853  0.00  0.00    +0.041 A 
ATOM     37  C   UNL     1      -6.057  -4.298  -2.861  0.00  0.00    +0.195 A 
ATOM     38  O   UNL     1      -4.760  -3.954  -2.893  0.00  0.00    -0.466 OA
ENDBRANCH  33  34
ENDBRANCH  31  33
ENDBRANCH  28  29
ENDBRANCH  11  28
TORSDOF 7
