REMARK  Name = ZINC08694226
REMARK  19 active torsions:
REMARK  status: ('A' for Active; 'I' for Inactive)
REMARK    1  A    between atoms: C_1  and  C_2
REMARK    2  A    between atoms: C_2  and  O_42
REMARK    3  A    between atoms: N_4  and  C_30
REMARK    4  A    between atoms: C_5  and  C_22
REMARK    5  A    between atoms: N_9  and  C_10
REMARK    6  A    between atoms: C_10  and  C_11
REMARK    7  A    between atoms: C_11  and  C_12
REMARK    8  A    between atoms: C_15  and  O_20
REMARK    9  A    between atoms: C_16  and  O_18
REMARK   10  A    between atoms: O_18  and  C_19
REMARK   11  A    between atoms: O_20  and  C_21
REMARK   12  A    between atoms: C_25  and  O_28
REMARK   13  A    between atoms: O_28  and  C_29
REMARK   14  A    between atoms: C_30  and  C_31
REMARK   15  A    between atoms: C_31  and  C_32
REMARK   16  A    between atoms: C_35  and  O_40
REMARK   17  A    between atoms: C_36  and  O_38
REMARK   18  A    between atoms: O_38  and  C_39
REMARK   19  A    between atoms: O_40  and  C_41
REMARK                            x       y       z     vdW  Elec       q    Type
REMARK                         _______ _______ _______ _____ _____    ______ ____
ROOT
ATOM      1  C   UNL     1      -0.185   1.454   0.152  0.00  0.00    +0.046 C 
ATOM      2  C   UNL     1      -0.035  -0.062   0.011  0.00  0.00    +0.086 C 
ATOM      3  C   UNL     1      -1.420  -0.716  -0.058  0.00  0.00    -0.037 C 
ATOM      4  N   UNL     1      -2.119  -0.516   1.216  0.00  0.00    +0.387 N 
ATOM      5  C   UNL     1      -1.443  -1.258   2.287  0.00  0.00    -0.032 C 
ATOM      6  C   UNL     1      -0.059  -0.647   2.537  0.00  0.00    +0.042 C 
ATOM      7  C   UNL     1       0.690  -0.618   1.220  0.00  0.00    +0.041 C 
ATOM      8  N   UNL     1       1.891  -1.049   1.132  0.00  0.00    -0.289 NA
ATOM      9  H   UNL     1      -2.127   0.467   1.444  0.00  0.00    -0.081 HD
ENDROOT
BRANCH   5  10
ATOM     10  C   UNL     1      -2.262  -1.178   3.549  0.00  0.00    -0.060 A 
ATOM     11  C   UNL     1      -2.890   0.005   3.890  0.00  0.00    +0.005 A 
ATOM     12  C   UNL     1      -3.642   0.081   5.047  0.00  0.00    +0.046 A 
ATOM     13  C   UNL     1      -3.766  -1.031   5.866  0.00  0.00    +0.120 A 
ATOM     14  C   UNL     1      -3.135  -2.218   5.521  0.00  0.00    +0.046 A 
ATOM     15  C   UNL     1      -2.389  -2.290   4.361  0.00  0.00    +0.005 A 
BRANCH  13  16
ATOM     16  O   UNL     1      -4.505  -0.959   7.005  0.00  0.00    -0.495 OA
ATOM     17  C   UNL     1      -4.589  -2.143   7.800  0.00  0.00    +0.277 C 
ENDBRANCH  13  16
ENDBRANCH   5  10
BRANCH   2  18
ATOM     18  O   UNL     1       0.703  -0.366  -1.174  0.00  0.00    -0.385 OA
ATOM     19  H   UNL     1       1.594   0.009  -1.190  0.00  0.00    +0.211 HD
ENDBRANCH   2  18
BRANCH   8  20
ATOM     20  C   UNL     1       2.623  -1.431   2.343  0.00  0.00    +0.146 C 
BRANCH  20  21
ATOM     21  C   UNL     1       2.895  -2.937   2.319  0.00  0.00    +0.058 C 
BRANCH  21  22
ATOM     22  C   UNL     1       3.647  -3.330   3.564  0.00  0.00    -0.042 A 
ATOM     23  C   UNL     1       5.030  -3.308   3.571  0.00  0.00    +0.007 A 
ATOM     24  C   UNL     1       5.724  -3.668   4.711  0.00  0.00    +0.049 A 
ATOM     25  C   UNL     1       5.035  -4.052   5.850  0.00  0.00    +0.161 A 
ATOM     26  C   UNL     1       3.644  -4.074   5.843  0.00  0.00    +0.162 A 
ATOM     27  C   UNL     1       2.954  -3.707   4.699  0.00  0.00    +0.053 A 
BRANCH  26  28
ATOM     28  O   UNL     1       2.963  -4.450   6.959  0.00  0.00    -0.491 OA
ATOM     29  C   UNL     1       1.536  -4.448   6.880  0.00  0.00    +0.277 C 
ENDBRANCH  26  28
BRANCH  25  30
ATOM     30  O   UNL     1       5.717  -4.407   6.972  0.00  0.00    -0.491 OA
ATOM     31  C   UNL     1       7.144  -4.362   6.905  0.00  0.00    +0.277 C 
ENDBRANCH  25  30
ENDBRANCH  21  22
ENDBRANCH  20  21
ENDBRANCH   8  20
BRANCH   4  32
ATOM     32  C   UNL     1      -3.503  -0.995   1.092  0.00  0.00    -0.073 C 
BRANCH  32  33
ATOM     33  C   UNL     1      -4.253  -0.129   0.078  0.00  0.00    +0.017 C 
BRANCH  33  34
ATOM     34  C   UNL     1      -5.672  -0.620  -0.050  0.00  0.00    -0.045 A 
ATOM     35  C   UNL     1      -5.985  -1.590  -0.984  0.00  0.00    +0.007 A 
ATOM     36  C   UNL     1      -7.285  -2.044  -1.105  0.00  0.00    +0.049 A 
ATOM     37  C   UNL     1      -8.278  -1.527  -0.288  0.00  0.00    +0.161 A 
ATOM     38  C   UNL     1      -7.963  -0.551   0.653  0.00  0.00    +0.162 A 
ATOM     39  C   UNL     1      -6.657  -0.104   0.772  0.00  0.00    +0.053 A 
BRANCH  38  40
ATOM     40  O   UNL     1      -8.934  -0.041   1.457  0.00  0.00    -0.491 OA
ATOM     41  C   UNL     1      -8.537   0.958   2.399  0.00  0.00    +0.277 C 
ENDBRANCH  38  40
BRANCH  37  42
ATOM     42  O   UNL     1      -9.558  -1.972  -0.406  0.00  0.00    -0.491 OA
ATOM     43  C   UNL     1      -9.808  -2.974  -1.393  0.00  0.00    +0.277 C 
ENDBRANCH  37  42
ENDBRANCH  33  34
ENDBRANCH  32  33
ENDBRANCH   4  32
TORSDOF 13
