REMARK  Name = ZINC34830121
REMARK  10 active torsions:
REMARK  status: ('A' for Active; 'I' for Inactive)
REMARK    1  A    between atoms: C_1  and  C_2
REMARK    2  A    between atoms: C_2  and  C_3
REMARK    3  A    between atoms: C_3  and  C_4
REMARK    4  A    between atoms: C_4  and  C_5
REMARK    5  A    between atoms: C_8  and  C_11
REMARK    6  A    between atoms: C_18  and  C_20
REMARK    7  A    between atoms: C_21  and  C_23
REMARK    8  A    between atoms: C_23  and  C_24
REMARK    9  A    between atoms: C_24  and  N_25
REMARK   10  A    between atoms: C_33  and  C_35
REMARK                            x       y       z     vdW  Elec       q    Type
REMARK                         _______ _______ _______ _____ _____    ______ ____
ROOT
ATOM      1  C   UNL     1      -6.811  -4.056   0.045  0.00  0.00    +0.247 C 
ATOM      2  O   UNL     1      -7.349  -4.333   1.100  0.00  0.00    -0.270 OA
ATOM      3  N   UNL     1      -7.488  -4.193  -1.112  0.00  0.00    -0.292 N 
ATOM      4  C   UNL     1      -6.824  -3.947  -2.400  0.00  0.00    +0.127 C 
ATOM      5  C   UNL     1      -7.630  -2.897  -3.175  0.00  0.00    +0.127 C 
ATOM      6  N   UNL     1      -9.045  -3.295  -3.172  0.00  0.00    -0.298 N 
ATOM      7  C   UNL     1      -9.709  -3.540  -1.884  0.00  0.00    +0.130 C 
ATOM      8  C   UNL     1      -8.901  -4.596  -1.109  0.00  0.00    +0.091 C 
ATOM      9  C   UNL     1      -9.047  -5.959  -1.788  0.00  0.00    +0.029 C 
ATOM     10  C   UNL     1      -9.721  -3.432  -4.329  0.00  0.00    +0.214 C 
ATOM     11  O   UNL     1     -10.889  -3.760  -4.314  0.00  0.00    -0.276 OA
ENDROOT
BRANCH   1  15
ATOM     12  C   UNL     1      -2.801  -2.657   0.008  0.00  0.00    -0.047 A 
ATOM     13  C   UNL     1      -3.169  -3.713  -0.806  0.00  0.00    +0.004 A 
ATOM     14  C   UNL     1      -4.470  -4.173  -0.798  0.00  0.00    +0.013 A 
ATOM     15  C   UNL     1      -5.415  -3.569   0.033  0.00  0.00    +0.037 A 
ATOM     16  C   UNL     1      -5.037  -2.503   0.851  0.00  0.00    +0.013 A 
ATOM     17  C   UNL     1      -3.732  -2.057   0.838  0.00  0.00    +0.004 A 
BRANCH  12  18
ATOM     18  C   UNL     1      -1.378  -2.160  -0.006  0.00  0.00    +0.035 C 
BRANCH  18  19
ATOM     19  C   UNL     1      -0.561  -2.924   1.038  0.00  0.00    +0.004 C 
BRANCH  19  21
ATOM     20  C   UNL     1       1.700  -3.184   2.069  0.00  0.00    +0.004 C 
ATOM     21  C   UNL     1       0.883  -2.420   1.025  0.00  0.00    -0.003 C 
ENDBRANCH  19  21
ENDBRANCH  18  19
ENDBRANCH  12  18
ENDBRANCH   1  15
BRANCH  10  22
ATOM     22  C   UNL     1      -9.027  -3.176  -5.642  0.00  0.00    +0.077 C 
BRANCH  22  23
ATOM     23  C   UNL     1     -10.012  -3.400  -6.792  0.00  0.00    -0.068 C 
BRANCH  23  24
ATOM     24  N   UNL     1      -9.336  -3.151  -8.072  0.00  0.00    +0.388 N 
ATOM     25  C   UNL     1      -8.257  -4.132  -8.247  0.00  0.00    -0.072 C 
ATOM     26  C   UNL     1      -7.351  -3.674  -9.403  0.00  0.00    +0.024 C 
ATOM     27  C   UNL     1      -8.236  -3.292 -10.544  0.00  0.00    -0.010 A 
ATOM     28  C   UNL     1      -9.583  -3.091 -10.492  0.00  0.00    -0.047 A 
ATOM     29  C   UNL     1     -10.207  -2.744 -11.687  0.00  0.00    +0.010 A 
ATOM     30  C   UNL     1      -9.477  -2.620 -12.820  0.00  0.00    +0.045 A 
ATOM     31  S   UNL     1      -7.829  -2.996 -12.241  0.00  0.00    -0.101 S 
ATOM     32  C   UNL     1     -10.314  -3.250  -9.162  0.00  0.00    -0.006 C 
ATOM     33  H   UNL     1      -8.941  -2.222  -8.063  0.00  0.00    -0.080 HD
BRANCH  32  34
ATOM     34  C   UNL     1     -11.344  -2.159  -9.018  0.00  0.00    -0.057 A 
ATOM     35  C   UNL     1     -10.956  -0.888  -8.634  0.00  0.00    +0.002 A 
ATOM     36  C   UNL     1     -11.900   0.112  -8.502  0.00  0.00    +0.000 A 
ATOM     37  C   UNL     1     -13.232  -0.157  -8.753  0.00  0.00    +0.000 A 
ATOM     38  C   UNL     1     -13.620  -1.427  -9.138  0.00  0.00    +0.000 A 
ATOM     39  C   UNL     1     -12.675  -2.427  -9.274  0.00  0.00    +0.002 A 
ENDBRANCH  32  34
ENDBRANCH  23  24
ENDBRANCH  22  23
ENDBRANCH  10  22
TORSDOF 8
