REMARK  Name = ZINC09219821
REMARK  16 active torsions:
REMARK  status: ('A' for Active; 'I' for Inactive)
REMARK    1  A    between atoms: C_1  and  C_2
REMARK    2  A    between atoms: C_2  and  C_3
REMARK    3  A    between atoms: C_2  and  C_4
REMARK    4  A    between atoms: C_2  and  C_5
REMARK    5  A    between atoms: C_7  and  C_16
REMARK    6  A    between atoms: C_9  and  C_12
REMARK    7  A    between atoms: C_10  and  O_11
REMARK    8  A    between atoms: C_12  and  C_13
REMARK    9  A    between atoms: C_12  and  C_14
REMARK   10  A    between atoms: C_12  and  C_15
REMARK   11  A    between atoms: C_16  and  C_17
REMARK   12  A    between atoms: C_17  and  C_18
REMARK   13  A    between atoms: N_20  and  N_21
REMARK   14  A    between atoms: C_22  and  C_24
REMARK   15  A    between atoms: C_24  and  C_25
REMARK   16  A    between atoms: N_33  and  C_34
REMARK                            x       y       z     vdW  Elec       q    Type
REMARK                         _______ _______ _______ _____ _____    ______ ____
ROOT
ATOM      1  C   UNL     1       5.508  -0.951   3.098  0.00  0.00    +0.229 C 
ATOM      2  O   UNL     1       5.411  -2.158   3.036  0.00  0.00    -0.274 OA
ATOM      3  N   UNL     1       6.721  -0.368   3.026  0.00  0.00    -0.234 N 
ATOM      4  H   UNL     1       6.799   0.598   3.076  0.00  0.00    +0.173 HD
ENDROOT
BRANCH   3   5
ATOM      5  N   UNL     1       7.870  -1.156   2.881  0.00  0.00    -0.234 N 
ATOM      6  C   UNL     1       9.083  -0.573   2.809  0.00  0.00    +0.236 C 
ATOM      7  O   UNL     1       9.180   0.634   2.871  0.00  0.00    -0.274 OA
ATOM      8  H   UNL     1       7.792  -2.122   2.831  0.00  0.00    +0.173 HD
BRANCH   6   9
ATOM      9  C   UNL     1      10.318  -1.422   2.652  0.00  0.00    +0.171 C 
BRANCH   9  10
ATOM     10  C   UNL     1      11.534  -0.533   2.599  0.00  0.00    +0.119 A 
ATOM     11  N   UNL     1      12.047  -0.036   1.511  0.00  0.00    -0.232 NA
ATOM     12  C   UNL     1      13.132   0.719   1.821  0.00  0.00    +0.089 A 
ATOM     13  C   UNL     1      14.036   1.465   1.060  0.00  0.00    +0.030 A 
ATOM     14  C   UNL     1      15.057   2.131   1.676  0.00  0.00    +0.002 A 
ATOM     15  C   UNL     1      15.209   2.075   3.055  0.00  0.00    +0.002 A 
ATOM     16  C   UNL     1      14.329   1.345   3.825  0.00  0.00    +0.028 A 
ATOM     17  C   UNL     1      13.285   0.661   3.216  0.00  0.00    +0.069 A 
ATOM     18  N   UNL     1      12.259  -0.138   3.680  0.00  0.00    -0.330 N 
ATOM     19  C   UNL     1      12.000  -0.495   5.077  0.00  0.00    +0.150 C 
ENDBRANCH   9  10
ENDBRANCH   6   9
ENDBRANCH   3   5
BRANCH   1  20
ATOM     20  C   UNL     1       4.272  -0.102   3.255  0.00  0.00    +0.102 C 
BRANCH  20  21
ATOM     21  C   UNL     1       3.038  -1.004   3.310  0.00  0.00    +0.044 C 
BRANCH  21  24
ATOM     22  C   UNL     1       0.000   1.080   2.488  0.00  0.00    -0.000 A 
ATOM     23  C   UNL     1       1.133   0.302   2.347  0.00  0.00    +0.011 A 
ATOM     24  C   UNL     1       1.802  -0.156   3.466  0.00  0.00    -0.046 A 
ATOM     25  C   UNL     1       1.340   0.163   4.730  0.00  0.00    +0.011 A 
ATOM     26  C   UNL     1       0.208   0.942   4.876  0.00  0.00    -0.000 A 
ATOM     27  C   UNL     1      -0.463   1.406   3.754  0.00  0.00    +0.124 A 
BRANCH  22  29
ATOM     28  C   UNL     1      -0.013   1.086   0.008  0.00  0.00    +0.015 C 
ATOM     29  C   UNL     1      -0.729   1.579   1.267  0.00  0.00    -0.009 C 
ATOM     30  C   UNL     1      -0.750   3.109   1.275  0.00  0.00    +0.015 C 
ATOM     31  C   UNL     1      -2.164   1.050   1.278  0.00  0.00    +0.015 C 
ENDBRANCH  22  29
BRANCH  26  32
ATOM     32  C   UNL     1      -0.295   1.290   6.253  0.00  0.00    -0.009 C 
ATOM     33  C   UNL     1       0.622   0.662   7.305  0.00  0.00    +0.015 C 
ATOM     34  C   UNL     1      -0.301   2.810   6.425  0.00  0.00    +0.015 C 
ATOM     35  C   UNL     1      -1.716   0.751   6.429  0.00  0.00    +0.015 C 
ENDBRANCH  26  32
BRANCH  27  36
ATOM     36  O   UNL     1      -1.573   2.176   3.896  0.00  0.00    -0.506 OA
ATOM     37  H   UNL     1      -2.398   1.673   3.940  0.00  0.00    +0.292 HD
ENDBRANCH  27  36
ENDBRANCH  21  24
ENDBRANCH  20  21
ENDBRANCH   1  20
TORSDOF 9
