REMARK  Name = ZINC39676993
REMARK  11 active torsions:
REMARK  status: ('A' for Active; 'I' for Inactive)
REMARK    1  A    between atoms: C_1  and  C_2
REMARK    2  A    between atoms: C_5  and  C_37
REMARK    3  A    between atoms: C_6  and  C_8
REMARK    4  A    between atoms: C_8  and  C_9
REMARK    5  A    between atoms: C_9  and  N_10
REMARK    6  A    between atoms: C_11  and  C_13
REMARK    7  A    between atoms: C_24  and  C_26
REMARK    8  A    between atoms: C_30  and  O_33
REMARK    9  A    between atoms: C_31  and  C_32
REMARK   10  A    between atoms: O_33  and  C_34
REMARK   11  A    between atoms: C_34  and  C_36
REMARK                            x       y       z     vdW  Elec       q    Type
REMARK                         _______ _______ _______ _____ _____    ______ ____
ROOT
ATOM      1  C   UNL     1       3.402  -5.426   5.630  0.00  0.00    +0.100 C 
ATOM      2  C   UNL     1       2.397  -6.599   5.624  0.00  0.00    +0.121 C 
ATOM      3  N   UNL     1       3.190  -7.770   5.180  0.00  0.00    -0.296 N 
ATOM      4  C   UNL     1       4.500  -7.604   5.853  0.00  0.00    +0.115 C 
ATOM      5  C   UNL     1       4.781  -6.090   5.784  0.00  0.00    -0.004 C 
ATOM      6  C   UNL     1       5.659  -5.771   4.577  0.00  0.00    -0.010 C 
ATOM      7  C   UNL     1       7.043  -6.394   4.780  0.00  0.00    -0.082 C 
ATOM      8  N   UNL     1       7.648  -5.857   6.005  0.00  0.00    +0.379 N 
ATOM      9  C   UNL     1       6.847  -6.247   7.171  0.00  0.00    -0.082 C 
ATOM     10  C   UNL     1       5.454  -5.619   7.070  0.00  0.00    -0.010 C 
ATOM     11  C   UNL     1       2.806  -8.762   4.353  0.00  0.00    +0.247 C 
ATOM     12  O   UNL     1       3.542  -9.709   4.157  0.00  0.00    -0.270 OA
ATOM     13  H   UNL     1       8.584  -6.222   6.104  0.00  0.00    -0.086 HD
ATOM     14  H   UNL     1       7.687  -4.851   5.946  0.00  0.00    -0.086 HD
ENDROOT
BRANCH  11  15
ATOM     15  C   UNL     1       1.489  -8.698   3.683  0.00  0.00    +0.043 A 
ATOM     16  C   UNL     1       0.390  -8.154   4.349  0.00  0.00    +0.013 A 
ATOM     17  C   UNL     1      -0.837  -8.095   3.721  0.00  0.00    +0.004 A 
ATOM     18  C   UNL     1      -0.982  -8.575   2.432  0.00  0.00    +0.047 A 
ATOM     19  C   UNL     1       0.105  -9.118   1.762  0.00  0.00    +0.135 A 
ATOM     20  C   UNL     1       1.342  -9.177   2.381  0.00  0.00    +0.004 A 
ATOM     21  C   UNL     1       2.525  -9.761   1.652  0.00  0.00    +0.048 C 
BRANCH  19  22
ATOM     22  O   UNL     1      -0.044  -9.588   0.495  0.00  0.00    -0.426 OA
BRANCH  22  23
ATOM     23  C   UNL     1      -0.309 -10.895   0.335  0.00  0.00    +0.309 C 
ATOM     24  O   UNL     1      -0.500 -11.596   1.300  0.00  0.00    -0.251 OA
ATOM     25  C   UNL     1      -0.367 -11.487  -1.050  0.00  0.00    +0.136 C 
ENDBRANCH  22  23
ENDBRANCH  19  22
ENDBRANCH  11  15
BRANCH   1  27
ATOM     26  N   UNL     1       3.659  -3.359   4.298  0.00  0.00    -0.315 N 
ATOM     27  C   UNL     1       3.328  -4.665   4.332  0.00  0.00    +0.218 C 
ATOM     28  O   UNL     1       2.971  -5.227   3.319  0.00  0.00    -0.275 OA
ATOM     29  H   UNL     1       3.946  -2.909   5.108  0.00  0.00    +0.149 HD
BRANCH  26  30
ATOM     30  C   UNL     1       3.587  -2.618   3.036  0.00  0.00    +0.109 C 
BRANCH  30  31
ATOM     31  C   UNL     1       4.013  -1.167   3.271  0.00  0.00    +0.054 C 
BRANCH  31  37
ATOM     32  C   UNL     1       6.234   0.594  -0.854  0.00  0.00    +0.044 C 
ATOM     33  C   UNL     1       5.002   0.438  -0.000  0.00  0.00    -0.050 A 
ATOM     34  C   UNL     1       3.803   0.994  -0.408  0.00  0.00    +0.003 A 
ATOM     35  C   UNL     1       2.673   0.850   0.374  0.00  0.00    +0.004 A 
ATOM     36  C   UNL     1       2.741   0.151   1.565  0.00  0.00    -0.047 A 
ATOM     37  C   UNL     1       3.939  -0.405   1.973  0.00  0.00    -0.043 A 
ATOM     38  C   UNL     1       5.068  -0.266   1.188  0.00  0.00    +0.007 A 
ATOM     39  C   UNL     1       1.509  -0.004   2.419  0.00  0.00    +0.044 C 
ENDBRANCH  31  37
ENDBRANCH  30  31
ENDBRANCH  26  30
ENDBRANCH   1  27
TORSDOF 7
