REMARK  Name = ZINC64771985
REMARK  9 active torsions:
REMARK  status: ('A' for Active; 'I' for Inactive)
REMARK    1  A    between atoms: C_1  and  C_2
REMARK    2  A    between atoms: C_7  and  C_12
REMARK    3  A    between atoms: C_12  and  N_13
REMARK    4  A    between atoms: C_14  and  C_16
REMARK    5  A    between atoms: N_21  and  S_23
REMARK    6  A    between atoms: S_23  and  C_26
REMARK    7  A    between atoms: C_28  and  C_32
REMARK    8  A    between atoms: C_30  and  C_31
REMARK    9  A    between atoms: C_34  and  C_37
REMARK                            x       y       z     vdW  Elec       q    Type
REMARK                         _______ _______ _______ _____ _____    ______ ____
ROOT
ATOM      1  C   UNL     1       4.961  -4.014   1.381  0.00  0.00    +0.091 C 
ATOM      2  C   UNL     1       4.944  -2.644   2.062  0.00  0.00    +0.015 C 
ATOM      3  C   UNL     1       6.159  -1.832   1.610  0.00  0.00    +0.018 C 
ATOM      4  C   UNL     1       7.440  -2.562   2.025  0.00  0.00    +0.109 C 
ATOM      5  N   UNL     1       7.397  -3.931   1.493  0.00  0.00    -0.176 NA
ATOM      6  C   UNL     1       6.229  -4.770   1.792  0.00  0.00    +0.122 C 
ENDROOT
BRANCH   1   8
ATOM      7  N   UNL     1       2.513  -4.326   1.543  0.00  0.00    -0.311 N 
ATOM      8  C   UNL     1       3.747  -4.801   1.802  0.00  0.00    +0.218 C 
ATOM      9  O   UNL     1       3.881  -5.862   2.374  0.00  0.00    -0.275 OA
ATOM     10  H   UNL     1       2.406  -3.477   1.085  0.00  0.00    +0.149 HD
BRANCH   7  11
ATOM     11  C   UNL     1       1.332  -5.091   1.952  0.00  0.00    +0.150 C 
BRANCH  11  18
ATOM     12  C   UNL     1      -0.018   1.503   0.010  0.00  0.00    +0.044 C 
ATOM     13  C   UNL     1       0.002  -0.004   0.002  0.00  0.00    -0.048 A 
ATOM     14  C   UNL     1       0.005  -0.672  -1.235  0.00  0.00    +0.005 A 
ATOM     15  C   UNL     1       0.022  -2.017  -1.335  0.00  0.00    +0.027 A 
ATOM     16  C   UNL     1       0.040  -2.834  -0.114  0.00  0.00    +0.060 A 
ATOM     17  N   UNL     1       0.057  -4.120   0.090  0.00  0.00    -0.362 N 
ATOM     18  C   UNL     1       0.067  -4.335   1.542  0.00  0.00    +0.191 C 
ATOM     19  N   UNL     1       0.053  -3.002   2.159  0.00  0.00    -0.362 N 
ATOM     20  C   UNL     1       0.037  -2.127   1.195  0.00  0.00    +0.060 A 
ATOM     21  C   UNL     1       0.022  -0.657   1.181  0.00  0.00    +0.030 A 
ATOM     22  H   UNL     1       0.062  -4.809  -0.593  0.00  0.00    +0.162 HD
ATOM     23  H   UNL     1       0.055  -2.810   3.109  0.00  0.00    +0.162 HD
ENDBRANCH  11  18
ENDBRANCH   7  11
ENDBRANCH   1   8
BRANCH   5  24
ATOM     24  S   UNL     1       8.643  -4.519   0.573  0.00  0.00    +0.062 S 
ATOM     25  O   UNL     1       8.102  -5.565  -0.222  0.00  0.00    -0.153 OA
ATOM     26  O   UNL     1       9.296  -3.391   0.006  0.00  0.00    -0.153 OA
BRANCH  24  27
ATOM     27  C   UNL     1       9.796  -5.267   1.675  0.00  0.00    +0.116 A 
ATOM     28  C   UNL     1      10.034  -6.622   1.619  0.00  0.00    +0.048 A 
ATOM     29  C   UNL     1      10.938  -7.168   2.492  0.00  0.00    +0.062 A 
ATOM     30  S   UNL     1      11.468  -5.736   3.417  0.00  0.00    -0.088 S 
ATOM     31  C   UNL     1      10.466  -4.514   2.586  0.00  0.00    +0.014 A 
ATOM     32  C   UNL     1      10.383  -3.030   2.833  0.00  0.00    +0.053 C 
BRANCH  29  33
ATOM     33  C   UNL     1      11.363  -8.576   2.631  0.00  0.00    +0.209 A 
ATOM     34  N   UNL     1      12.259  -9.042   3.522  0.00  0.00    -0.191 NA
ATOM     35  C   UNL     1      12.404 -10.328   3.377  0.00  0.00    +0.225 A 
ATOM     36  O   UNL     1      11.604 -10.738   2.385  0.00  0.00    -0.338 OA
ATOM     37  N   UNL     1      10.927  -9.584   1.911  0.00  0.00    -0.056 NA
ATOM     38  C   UNL     1      13.319 -11.207   4.190  0.00  0.00    +0.112 C 
ENDBRANCH  29  33
ENDBRANCH  24  27
ENDBRANCH   5  24
TORSDOF 6
