REMARK  Name = ZINC54438216
REMARK  4 active torsions:
REMARK  status: ('A' for Active; 'I' for Inactive)
REMARK    1  A    between atoms: C_4  and  O_7
REMARK    2  A    between atoms: O_7  and  C_8
REMARK    3  A    between atoms: C_8  and  C_9
REMARK    4  A    between atoms: C_13  and  N_15
REMARK                            x       y       z     vdW  Elec       q    Type
REMARK                         _______ _______ _______ _____ _____    ______ ____
ROOT
ATOM      1  C   UNL     1       4.932  -2.615  -0.061  0.00  0.00    +0.169 A 
ATOM      2  N   UNL     1       5.518  -2.840  -1.218  0.00  0.00    -0.233 NA
ATOM      3  C   UNL     1       6.755  -3.328  -1.284  0.00  0.00    +0.050 A 
ATOM      4  C   UNL     1       7.426  -3.596  -0.116  0.00  0.00    +0.013 A 
ATOM      5  C   UNL     1       6.774  -3.349   1.099  0.00  0.00    +0.123 A 
ATOM      6  N   UNL     1       5.540  -2.858   1.082  0.00  0.00    -0.214 NA
ATOM      7  C   UNL     1       8.829  -4.133  -0.086  0.00  0.00    +0.040 C 
ATOM      8  C   UNL     1       9.202  -4.729  -1.444  0.00  0.00    +0.005 C 
ATOM      9  C   UNL     1       8.879  -3.698  -2.532  0.00  0.00    +0.006 C 
ATOM     10  C   UNL     1       7.360  -3.568  -2.640  0.00  0.00    +0.056 C 
ENDROOT
BRANCH   5  11
ATOM     11  N   UNL     1       7.410  -3.610   2.302  0.00  0.00    -0.343 N 
ATOM     12  H   UNL     1       8.313  -3.965   2.306  0.00  0.00    +0.144 HD
ATOM     13  H   UNL     1       6.953  -3.437   3.139  0.00  0.00    +0.144 HD
ENDBRANCH   5  11
BRANCH   1  14
ATOM     14  C   UNL     1       3.531  -2.060  -0.044  0.00  0.00    +0.305 C 
BRANCH  14  15
ATOM     15  O   UNL     1       3.586  -0.632  -0.037  0.00  0.00    -0.484 OA
BRANCH  15  19
ATOM     16  C   UNL     1      -0.017   1.378   0.010  0.00  0.00    +0.000 A 
ATOM     17  C   UNL     1       1.170   2.088   0.002  0.00  0.00    +0.004 A 
ATOM     18  C   UNL     1       2.377   1.417  -0.013  0.00  0.00    +0.045 A 
ATOM     19  C   UNL     1       2.399   0.030  -0.021  0.00  0.00    +0.121 A 
ATOM     20  C   UNL     1       1.207  -0.680  -0.013  0.00  0.00    +0.045 A 
ATOM     21  C   UNL     1       0.002  -0.004   0.002  0.00  0.00    +0.004 A 
ENDBRANCH  15  19
ENDBRANCH  14  15
ENDBRANCH   1  14
TORSDOF 4
