REMARK  Name = ZINC09046409
REMARK  9 active torsions:
REMARK  status: ('A' for Active; 'I' for Inactive)
REMARK    1  A    between atoms: C_1  and  O_2
REMARK    2  A    between atoms: O_2  and  C_3
REMARK    3  A    between atoms: C_8  and  C_9
REMARK    4  A    between atoms: C_10  and  C_11
REMARK    5  A    between atoms: N_12  and  N_13
REMARK    6  A    between atoms: C_14  and  C_16
REMARK    7  A    between atoms: C_16  and  N_57
REMARK    8  A    between atoms: N_19  and  S_22
REMARK    9  A    between atoms: S_22  and  C_25
REMARK                            x       y       z     vdW  Elec       q    Type
REMARK                         _______ _______ _______ _____ _____    ______ ____
ROOT
ATOM      1  C   UNL     1      -1.472   3.606  -2.377  0.00  0.00    +0.020 C 
ENDROOT
BRANCH   1   7
ATOM      2  C   UNL     1      -1.526   3.052  -0.021  0.00  0.00    -0.061 C 
ATOM      3  C   UNL     1      -0.721   2.402   1.110  0.00  0.00    +0.091 C 
ATOM      4  N   UNL     1       0.533   3.151   1.285  0.00  0.00    -0.180 NA
ATOM      5  C   UNL     1       1.359   3.411   0.096  0.00  0.00    +0.091 C 
ATOM      6  C   UNL     1       0.472   4.021  -0.995  0.00  0.00    -0.061 C 
ATOM      7  N   UNL     1      -0.677   3.120  -1.230  0.00  0.00    +0.387 N 
ATOM      8  H   UNL     1      -0.325   2.180  -1.443  0.00  0.00    -0.081 HD
BRANCH   4   9
ATOM      9  S   UNL     1       0.998   3.691   2.780  0.00  0.00    +0.061 S 
ATOM     10  O   UNL     1       1.870   4.792   2.561  0.00  0.00    -0.153 OA
ATOM     11  O   UNL     1      -0.186   3.801   3.558  0.00  0.00    -0.153 OA
BRANCH   9  12
ATOM     12  C   UNL     1       1.969   2.418   3.515  0.00  0.00    +0.106 A 
ATOM     13  C   UNL     1       1.362   1.446   4.288  0.00  0.00    +0.029 A 
ATOM     14  C   UNL     1       2.122   0.444   4.861  0.00  0.00    +0.017 A 
ATOM     15  C   UNL     1       3.492   0.420   4.670  0.00  0.00    +0.018 A 
ATOM     16  C   UNL     1       4.099   1.397   3.901  0.00  0.00    +0.017 A 
ATOM     17  C   UNL     1       3.338   2.395   3.324  0.00  0.00    +0.029 A 
ATOM     18 BR   UNL     1       4.534  -0.946   5.460  0.00  0.00    -0.050 Br
ENDBRANCH   9  12
ENDBRANCH   4   9
ENDBRANCH   1   7
BRANCH   1  20
ATOM     19  N   UNL     1      -2.599   5.684  -3.105  0.00  0.00    -0.209 N 
ATOM     20  C   UNL     1      -1.954   5.013  -2.131  0.00  0.00    +0.216 C 
ATOM     21  O   UNL     1      -1.761   5.540  -1.056  0.00  0.00    -0.276 OA
ATOM     22  H   UNL     1      -2.753   5.263  -3.965  0.00  0.00    +0.177 HD
BRANCH  19  24
ATOM     23  C   UNL     1      -3.670   7.641  -3.818  0.00  0.00    +0.130 C 
ATOM     24  N   UNL     1      -3.047   6.992  -2.876  0.00  0.00    -0.188 NA
BRANCH  23  26
ATOM     25  C   UNL     1      -4.769   9.637  -4.561  0.00  0.00    +0.013 C 
ATOM     26  C   UNL     1      -4.123   8.964  -3.586  0.00  0.00    +0.022 C 
BRANCH  25  32
ATOM     27  C   UNL     1      -5.906  11.714  -5.334  0.00  0.00    +0.127 A 
ATOM     28  C   UNL     1      -6.350  13.005  -5.095  0.00  0.00    +0.046 A 
ATOM     29  C   UNL     1      -6.126  13.598  -3.866  0.00  0.00    +0.004 A 
ATOM     30  C   UNL     1      -5.463  12.908  -2.865  0.00  0.00    +0.001 A 
ATOM     31  C   UNL     1      -5.020  11.621  -3.083  0.00  0.00    +0.011 A 
ATOM     32  C   UNL     1      -5.239  11.009  -4.321  0.00  0.00    +0.017 A 
BRANCH  27  34
ATOM     33  C   UNL     1      -6.806  11.912  -7.525  0.00  0.00    +0.277 C 
ATOM     34  O   UNL     1      -6.121  11.133  -6.542  0.00  0.00    -0.495 OA
ENDBRANCH  27  34
ENDBRANCH  25  32
ENDBRANCH  23  26
ENDBRANCH  19  24
ENDBRANCH   1  20
TORSDOF 8
