REMARK  Name = ZINC13002575
REMARK  8 active torsions:
REMARK  status: ('A' for Active; 'I' for Inactive)
REMARK    1  A    between atoms: C_1  and  C_2
REMARK    2  A    between atoms: C_2  and  C_3
REMARK    3  A    between atoms: C_6  and  C_9
REMARK    4  A    between atoms: C_9  and  N_52
REMARK    5  A    between atoms: C_10  and  N_52
REMARK    6  A    between atoms: C_11  and  C_12
REMARK    7  A    between atoms: C_11  and  N_52
REMARK    8  A    between atoms: C_16  and  C_25
REMARK                            x       y       z     vdW  Elec       q    Type
REMARK                         _______ _______ _______ _____ _____    ______ ____
ROOT
ATOM      1  C   UNL     1       0.670   5.934   2.884  0.00  0.00    +0.203 C 
ATOM      2  O   UNL     1       0.642   5.097   3.761  0.00  0.00    -0.277 OA
ATOM      3  N   UNL     1       0.513   7.237   3.191  0.00  0.00    -0.266 N 
ATOM      4  C   UNL     1       0.453   8.267   2.139  0.00  0.00    +0.168 C 
ATOM      5  C   UNL     1       1.285   9.466   2.616  0.00  0.00    +0.276 C 
ATOM      6  O   UNL     1       0.752   9.932   3.858  0.00  0.00    -0.476 OA
ATOM      7  C   UNL     1       0.527   9.014   4.835  0.00  0.00    +0.143 A 
ATOM      8  C   UNL     1       0.396   7.661   4.526  0.00  0.00    +0.078 A 
ATOM      9  C   UNL     1       0.169   6.737   5.532  0.00  0.00    +0.027 A 
ATOM     10  C   UNL     1       0.064   7.158   6.845  0.00  0.00    +0.002 A 
ATOM     11  C   UNL     1       0.190   8.500   7.153  0.00  0.00    +0.004 A 
ATOM     12  C   UNL     1       0.421   9.427   6.154  0.00  0.00    +0.047 A 
ENDROOT
BRANCH   5  13
ATOM     13  C   UNL     1       1.214  10.569   1.591  0.00  0.00    +0.253 C 
ATOM     14  O   UNL     1       0.682  11.623   1.870  0.00  0.00    -0.272 OA
ATOM     15  N   UNL     1       1.743  10.384   0.365  0.00  0.00    -0.326 N 
ATOM     16  H   UNL     1       2.168   9.542   0.143  0.00  0.00    +0.145 HD
ATOM     17  H   UNL     1       1.698  11.094  -0.294  0.00  0.00    +0.145 HD
ENDBRANCH   5  13
BRANCH   1  18
ATOM     18  C   UNL     1       0.880   5.518   1.451  0.00  0.00    +0.019 C 
BRANCH  18  20
ATOM     19  C   UNL     1       2.428   3.753   2.043  0.00  0.00    -0.095 C 
ATOM     20  N   UNL     1       1.129   4.062   1.409  0.00  0.00    +0.386 N 
ATOM     21  H   UNL     1       0.383   3.581   1.925  0.00  0.00    -0.081 HD
BRANCH  20  22
ATOM     22  C   UNL     1       1.125   3.589   0.009  0.00  0.00    -0.043 C 
BRANCH  22  26
ATOM     23  C   UNL     1       1.222  -0.681  -0.004  0.00  0.00    -0.048 A 
ATOM     24  C   UNL     1       0.010  -0.018   0.029  0.00  0.00    +0.004 A 
ATOM     25  C   UNL     1      -0.021   1.364   0.033  0.00  0.00    +0.002 A 
ATOM     26  C   UNL     1       1.159   2.083   0.004  0.00  0.00    -0.064 A 
ATOM     27  C   UNL     1       2.372   1.419  -0.030  0.00  0.00    +0.002 A 
ATOM     28  C   UNL     1       2.403   0.037  -0.034  0.00  0.00    +0.004 A 
BRANCH  23  30
ATOM     29  C   UNL     1       1.230  -2.695  -1.452  0.00  0.00    +0.009 C 
ATOM     30  C   UNL     1       1.257  -2.188  -0.008  0.00  0.00    +0.032 C 
ENDBRANCH  23  30
ENDBRANCH  22  26
ENDBRANCH  20  22
ENDBRANCH  18  20
ENDBRANCH   1  18
TORSDOF 6
