REMARK  Name = ZINC00753546
REMARK  8 active torsions:
REMARK  status: ('A' for Active; 'I' for Inactive)
REMARK    1  A    between atoms: C_1  and  C_2
REMARK    2  A    between atoms: C_3  and  C_18
REMARK    3  A    between atoms: C_4  and  C_10
REMARK    4  A    between atoms: C_18  and  O_20
REMARK    5  A    between atoms: O_20  and  C_21
REMARK    6  A    between atoms: C_21  and  C_22
REMARK    7  A    between atoms: C_22  and  C_23
REMARK    8  A    between atoms: C_22  and  C_24
REMARK                            x       y       z     vdW  Elec       q    Type
REMARK                         _______ _______ _______ _____ _____    ______ ____
ROOT
ATOM      1  C   UNL     1       4.312   5.034  -3.509  0.00  0.00    +0.061 C 
ATOM      2  C   UNL     1       3.626   5.102  -2.169  0.00  0.00    +0.021 C 
ATOM      3  C   UNL     1       3.205   3.963  -1.579  0.00  0.00    +0.078 C 
ATOM      4  C   UNL     1       2.520   4.077  -0.233  0.00  0.00    +0.145 C 
ATOM      5  N   UNL     1       2.367   5.431   0.325  0.00  0.00    -0.288 N 
ATOM      6  C   UNL     1       2.839   6.474  -0.384  0.00  0.00    +0.304 C 
ATOM      7  O   UNL     1       2.718   7.596   0.068  0.00  0.00    -0.252 OA
ATOM      8  N   UNL     1       3.438   6.316  -1.572  0.00  0.00    -0.273 N 
ATOM      9  H   UNL     1       1.936   5.569   1.183  0.00  0.00    +0.151 HD
ATOM     10  H   UNL     1       3.756   7.108  -2.033  0.00  0.00    +0.156 HD
ENDROOT
BRANCH   4  11
ATOM     11  C   UNL     1       1.147   3.468  -0.357  0.00  0.00    -0.004 A 
ATOM     12  C   UNL     1       0.070   4.258  -0.714  0.00  0.00    +0.008 A 
ATOM     13  C   UNL     1      -1.189   3.700  -0.828  0.00  0.00    +0.020 A 
ATOM     14  C   UNL     1      -1.372   2.349  -0.591  0.00  0.00    +0.042 A 
ATOM     15  C   UNL     1      -0.296   1.559  -0.230  0.00  0.00    +0.040 A 
ATOM     16  C   UNL     1       0.965   2.118  -0.115  0.00  0.00    +0.048 A 
ATOM     17 CL   UNL     1       2.317   1.126   0.332  0.00  0.00    -0.083 Cl
ATOM     18 CL   UNL     1      -2.953   1.648  -0.742  0.00  0.00    -0.083 Cl
ENDBRANCH   4  11
BRANCH   3  19
ATOM     19  C   UNL     1       3.399   2.705  -2.197  0.00  0.00    +0.339 C 
ATOM     20  O   UNL     1       4.289   1.969  -1.815  0.00  0.00    -0.245 OA
BRANCH  19  21
ATOM     21  O   UNL     1       2.596   2.321  -3.212  0.00  0.00    -0.461 OA
BRANCH  21  22
ATOM     22  C   UNL     1       2.772   0.995  -3.713  0.00  0.00    +0.235 C 
BRANCH  22  23
ATOM     23  C   UNL     1       1.703   0.702  -4.767  0.00  0.00    +0.020 C 
ATOM     24  C   UNL     1       1.916   1.612  -5.978  0.00  0.00    +0.010 C 
ATOM     25  C   UNL     1       1.806  -0.761  -5.205  0.00  0.00    +0.010 C 
ENDBRANCH  22  23
ENDBRANCH  21  22
ENDBRANCH  19  21
ENDBRANCH   3  19
TORSDOF 5
