REMARK  Name = ZINC12526178
REMARK  3 active torsions:
REMARK  status: ('A' for Active; 'I' for Inactive)
REMARK    1  A    between atoms: C_1  and  N_2
REMARK    2  A    between atoms: N_7  and  S_8
REMARK    3  A    between atoms: S_8  and  C_11
REMARK                            x       y       z     vdW  Elec       q    Type
REMARK                         _______ _______ _______ _____ _____    ______ ____
ROOT
ATOM      1  S   UNL     1       0.505   4.373   0.020  0.00  0.00    +0.074 S 
ATOM      2  O   UNL     1       1.225   5.598   0.046  0.00  0.00    -0.150 OA
ATOM      3  O   UNL     1      -0.437   4.064  -0.998  0.00  0.00    -0.150 OA
ENDROOT
BRANCH   1  10
ATOM      4  C   UNL     1      -1.172  -0.881   0.008  0.00  0.00    +0.172 C 
ATOM      5  N   UNL     1       0.002  -0.004   0.002  0.00  0.00    -0.273 N 
ATOM      6  C   UNL     1       1.291  -0.405  -0.012  0.00  0.00    +0.110 A 
ATOM      7  C   UNL     1       2.069   0.701  -0.014  0.00  0.00    +0.066 A 
ATOM      8  C   UNL     1       1.224   1.823   0.000  0.00  0.00    +0.160 A 
ATOM      9  N   UNL     1      -0.017   1.397   0.010  0.00  0.00    -0.155 NA
ATOM     10  N   UNL     1       1.634   3.161   0.003  0.00  0.00    -0.198 N 
ATOM     11  H   UNL     1       2.579   3.379  -0.005  0.00  0.00    +0.175 HD
ENDBRANCH   1  10
BRANCH   1  12
ATOM     12  C   UNL     1      -0.355   4.261   1.553  0.00  0.00    +0.111 A 
ATOM     13  C   UNL     1      -1.495   3.485   1.651  0.00  0.00    +0.032 A 
ATOM     14  C   UNL     1      -2.169   3.392   2.854  0.00  0.00    +0.043 A 
ATOM     15  C   UNL     1      -1.709   4.085   3.960  0.00  0.00    +0.159 A 
ATOM     16  C   UNL     1      -0.569   4.868   3.861  0.00  0.00    +0.160 A 
ATOM     17  C   UNL     1       0.106   4.955   2.656  0.00  0.00    +0.070 A 
ATOM     18  F   UNL     1      -0.118   5.546   4.939  0.00  0.00    -0.202 F 
ATOM     19  F   UNL     1      -2.370   3.998   5.135  0.00  0.00    -0.202 F 
ENDBRANCH   1  12
TORSDOF 2
