REMARK  Name = ZINC21079972
REMARK  12 active torsions:
REMARK  status: ('A' for Active; 'I' for Inactive)
REMARK    1  A    between atoms: C_1  and  O_2
REMARK    2  A    between atoms: O_2  and  C_3
REMARK    3  A    between atoms: C_7  and  C_10
REMARK    4  A    between atoms: C_8  and  O_9
REMARK    5  A    between atoms: N_11  and  N_12
REMARK    6  A    between atoms: C_15  and  S_18
REMARK    7  A    between atoms: S_18  and  C_19
REMARK    8  A    between atoms: C_19  and  C_20
REMARK    9  A    between atoms: C_20  and  C_21
REMARK   10  A    between atoms: N_23  and  C_24
REMARK   11  A    between atoms: C_24  and  C_25
REMARK   12  A    between atoms: C_24  and  C_31
REMARK                            x       y       z     vdW  Elec       q    Type
REMARK                         _______ _______ _______ _____ _____    ______ ____
ROOT
ATOM      1  N   UNL     1      -1.150   2.163   0.019  0.00  0.00    -0.205 N 
ATOM      2  C   UNL     1      -0.017   1.363   0.009  0.00  0.00    +0.232 A 
ATOM      3  N   UNL     1       0.002  -0.004   0.002  0.00  0.00    -0.186 NA
ATOM      4  C   UNL     1       1.307  -0.408  -0.013  0.00  0.00    +0.210 A 
ATOM      5  N   UNL     1       2.063   0.663  -0.014  0.00  0.00    -0.144 NA
ATOM      6  N   UNL     1       1.225   1.785   0.000  0.00  0.00    -0.245 N 
ATOM      7  H   UNL     1      -2.148   1.702   0.022  0.00  0.00    +0.177 HD
ATOM      8  H   UNL     1       1.439   2.864   0.004  0.00  0.00    +0.192 HD
ENDROOT
BRANCH   1  10
ATOM      9  C   UNL     1      -2.083   4.307   0.036  0.00  0.00    +0.142 C 
ATOM     10  N   UNL     1      -1.022   3.558   0.026  0.00  0.00    -0.187 NA
BRANCH   9  15
ATOM     11  C   UNL     1      -0.564   7.750   0.047  0.00  0.00    +0.162 A 
ATOM     12  C   UNL     1      -1.703   8.540   0.057  0.00  0.00    +0.049 A 
ATOM     13  C   UNL     1      -2.958   7.957   0.060  0.00  0.00    +0.004 A 
ATOM     14  C   UNL     1      -3.088   6.584   0.053  0.00  0.00    +0.013 A 
ATOM     15  C   UNL     1      -1.949   5.775   0.043  0.00  0.00    +0.040 A 
ATOM     16  C   UNL     1      -0.679   6.365   0.046  0.00  0.00    +0.167 A 
BRANCH  11  18
ATOM     17  C   UNL     1       0.710   9.758   0.053  0.00  0.00    +0.277 C 
ATOM     18  O   UNL     1       0.666   8.330   0.045  0.00  0.00    -0.491 OA
ENDBRANCH  11  18
BRANCH  16  19
ATOM     19  O   UNL     1       0.436   5.588   0.042  0.00  0.00    -0.503 OA
ATOM     20  H   UNL     1       0.342   4.492   0.041  0.00  0.00    +0.292 HD
ENDBRANCH  16  19
ENDBRANCH   9  15
ENDBRANCH   1  10
BRANCH   4  21
ATOM     21  S   UNL     1       1.874  -2.077  -0.026  0.00  0.00    -0.084 S 
BRANCH  21  22
ATOM     22  C   UNL     1       3.681  -1.926  -0.043  0.00  0.00    +0.086 C 
BRANCH  22  23
ATOM     23  C   UNL     1       4.309  -3.321  -0.056  0.00  0.00    +0.107 C 
BRANCH  23  24
ATOM     24  C   UNL     1       5.811  -3.195  -0.070  0.00  0.00    +0.215 C 
ATOM     25  O   UNL     1       6.328  -2.098  -0.070  0.00  0.00    -0.276 OA
ATOM     26  N   UNL     1       6.580  -4.303  -0.083  0.00  0.00    -0.304 N 
ATOM     27  H   UNL     1       6.111  -5.298  -0.084  0.00  0.00    +0.150 HD
BRANCH  26  28
ATOM     28  C   UNL     1       8.040  -4.181  -0.097  0.00  0.00    +0.134 C 
BRANCH  28  29
ATOM     29  C   UNL     1       8.653  -5.425   0.492  0.00  0.00    -0.023 A 
ATOM     30  C   UNL     1       8.114  -6.665   0.202  0.00  0.00    +0.006 A 
ATOM     31  C   UNL     1       8.680  -7.806   0.738  0.00  0.00    +0.000 A 
ATOM     32  C   UNL     1       9.778  -7.708   1.571  0.00  0.00    +0.000 A 
ATOM     33  C   UNL     1      10.314  -6.468   1.865  0.00  0.00    +0.000 A 
ATOM     34  C   UNL     1       9.752  -5.326   1.325  0.00  0.00    +0.006 A 
ENDBRANCH  28  29
BRANCH  28  35
ATOM     35  C   UNL     1       8.516  -4.008  -1.516  0.00  0.00    -0.023 A 
ATOM     36  C   UNL     1       7.935  -4.741  -2.534  0.00  0.00    +0.006 A 
ATOM     37  C   UNL     1       8.369  -4.579  -3.836  0.00  0.00    +0.000 A 
ATOM     38  C   UNL     1       9.391  -3.692  -4.119  0.00  0.00    +0.000 A 
ATOM     39  C   UNL     1       9.976  -2.964  -3.101  0.00  0.00    +0.000 A 
ATOM     40  C   UNL     1       9.539  -3.122  -1.799  0.00  0.00    +0.006 A 
ENDBRANCH  28  35
ENDBRANCH  26  28
ENDBRANCH  23  24
ENDBRANCH  22  23
ENDBRANCH  21  22
ENDBRANCH   4  21
TORSDOF 11
