REMARK  Name = ZINC51300758
REMARK  6 active torsions:
REMARK  status: ('A' for Active; 'I' for Inactive)
REMARK    1  A    between atoms: C_1  and  C_2
REMARK    2  A    between atoms: C_2  and  C_4
REMARK    3  A    between atoms: C_2  and  N_12
REMARK    4  A    between atoms: N_15  and  C_16
REMARK    5  A    between atoms: C_16  and  C_17
REMARK    6  A    between atoms: C_17  and  C_18
REMARK                            x       y       z     vdW  Elec       q    Type
REMARK                         _______ _______ _______ _____ _____    ______ ____
ROOT
ATOM      1  N   UNL     1       0.668  -0.334  -1.260  0.00  0.00    -0.288 N 
ATOM      2  C   UNL     1      -0.054  -0.461  -2.390  0.00  0.00    +0.300 C 
ATOM      3  O   UNL     1      -1.259  -0.302  -2.362  0.00  0.00    -0.253 OA
ATOM      4  N   UNL     1       0.558  -0.766  -3.551  0.00  0.00    -0.299 N 
ATOM      5  H   UNL     1       1.630  -0.461  -1.282  0.00  0.00    +0.151 HD
ATOM      6  H   UNL     1       1.520  -0.893  -3.574  0.00  0.00    +0.150 HD
ENDROOT
BRANCH   1   8
ATOM      7  C   UNL     1      -0.162   1.514   0.110  0.00  0.00    +0.038 C 
ATOM      8  C   UNL     1       0.002  -0.003   0.002  0.00  0.00    +0.157 C 
BRANCH   8   9
ATOM      9  C   UNL     1       0.835  -0.501   1.155  0.00  0.00    +0.236 C 
ATOM     10  O   UNL     1       2.004  -0.774   0.986  0.00  0.00    -0.274 OA
ATOM     11  N   UNL     1       0.280  -0.644   2.375  0.00  0.00    -0.300 N 
ATOM     12  C   UNL     1      -1.161  -0.431   2.572  0.00  0.00    +0.108 C 
ATOM     13  C   UNL     1      -1.754  -1.668   3.252  0.00  0.00    +0.019 C 
ATOM     14  C   UNL     1      -0.980  -1.958   4.540  0.00  0.00    +0.003 C 
ATOM     15  C   UNL     1       0.484  -2.248   4.203  0.00  0.00    +0.019 C 
ATOM     16  C   UNL     1       1.102  -1.023   3.532  0.00  0.00    +0.108 C 
ENDBRANCH   8   9
ENDBRANCH   1   8
BRANCH   4  17
ATOM     17  C   UNL     1      -0.227  -0.904  -4.780  0.00  0.00    +0.110 C 
BRANCH  17  18
ATOM     18  C   UNL     1       0.703  -1.250  -5.944  0.00  0.00    +0.056 C 
BRANCH  18  19
ATOM     19  C   UNL     1      -0.105  -1.393  -7.208  0.00  0.00    -0.021 A 
ATOM     20  C   UNL     1      -0.593  -2.534  -7.719  0.00  0.00    +0.087 A 
ATOM     21  N   UNL     1      -1.276  -2.272  -8.876  0.00  0.00    -0.360 N 
ATOM     22  H   UNL     1      -1.718  -2.939  -9.425  0.00  0.00    +0.165 HD
ATOM     23  C   UNL     1      -1.242  -0.922  -9.145  0.00  0.00    +0.049 A 
ATOM     24  C   UNL     1      -0.512  -0.311  -8.109  0.00  0.00    +0.003 A 
ATOM     25  C   UNL     1      -0.318   1.071  -8.115  0.00  0.00    +0.013 A 
ATOM     26  C   UNL     1      -0.841   1.827  -9.126  0.00  0.00    +0.039 A 
ATOM     27  C   UNL     1      -1.566   1.229 -10.150  0.00  0.00    +0.125 A 
ATOM     28  C   UNL     1      -1.763  -0.136 -10.168  0.00  0.00    +0.064 A 
ATOM     29  F   UNL     1      -2.076   1.992 -11.142  0.00  0.00    -0.205 F 
ENDBRANCH  18  19
ENDBRANCH  17  18
ENDBRANCH   4  17
TORSDOF 5
