REMARK  Name = ZINC37353124
REMARK  4 active torsions:
REMARK  status: ('A' for Active; 'I' for Inactive)
REMARK    1  A    between atoms: C_1  and  C_2
REMARK    2  A    between atoms: C_3  and  C_19
REMARK    3  A    between atoms: N_4  and  C_12
REMARK    4  A    between atoms: C_7  and  N_11
REMARK                            x       y       z     vdW  Elec       q    Type
REMARK                         _______ _______ _______ _____ _____    ______ ____
ROOT
ATOM      1  C   UNL     1      -0.018   1.503   0.010  0.00  0.00    +0.046 C 
ATOM      2  C   UNL     1       0.002  -0.004   0.002  0.00  0.00    -0.017 A 
ATOM      3  C   UNL     1       0.008  -0.798  -1.081  0.00  0.00    +0.026 A 
ATOM      4  N   UNL     1       0.029  -2.115  -0.692  0.00  0.00    -0.298 N 
ATOM      5  C   UNL     1       0.036  -2.198   0.675  0.00  0.00    +0.151 A 
ATOM      6  C   UNL     1       0.026  -0.881   1.171  0.00  0.00    +0.062 A 
ATOM      7  C   UNL     1       0.036  -0.686   2.561  0.00  0.00    +0.129 A 
ATOM      8  N   UNL     1       0.059  -1.757   3.349  0.00  0.00    -0.220 NA
ATOM      9  C   UNL     1       0.071  -2.976   2.840  0.00  0.00    +0.225 A 
ATOM     10  N   UNL     1       0.055  -3.206   1.545  0.00  0.00    -0.217 NA
ATOM     11  C   UNL     1      -0.006  -0.317  -2.509  0.00  0.00    +0.064 C 
ENDROOT
BRANCH   4  12
ATOM     12  C   UNL     1       0.039  -3.211  -1.566  0.00  0.00    +0.048 A 
ATOM     13  C   UNL     1      -1.049  -3.451  -2.394  0.00  0.00    +0.029 A 
ATOM     14  C   UNL     1      -1.036  -4.531  -3.254  0.00  0.00    +0.040 A 
ATOM     15  C   UNL     1       0.060  -5.376  -3.290  0.00  0.00    +0.124 A 
ATOM     16  C   UNL     1       1.146  -5.139  -2.464  0.00  0.00    +0.040 A 
ATOM     17  C   UNL     1       1.140  -4.056  -1.607  0.00  0.00    +0.029 A 
ATOM     18  F   UNL     1       0.070  -6.433  -4.131  0.00  0.00    -0.205 F 
ENDBRANCH   4  12
BRANCH   7  19
ATOM     19  N   UNL     1       0.024   0.589   3.097  0.00  0.00    -0.343 N 
ATOM     20  H   UNL     1       0.007   1.362   2.511  0.00  0.00    +0.144 HD
ATOM     21  H   UNL     1       0.031   0.710   4.059  0.00  0.00    +0.144 HD
ENDBRANCH   7  19
TORSDOF 2
