REMARK  Name = ZINC04279796
REMARK  9 active torsions:
REMARK  status: ('A' for Active; 'I' for Inactive)
REMARK    1  A    between atoms: C_1  and  C_2
REMARK    2  A    between atoms: C_2  and  O_3
REMARK    3  A    between atoms: O_3  and  C_4
REMARK    4  A    between atoms: C_7  and  C_10
REMARK    5  A    between atoms: C_12  and  C_29
REMARK    6  A    between atoms: C_13  and  C_28
REMARK    7  A    between atoms: C_18  and  C_20
REMARK    8  A    between atoms: C_25  and  O_26
REMARK    9  A    between atoms: O_26  and  C_27
REMARK                            x       y       z     vdW  Elec       q    Type
REMARK                         _______ _______ _______ _____ _____    ______ ____
ROOT
ATOM      1  C   UNL     1       1.032  -5.748  -2.095  0.00  0.00    +0.168 C 
ATOM      2  C   UNL     1      -0.092  -6.510  -2.775  0.00  0.00    +0.062 C 
ATOM      3  C   UNL     1       0.258  -7.358  -3.792  0.00  0.00    +0.052 C 
ATOM      4  N   UNL     1       1.519  -7.508  -4.165  0.00  0.00    -0.221 NA
ATOM      5  C   UNL     1       2.549  -6.879  -3.620  0.00  0.00    +0.209 C 
ATOM      6  N   UNL     1       2.386  -6.003  -2.607  0.00  0.00    -0.181 N 
ATOM      7  N   UNL     1       3.646  -5.511  -2.258  0.00  0.00    -0.160 NA
ATOM      8  C   UNL     1       4.530  -6.072  -3.038  0.00  0.00    +0.154 C 
ATOM      9  N   UNL     1       3.886  -6.927  -3.891  0.00  0.00    -0.269 N 
ATOM     10  C   UNL     1      -0.818  -8.139  -4.502  0.00  0.00    +0.066 C 
ATOM     11  H   UNL     1       4.308  -7.471  -4.574  0.00  0.00    +0.156 HD
ENDROOT
BRANCH   1  15
ATOM     12  C   UNL     1       0.230  -1.568  -2.480  0.00  0.00    +0.121 A 
ATOM     13  C   UNL     1      -0.138  -2.243  -1.325  0.00  0.00    +0.046 A 
ATOM     14  C   UNL     1       0.122  -3.594  -1.203  0.00  0.00    +0.009 A 
ATOM     15  C   UNL     1       0.749  -4.274  -2.231  0.00  0.00    -0.020 A 
ATOM     16  C   UNL     1       1.118  -3.604  -3.382  0.00  0.00    +0.009 A 
ATOM     17  C   UNL     1       0.854  -2.254  -3.512  0.00  0.00    +0.046 A 
BRANCH  12  18
ATOM     18  O   UNL     1      -0.025  -0.239  -2.602  0.00  0.00    -0.492 OA
BRANCH  18  20
ATOM     19  C   UNL     1      -0.872   1.885  -1.819  0.00  0.00    +0.048 C 
ATOM     20  C   UNL     1      -0.670   0.402  -1.500  0.00  0.00    +0.225 C 
ENDBRANCH  18  20
ENDBRANCH  12  18
ENDBRANCH   1  15
BRANCH   8  21
ATOM     21  C   UNL     1       5.988  -5.828  -3.002  0.00  0.00    +0.058 A 
ATOM     22  C   UNL     1       6.831  -6.487  -3.897  0.00  0.00    +0.015 A 
ATOM     23  C   UNL     1       8.190  -6.255  -3.860  0.00  0.00    +0.001 A 
ATOM     24  C   UNL     1       8.722  -5.370  -2.937  0.00  0.00    +0.004 A 
ATOM     25  C   UNL     1       7.896  -4.712  -2.046  0.00  0.00    +0.046 A 
ATOM     26  C   UNL     1       6.528  -4.930  -2.075  0.00  0.00    +0.131 A 
BRANCH  26  27
ATOM     27  O   UNL     1       5.716  -4.279  -1.203  0.00  0.00    -0.494 OA
ATOM     28  C   UNL     1       6.338  -3.377  -0.285  0.00  0.00    +0.277 C 
ENDBRANCH  26  27
ENDBRANCH   8  21
BRANCH   2  29
ATOM     29  C   UNL     1      -1.429  -6.352  -2.379  0.00  0.00    +0.241 C 
ATOM     30  O   UNL     1      -1.844  -6.930  -1.389  0.00  0.00    -0.271 OA
ATOM     31  N   UNL     1      -2.255  -5.561  -3.092  0.00  0.00    -0.325 N 
ATOM     32  H   UNL     1      -1.909  -5.046  -3.838  0.00  0.00    +0.145 HD
ATOM     33  H   UNL     1      -3.195  -5.507  -2.861  0.00  0.00    +0.145 HD
ENDBRANCH   2  29
TORSDOF 6
