REMARK  Name = ZINC06078688
REMARK  8 active torsions:
REMARK  status: ('A' for Active; 'I' for Inactive)
REMARK    1  A    between atoms: C_1  and  C_2
REMARK    2  A    between atoms: C_5  and  C_28
REMARK    3  A    between atoms: C_6  and  N_8
REMARK    4  A    between atoms: C_9  and  C_11
REMARK    5  A    between atoms: C_11  and  N_12
REMARK    6  A    between atoms: C_17  and  C_24
REMARK    7  A    between atoms: C_20  and  C_22
REMARK    8  A    between atoms: C_20  and  C_23
REMARK                            x       y       z     vdW  Elec       q    Type
REMARK                         _______ _______ _______ _____ _____    ______ ____
ROOT
ATOM      1  N   UNL     1      -1.403   6.124  -0.266  0.00  0.00    -0.215 N 
ATOM      2  C   UNL     1      -2.090   6.266  -1.419  0.00  0.00    +0.247 C 
ATOM      3  O   UNL     1      -1.724   5.910  -2.519  0.00  0.00    -0.273 OA
ATOM      4  C   UNL     1      -3.394   6.925  -1.039  0.00  0.00    +0.113 C 
ATOM      5  C   UNL     1      -4.578   6.113  -1.547  0.00  0.00    +0.038 C 
ATOM      6  C   UNL     1      -4.716   6.281  -3.061  0.00  0.00    -0.011 C 
ATOM      7  C   UNL     1      -4.990   7.752  -3.366  0.00  0.00    +0.009 C 
ATOM      8  C   UNL     1      -3.828   8.628  -2.911  0.00  0.00    -0.032 C 
ATOM      9  C   UNL     1      -3.443   8.378  -1.463  0.00  0.00    +0.041 C 
ATOM     10  C   UNL     1      -4.270  10.101  -3.042  0.00  0.00    +0.011 C 
ATOM     11  C   UNL     1      -2.624   8.425  -3.835  0.00  0.00    +0.011 C 
ATOM     12  C   UNL     1      -5.892   5.432  -3.557  0.00  0.00    +0.007 C 
ATOM     13  N   UNL     1      -3.380   6.867   0.441  0.00  0.00    -0.285 N 
ATOM     14  C   UNL     1      -2.154   6.446   0.793  0.00  0.00    +0.310 C 
ATOM     15  O   UNL     1      -1.768   6.368   1.944  0.00  0.00    -0.252 OA
ATOM     16  H   UNL     1      -4.118   7.092   1.025  0.00  0.00    +0.151 HD
ENDROOT
BRANCH   1  17
ATOM     17  C   UNL     1      -0.019   5.650  -0.184  0.00  0.00    +0.214 C 
BRANCH  17  19
ATOM     18  N   UNL     1       1.162   3.485   0.009  0.00  0.00    -0.284 N 
ATOM     19  C   UNL     1      -0.009   4.146  -0.078  0.00  0.00    +0.235 C 
ATOM     20  O   UNL     1      -1.055   3.532  -0.072  0.00  0.00    -0.274 OA
ATOM     21  H   UNL     1       1.993   3.979   0.085  0.00  0.00    +0.155 HD
BRANCH  18  27
ATOM     22  C   UNL     1      -0.965  -0.756  -1.281  0.00  0.00    +0.044 C 
ATOM     23  C   UNL     1       0.160   0.005  -0.628  0.00  0.00    -0.049 A 
ATOM     24  C   UNL     1       1.211  -0.680  -0.045  0.00  0.00    +0.004 A 
ATOM     25  C   UNL     1       2.245   0.014   0.554  0.00  0.00    +0.005 A 
ATOM     26  C   UNL     1       2.232   1.395   0.574  0.00  0.00    -0.029 A 
ATOM     27  C   UNL     1       1.178   2.086  -0.009  0.00  0.00    +0.037 A 
ATOM     28  C   UNL     1       0.141   1.386  -0.611  0.00  0.00    +0.027 A 
ATOM     29  C   UNL     1       3.359   2.151   1.229  0.00  0.00    +0.045 C 
ENDBRANCH  18  27
ENDBRANCH  17  19
ENDBRANCH   1  17
TORSDOF 3
