REMARK  Name = ZINC44907594
REMARK  3 active torsions:
REMARK  status: ('A' for Active; 'I' for Inactive)
REMARK    1  A    between atoms: C_6  and  C_7
REMARK    2  A    between atoms: N_12  and  S_13
REMARK    3  A    between atoms: S_13  and  N_16
REMARK                            x       y       z     vdW  Elec       q    Type
REMARK                         _______ _______ _______ _____ _____    ______ ____
ROOT
ATOM      1  C   UNL     1      -0.017   1.378   0.010  0.00  0.00    +0.009 A 
ATOM      2  C   UNL     1       1.170   2.091   0.002  0.00  0.00    +0.050 A 
ATOM      3  C   UNL     1       2.377   1.413  -0.013  0.00  0.00    +0.162 A 
ATOM      4  C   UNL     1       2.396   0.025  -0.020  0.00  0.00    +0.162 A 
ATOM      5  C   UNL     1       1.207  -0.684  -0.013  0.00  0.00    +0.054 A 
ATOM      6  C   UNL     1       0.002  -0.004   0.002  0.00  0.00    -0.025 A 
ATOM      7  O   UNL     1       3.591  -0.632  -0.034  0.00  0.00    -0.488 OA
ATOM      8  C   UNL     1       4.358  -0.510  -1.234  0.00  0.00    +0.232 C 
ATOM      9  C   UNL     1       5.186   0.764  -1.217  0.00  0.00    +0.082 C 
ATOM     10  C   UNL     1       4.323   2.016  -1.220  0.00  0.00    +0.232 C 
ATOM     11  O   UNL     1       3.554   2.104  -0.019  0.00  0.00    -0.488 OA
ENDROOT
BRANCH   6  12
ATOM     12  C   UNL     1      -1.294  -0.773   0.010  0.00  0.00    +0.111 C 
ATOM     13  C   UNL     1      -1.909  -0.779  -1.405  0.00  0.00    +0.027 C 
ATOM     14  C   UNL     1      -3.428  -0.632  -1.124  0.00  0.00    +0.019 C 
ATOM     15  C   UNL     1      -3.427   0.307   0.108  0.00  0.00    +0.111 C 
ATOM     16  N   UNL     1      -2.258  -0.117   0.906  0.00  0.00    -0.159 NA
BRANCH  16  17
ATOM     17  S   UNL     1      -2.065   0.106   2.535  0.00  0.00    +0.095 S 
ATOM     18  O   UNL     1      -3.368   0.238   3.085  0.00  0.00    -0.141 OA
ATOM     19  O   UNL     1      -1.149  -0.887   2.975  0.00  0.00    -0.141 OA
BRANCH  17  20
ATOM     20  N   UNL     1      -1.314   1.568   2.743  0.00  0.00    -0.193 NA
ATOM     21  H   UNL     1      -1.079   2.106   1.971  0.00  0.00    +0.145 HD
ATOM     22  H   UNL     1      -1.109   1.885   3.636  0.00  0.00    +0.145 HD
ENDBRANCH  17  20
ENDBRANCH  16  17
ENDBRANCH   6  12
TORSDOF 3
