REMARK  Name = ZINC66584189
REMARK  5 active torsions:
REMARK  status: ('A' for Active; 'I' for Inactive)
REMARK    1  A    between atoms: C_6  and  C_7
REMARK    2  A    between atoms: C_8  and  S_9
REMARK    3  A    between atoms: S_9  and  N_12
REMARK    4  A    between atoms: N_12  and  N_13
REMARK    5  A    between atoms: C_14  and  C_16
REMARK                            x       y       z     vdW  Elec       q    Type
REMARK                         _______ _______ _______ _____ _____    ______ ____
ROOT
ATOM      1  S   UNL     1      -2.757  -2.994   0.013  0.00  0.00    +0.067 S 
ATOM      2  O   UNL     1      -2.635  -3.977   1.032  0.00  0.00    -0.152 OA
ATOM      3  O   UNL     1      -3.805  -2.034   0.002  0.00  0.00    -0.152 OA
ENDROOT
BRANCH   1   5
ATOM      4  C   UNL     1      -1.266  -0.763   0.011  0.00  0.00    +0.028 C 
ATOM      5  C   UNL     1      -1.245  -2.089   0.003  0.00  0.00    +0.155 C 
BRANCH   4  11
ATOM      6  C   UNL     1      -0.017   1.391   0.010  0.00  0.00    +0.009 A 
ATOM      7  C   UNL     1       1.170   2.094   0.002  0.00  0.00    +0.016 A 
ATOM      8  C   UNL     1       2.378   1.419  -0.013  0.00  0.00    +0.018 A 
ATOM      9  C   UNL     1       2.403   0.034  -0.021  0.00  0.00    +0.016 A 
ATOM     10  C   UNL     1       1.223  -0.680  -0.014  0.00  0.00    +0.009 A 
ATOM     11  C   UNL     1       0.002  -0.004   0.002  0.00  0.00    -0.024 A 
ATOM     12 BR   UNL     1       4.000   2.390  -0.025  0.00  0.00    -0.050 Br
ENDBRANCH   4  11
ENDBRANCH   1   5
BRANCH   1  13
ATOM     13  N   UNL     1      -2.848  -3.811  -1.424  0.00  0.00    -0.108 NA
ATOM     14  H   UNL     1      -3.586  -3.645  -2.031  0.00  0.00    +0.172 HD
BRANCH  13  15
ATOM     15  N   UNL     1      -1.858  -4.743  -1.764  0.00  0.00    -0.228 N 
ATOM     16  C   UNL     1      -2.203  -6.007  -2.079  0.00  0.00    +0.262 C 
ATOM     17  O   UNL     1      -3.372  -6.339  -2.069  0.00  0.00    -0.269 OA
ATOM     18  H   UNL     1      -0.925  -4.478  -1.772  0.00  0.00    +0.171 HD
BRANCH  16  19
ATOM     19  C   UNL     1      -1.161  -6.987  -2.437  0.00  0.00    +0.076 A 
ATOM     20  C   UNL     1      -1.357  -8.396  -2.811  0.00  0.00    +0.054 A 
ATOM     21  C   UNL     1      -0.132  -8.888  -3.049  0.00  0.00    +0.195 A 
ATOM     22  O   UNL     1       0.776  -7.919  -2.856  0.00  0.00    -0.470 OA
ATOM     23  C   UNL     1       0.185  -6.776  -2.496  0.00  0.00    +0.207 A 
ENDBRANCH  16  19
ENDBRANCH  13  15
ENDBRANCH   1  13
TORSDOF 5
