REMARK  Name = ZINC10100534
REMARK  2 active torsions:
REMARK  status: ('A' for Active; 'I' for Inactive)
REMARK    1  A    between atoms: C_1  and  C_2
REMARK    2  A    between atoms: C_15  and  C_17
REMARK                            x       y       z     vdW  Elec       q    Type
REMARK                         _______ _______ _______ _____ _____    ______ ____
ROOT
ATOM      1  C   UNL     1      -0.018   1.503   0.010  0.00  0.00    +0.073 C 
ATOM      2  C   UNL     1       0.002  -0.004   0.002  0.00  0.00    +0.076 A 
ATOM      3  N   UNL     1      -0.002  -0.807  -1.024  0.00  0.00    -0.244 NA
ATOM      4  C   UNL     1       0.023  -2.149  -0.894  0.00  0.00    +0.080 A 
ATOM      5  C   UNL     1       0.026  -3.149  -1.898  0.00  0.00    +0.031 A 
ATOM      6  C   UNL     1       0.047  -4.464  -1.600  0.00  0.00    +0.031 A 
ATOM      7  C   UNL     1       0.066  -4.937  -0.263  0.00  0.00    +0.081 A 
ATOM      8  C   UNL     1       0.063  -3.945   0.743  0.00  0.00    +0.057 A 
ATOM      9  C   UNL     1       0.042  -2.611   0.442  0.00  0.00    +0.055 A 
ATOM     10  S   UNL     1       0.030  -1.089   1.357  0.00  0.00    -0.071 S 
ATOM     11  S   UNL     1       0.090  -4.918   2.230  0.00  0.00    -0.051 S 
ATOM     12  C   UNL     1       0.104  -6.525   1.448  0.00  0.00    +0.166 A 
ATOM     13  N   UNL     1       0.087  -6.214   0.174  0.00  0.00    -0.225 NA
ATOM     14  N   UNL     1       0.127  -7.779   2.038  0.00  0.00    -0.263 N 
ATOM     15  C   UNL     1       0.134  -8.886   1.269  0.00  0.00    +0.248 C 
ATOM     16  O   UNL     1       0.122  -8.784   0.061  0.00  0.00    -0.273 OA
ATOM     17  H   UNL     1       0.136  -7.861   3.005  0.00  0.00    +0.157 HD
ENDROOT
BRANCH  15  18
ATOM     18  C   UNL     1       0.158 -10.249   1.910  0.00  0.00    +0.204 C 
ATOM     19  C   UNL     1      -1.149 -10.483   2.693  0.00  0.00    +0.043 C 
ATOM     20  C   UNL     1      -1.754 -11.754   2.048  0.00  0.00    +0.031 C 
ATOM     21  C   UNL     1      -0.516 -12.399   1.377  0.00  0.00    +0.161 C 
ATOM     22  O   UNL     1       0.240 -11.265   0.896  0.00  0.00    -0.367 OA
ENDBRANCH  15  18
TORSDOF 1
