REMARK  Name = ZINC39483044
REMARK  12 active torsions:
REMARK  status: ('A' for Active; 'I' for Inactive)
REMARK    1  A    between atoms: C_1  and  C_2
REMARK    2  A    between atoms: C_2  and  O_3
REMARK    3  A    between atoms: O_3  and  C_4
REMARK    4  A    between atoms: N_7  and  C_11
REMARK    5  A    between atoms: C_13  and  S_28
REMARK    6  A    between atoms: C_16  and  N_17
REMARK    7  A    between atoms: N_17  and  S_18
REMARK    8  A    between atoms: S_18  and  C_21
REMARK    9  A    between atoms: C_26  and  O_27
REMARK   10  A    between atoms: S_28  and  C_31
REMARK   11  A    between atoms: C_31  and  C_32
REMARK   12  A    between atoms: C_31  and  C_33
REMARK                            x       y       z     vdW  Elec       q    Type
REMARK                         _______ _______ _______ _____ _____    ______ ____
ROOT
ATOM      1  C   UNL     1      -3.558  -5.079  -0.470  0.00  0.00    +0.054 A 
ATOM      2  C   UNL     1      -2.615  -5.809  -1.178  0.00  0.00    +0.052 A 
ATOM      3  C   UNL     1      -3.017  -6.654  -2.196  0.00  0.00    +0.090 A 
ATOM      4  C   UNL     1      -4.358  -6.775  -2.511  0.00  0.00    +0.029 A 
ATOM      5  C   UNL     1      -5.305  -6.051  -1.810  0.00  0.00    +0.028 A 
ATOM      6  C   UNL     1      -4.911  -5.205  -0.785  0.00  0.00    +0.069 A 
ENDROOT
BRANCH   1   9
ATOM      7  C   UNL     1      -1.458  -2.503   0.894  0.00  0.00    +0.203 C 
ATOM      8  C   UNL     1      -2.832  -2.813   0.289  0.00  0.00    +0.153 C 
ATOM      9  N   UNL     1      -3.154  -4.222   0.561  0.00  0.00    -0.323 N 
ATOM     10  C   UNL     1      -3.041  -4.708   1.945  0.00  0.00    +0.120 C 
ATOM     11  C   UNL     1      -1.659  -4.323   2.484  0.00  0.00    +0.102 C 
ATOM     12  N   UNL     1      -1.455  -2.878   2.314  0.00  0.00    -0.289 NA
ATOM     13  H   UNL     1      -0.605  -2.577   2.766  0.00  0.00    +0.124 HD
BRANCH   7  14
ATOM     14  O   UNL     1      -1.187  -1.105   0.769  0.00  0.00    -0.361 OA
BRANCH  14  16
ATOM     15  C   UNL     1       0.355   0.755   0.829  0.00  0.00    +0.034 C 
ATOM     16  C   UNL     1       0.182  -0.757   0.986  0.00  0.00    +0.158 C 
ENDBRANCH  14  16
ENDBRANCH   7  14
ENDBRANCH   1   9
BRANCH   3  17
ATOM     17  S   UNL     1      -1.816  -7.580  -3.093  0.00  0.00    -0.001 S 
ATOM     18  O   UNL     1      -2.414  -7.817  -4.360  0.00  0.00    -0.169 OA
ATOM     19  O   UNL     1      -0.620  -6.821  -2.988  0.00  0.00    -0.169 OA
BRANCH  17  20
ATOM     20  C   UNL     1      -1.651  -9.139  -2.180  0.00  0.00    +0.130 C 
ATOM     21  C   UNL     1      -0.535  -9.979  -2.803  0.00  0.00    +0.032 C 
ATOM     22  C   UNL     1      -1.309  -8.839  -0.719  0.00  0.00    +0.032 C 
ENDBRANCH  17  20
ENDBRANCH   3  17
BRANCH   6  23
ATOM     23  N   UNL     1      -5.869  -4.474  -0.071  0.00  0.00    -0.214 N 
ATOM     24  H   UNL     1      -5.662  -3.580   0.243  0.00  0.00    +0.174 HD
BRANCH  23  25
ATOM     25  S   UNL     1      -7.355  -5.137   0.237  0.00  0.00    +0.076 S 
ATOM     26  O   UNL     1      -7.122  -6.460   0.700  0.00  0.00    -0.150 OA
ATOM     27  O   UNL     1      -8.077  -4.180   1.000  0.00  0.00    -0.150 OA
BRANCH  25  28
ATOM     28  C   UNL     1      -8.190  -5.284  -1.307  0.00  0.00    +0.150 A 
ATOM     29  C   UNL     1      -8.533  -6.532  -1.792  0.00  0.00    +0.032 A 
ATOM     30  C   UNL     1      -9.188  -6.648  -3.004  0.00  0.00    +0.002 A 
ATOM     31  C   UNL     1      -9.502  -5.516  -3.733  0.00  0.00    +0.004 A 
ATOM     32  C   UNL     1      -9.163  -4.267  -3.253  0.00  0.00    +0.047 A 
ATOM     33  C   UNL     1      -8.510  -4.147  -2.034  0.00  0.00    +0.143 A 
BRANCH  33  34
ATOM     34  O   UNL     1      -8.180  -2.918  -1.557  0.00  0.00    -0.505 OA
ATOM     35  H   UNL     1      -7.314  -2.602  -1.850  0.00  0.00    +0.292 HD
ENDBRANCH  33  34
ENDBRANCH  25  28
ENDBRANCH  23  25
ENDBRANCH   6  23
TORSDOF 9
