REMARK  Name = ZINC28055076
REMARK  7 active torsions:
REMARK  status: ('A' for Active; 'I' for Inactive)
REMARK    1  A    between atoms: C_1  and  C_2
REMARK    2  A    between atoms: C_10  and  C_18
REMARK    3  A    between atoms: C_25  and  C_28
REMARK    4  A    between atoms: C_30  and  O_36
REMARK    5  A    between atoms: C_33  and  O_34
REMARK    6  A    between atoms: O_34  and  C_35
REMARK    7  A    between atoms: O_36  and  C_37
REMARK                            x       y       z     vdW  Elec       q    Type
REMARK                         _______ _______ _______ _____ _____    ______ ____
ROOT
ATOM      1  C   UNL     1      -0.638   9.343   2.475  0.00  0.00    +0.044 C 
ATOM      2  C   UNL     1      -1.048   8.218   1.560  0.00  0.00    -0.050 A 
ATOM      3  C   UNL     1      -0.520   8.141   0.283  0.00  0.00    +0.007 A 
ATOM      4  C   UNL     1      -0.886   7.113  -0.567  0.00  0.00    +0.046 A 
ATOM      5  C   UNL     1      -1.786   6.155  -0.139  0.00  0.00    +0.131 A 
ATOM      6  C   UNL     1      -2.324   6.234   1.152  0.00  0.00    +0.038 A 
ATOM      7  C   UNL     1      -1.950   7.268   2.001  0.00  0.00    +0.016 A 
ATOM      8  C   UNL     1      -3.290   5.193   1.577  0.00  0.00    +0.050 C 
ATOM      9  C   UNL     1      -3.357   4.062   0.871  0.00  0.00    +0.026 C 
ATOM     10  C   UNL     1      -4.322   2.953   1.211  0.00  0.00    +0.174 C 
ATOM     11  N   UNL     1      -5.306   3.423   2.176  0.00  0.00    -0.201 N 
ATOM     12  C   UNL     1      -5.191   4.586   2.870  0.00  0.00    +0.240 A 
ATOM     13  N   UNL     1      -6.235   4.682   3.642  0.00  0.00    -0.092 NA
ATOM     14  N   UNL     1      -7.006   3.662   3.479  0.00  0.00    -0.021 NA
ATOM     15  N   UNL     1      -6.505   2.853   2.601  0.00  0.00    -0.042 NA
ATOM     16  N   UNL     1      -4.108   5.430   2.688  0.00  0.00    -0.282 N 
ATOM     17  C   UNL     1      -2.433   3.876  -0.311  0.00  0.00    +0.238 C 
ATOM     18  O   UNL     1      -2.167   5.129  -0.941  0.00  0.00    -0.479 OA
ATOM     19  H   UNL     1      -3.879   6.260   3.373  0.00  0.00    +0.155 HD
ENDROOT
BRANCH  10  20
ATOM     20  C   UNL     1      -3.562   1.792   1.798  0.00  0.00    -0.019 A 
ATOM     21  C   UNL     1      -2.635   2.009   2.801  0.00  0.00    +0.009 A 
ATOM     22  C   UNL     1      -1.941   0.944   3.344  0.00  0.00    +0.039 A 
ATOM     23  C   UNL     1      -2.166  -0.339   2.875  0.00  0.00    +0.123 A 
ATOM     24  C   UNL     1      -3.089  -0.554   1.866  0.00  0.00    +0.039 A 
ATOM     25  C   UNL     1      -3.787   0.511   1.329  0.00  0.00    +0.009 A 
ATOM     26  F   UNL     1      -1.483  -1.380   3.400  0.00  0.00    -0.205 F 
ENDBRANCH  10  20
BRANCH  17  27
ATOM     27  C   UNL     1      -1.136   3.273   0.162  0.00  0.00    +0.042 A 
ATOM     28  C   UNL     1      -0.190   4.067   0.781  0.00  0.00    +0.056 A 
ATOM     29  C   UNL     1       1.004   3.512   1.217  0.00  0.00    +0.121 A 
ATOM     30  C   UNL     1       1.248   2.159   1.032  0.00  0.00    +0.049 A 
ATOM     31  C   UNL     1       0.302   1.365   0.413  0.00  0.00    +0.049 A 
ATOM     32  C   UNL     1      -0.889   1.921  -0.028  0.00  0.00    +0.127 A 
BRANCH  32  33
ATOM     33  O   UNL     1      -1.818   1.141  -0.642  0.00  0.00    -0.495 OA
ATOM     34  C   UNL     1      -1.451  -0.213  -0.913  0.00  0.00    +0.277 C 
ENDBRANCH  32  33
BRANCH  29  35
ATOM     35  O   UNL     1       1.935   4.293   1.826  0.00  0.00    -0.495 OA
ATOM     36  C   UNL     1       3.142   3.655   2.250  0.00  0.00    +0.277 C 
ENDBRANCH  29  35
ENDBRANCH  17  27
TORSDOF 4
