REMARK  Name = ZINC02247784
REMARK  5 active torsions:
REMARK  status: ('A' for Active; 'I' for Inactive)
REMARK    1  A    between atoms: C_1  and  C_2
REMARK    2  A    between atoms: C_5  and  C_8
REMARK    3  A    between atoms: C_19  and  C_21
REMARK    4  A    between atoms: C_32  and  S_34
REMARK    5  A    between atoms: S_34  and  C_35
REMARK                            x       y       z     vdW  Elec       q    Type
REMARK                         _______ _______ _______ _____ _____    ______ ____
ROOT
ATOM      1  C   UNL     1       0.087  -4.136  -0.152  0.00  0.00    +0.159 C 
ATOM      2  C   UNL     1      -1.292  -4.706   0.097  0.00  0.00    +0.025 C 
ATOM      3  C   UNL     1      -1.460  -5.521   1.159  0.00  0.00    +0.058 C 
ATOM      4  C   UNL     1      -2.821  -6.065   1.396  0.00  0.00    +0.040 A 
ATOM      5  C   UNL     1      -3.033  -7.142   2.246  0.00  0.00    +0.013 A 
ATOM      6  C   UNL     1      -4.316  -7.618   2.436  0.00  0.00    +0.001 A 
ATOM      7  C   UNL     1      -5.383  -7.026   1.783  0.00  0.00    +0.004 A 
ATOM      8  C   UNL     1      -5.180  -5.953   0.935  0.00  0.00    +0.046 A 
ATOM      9  C   UNL     1      -3.900  -5.464   0.736  0.00  0.00    +0.131 A 
ATOM     10  O   UNL     1      -3.673  -4.408  -0.085  0.00  0.00    -0.479 OA
ATOM     11  C   UNL     1      -2.443  -4.388  -0.812  0.00  0.00    +0.237 C 
ATOM     12  N   UNL     1      -0.430  -5.833   1.983  0.00  0.00    -0.326 N 
ATOM     13  C   UNL     1       0.798  -5.382   1.839  0.00  0.00    +0.216 C 
ATOM     14  N   UNL     1       1.127  -4.533   0.805  0.00  0.00    -0.209 N 
ATOM     15  N   UNL     1       2.486  -4.241   0.940  0.00  0.00    -0.239 N 
ATOM     16  C   UNL     1       2.920  -4.924   2.046  0.00  0.00    +0.174 C 
ATOM     17  N   UNL     1       1.917  -5.591   2.558  0.00  0.00    -0.192 NA
ATOM     18  H   UNL     1      -0.610  -6.428   2.728  0.00  0.00    +0.169 HD
ATOM     19  H   UNL     1       3.018  -3.668   0.365  0.00  0.00    +0.172 HD
ENDROOT
BRANCH   1  24
ATOM     20  C   UNL     1      -0.314   1.629  -0.091  0.00  0.00    +0.044 C 
ATOM     21  C   UNL     1      -0.209   0.126  -0.107  0.00  0.00    -0.050 A 
ATOM     22  C   UNL     1      -0.230  -0.556  -1.309  0.00  0.00    +0.004 A 
ATOM     23  C   UNL     1      -0.134  -1.935  -1.324  0.00  0.00    +0.006 A 
ATOM     24  C   UNL     1      -0.017  -2.632  -0.136  0.00  0.00    -0.021 A 
ATOM     25  C   UNL     1       0.004  -1.951   1.066  0.00  0.00    +0.006 A 
ATOM     26  C   UNL     1      -0.087  -0.571   1.081  0.00  0.00    +0.004 A 
ENDBRANCH   1  24
BRANCH  11  27
ATOM     27  C   UNL     1      -2.501  -5.410  -1.919  0.00  0.00    +0.032 A 
ATOM     28  C   UNL     1      -3.317  -6.518  -1.794  0.00  0.00    +0.010 A 
ATOM     29  C   UNL     1      -3.371  -7.455  -2.808  0.00  0.00    +0.001 A 
ATOM     30  C   UNL     1      -2.608  -7.285  -3.949  0.00  0.00    +0.003 A 
ATOM     31  C   UNL     1      -1.792  -6.177  -4.076  0.00  0.00    +0.039 A 
ATOM     32  C   UNL     1      -1.742  -5.235  -3.063  0.00  0.00    +0.130 A 
ATOM     33  F   UNL     1      -0.947  -4.149  -3.188  0.00  0.00    -0.205 F 
ENDBRANCH  11  27
BRANCH  16  34
ATOM     34  S   UNL     1       4.565  -4.913   2.675  0.00  0.00    -0.092 S 
ATOM     35  C   UNL     1       4.487  -5.995   4.128  0.00  0.00    +0.093 C 
ENDBRANCH  16  34
TORSDOF 3
