REMARK  Name = ZINC01246777
REMARK  9 active torsions:
REMARK  status: ('A' for Active; 'I' for Inactive)
REMARK    1  A    between atoms: C_1  and  C_2
REMARK    2  A    between atoms: C_2  and  O_3
REMARK    3  A    between atoms: O_3  and  C_4
REMARK    4  A    between atoms: C_4  and  C_6
REMARK    5  A    between atoms: C_7  and  C_27
REMARK    6  A    between atoms: C_9  and  N_26
REMARK    7  A    between atoms: C_10  and  C_22
REMARK    8  A    between atoms: C_22  and  O_24
REMARK    9  A    between atoms: O_24  and  C_25
REMARK                            x       y       z     vdW  Elec       q    Type
REMARK                         _______ _______ _______ _____ _____    ______ ____
ROOT
ATOM      1  C   UNL     1       3.073   0.605   1.202  0.00  0.00    +0.098 C 
ATOM      2  C   UNL     1       4.350   1.006   1.147  0.00  0.00    +0.116 C 
ATOM      3  O   UNL     1       4.926   1.403   0.003  0.00  0.00    -0.446 OA
ATOM      4  C   UNL     1       4.373   1.067  -1.174  0.00  0.00    +0.195 C 
ATOM      5  C   UNL     1       3.077   0.664  -1.264  0.00  0.00    +0.117 C 
ATOM      6  C   UNL     1       2.221   0.578  -0.034  0.00  0.00    +0.145 C 
ATOM      7  C   UNL     1       1.218   1.704  -0.008  0.00  0.00    -0.002 A 
ATOM      8  C   UNL     1       1.343   3.075   0.022  0.00  0.00    +0.008 A 
ATOM      9  C   UNL     1       0.213   3.872   0.042  0.00  0.00    +0.016 A 
ATOM     10  C   UNL     1      -1.042   3.288   0.030  0.00  0.00    +0.020 A 
ATOM     11  C   UNL     1      -1.171   1.914   0.004  0.00  0.00    +0.039 A 
ATOM     12  C   UNL     1      -0.037   1.105  -0.022  0.00  0.00    +0.039 A 
ATOM     13  N   UNL     1       0.092  -0.284  -0.055  0.00  0.00    -0.284 N 
ATOM     14  C   UNL     1       1.379  -0.676  -0.065  0.00  0.00    +0.237 C 
ATOM     15  O   UNL     1       1.785  -1.818  -0.094  0.00  0.00    -0.274 OA
ATOM     16 BR   UNL     1      -2.587   4.378   0.057  0.00  0.00    -0.050 Br
ATOM     17  C   UNL     1       5.166   1.013   2.414  0.00  0.00    +0.087 C 
ATOM     18  H   UNL     1      -0.660  -0.897  -0.069  0.00  0.00    +0.155 HD
ENDROOT
BRANCH   4  19
ATOM     19  N   UNL     1       5.132   1.132  -2.311  0.00  0.00    -0.329 N 
ATOM     20  H   UNL     1       4.723   0.978  -3.177  0.00  0.00    +0.145 HD
ATOM     21  H   UNL     1       6.080   1.331  -2.251  0.00  0.00    +0.145 HD
ENDBRANCH   4  19
BRANCH   1  22
ATOM     22  C   UNL     1       2.519   0.200   2.442  0.00  0.00    +0.340 C 
ATOM     23  O   UNL     1       3.203   0.219   3.448  0.00  0.00    -0.245 OA
BRANCH  22  24
ATOM     24  O   UNL     1       1.234  -0.206   2.507  0.00  0.00    -0.462 OA
BRANCH  24  26
ATOM     25  C   UNL     1      -0.722  -1.025   3.666  0.00  0.00    +0.048 C 
ATOM     26  C   UNL     1       0.743  -0.600   3.789  0.00  0.00    +0.229 C 
ENDBRANCH  24  26
ENDBRANCH  22  24
ENDBRANCH   1  22
BRANCH   5  27
ATOM     27  C   UNL     1       2.538   0.326  -2.515  0.00  0.00    +0.341 C 
ATOM     28  O   UNL     1       1.826   1.119  -3.106  0.00  0.00    -0.245 OA
BRANCH  27  29
ATOM     29  O   UNL     1       2.807  -0.878  -3.064  0.00  0.00    -0.465 OA
ATOM     30  C   UNL     1       2.224  -1.155  -4.339  0.00  0.00    +0.280 C 
ENDBRANCH  27  29
ENDBRANCH   5  27
TORSDOF 6
