REMARK  Name = ZINC00635406
REMARK  5 active torsions:
REMARK  status: ('A' for Active; 'I' for Inactive)
REMARK    1  A    between atoms: C_1  and  C_2
REMARK    2  A    between atoms: C_8  and  C_9
REMARK    3  A    between atoms: C_8  and  N_52
REMARK    4  A    between atoms: C_10  and  O_30
REMARK    5  A    between atoms: C_18  and  C_20
REMARK                            x       y       z     vdW  Elec       q    Type
REMARK                         _______ _______ _______ _____ _____    ______ ____
ROOT
ATOM      1  C   UNL     1      -4.160   0.726  -2.504  0.00  0.00    +0.020 A 
ATOM      2  C   UNL     1      -5.297   1.309  -1.968  0.00  0.00    +0.122 A 
ATOM      3  C   UNL     1      -6.521   0.645  -2.013  0.00  0.00    +0.046 A 
ATOM      4  C   UNL     1      -6.616  -0.589  -2.585  0.00  0.00    +0.015 A 
ATOM      5  C   UNL     1      -5.476  -1.196  -3.134  0.00  0.00    +0.019 A 
ATOM      6  C   UNL     1      -4.238  -0.527  -3.095  0.00  0.00    +0.144 A 
ATOM      7  O   UNL     1      -3.130  -1.092  -3.622  0.00  0.00    -0.421 OA
ATOM      8  C   UNL     1      -3.169  -2.303  -4.202  0.00  0.00    +0.348 A 
ATOM      9  O   UNL     1      -2.154  -2.786  -4.668  0.00  0.00    -0.244 OA
ATOM     10  C   UNL     1      -4.433  -3.043  -4.276  0.00  0.00    +0.102 A 
ATOM     11  C   UNL     1      -5.571  -2.478  -3.730  0.00  0.00    +0.030 A 
ENDROOT
BRANCH  10  12
ATOM     12  C   UNL     1      -4.487  -4.373  -4.912  0.00  0.00    +0.146 A 
ATOM     13  N   UNL     1      -3.419  -5.024  -5.471  0.00  0.00    -0.338 N 
ATOM     14  H   UNL     1      -2.478  -4.687  -5.521  0.00  0.00    +0.167 HD
ATOM     15  C   UNL     1      -3.884  -6.232  -5.955  0.00  0.00    +0.066 A 
ATOM     16  C   UNL     1      -3.288  -7.300  -6.610  0.00  0.00    +0.028 A 
ATOM     17  C   UNL     1      -4.049  -8.393  -6.970  0.00  0.00    +0.002 A 
ATOM     18  C   UNL     1      -5.406  -8.430  -6.680  0.00  0.00    +0.002 A 
ATOM     19  C   UNL     1      -6.010  -7.388  -6.035  0.00  0.00    +0.030 A 
ATOM     20  C   UNL     1      -5.258  -6.270  -5.661  0.00  0.00    +0.089 A 
ATOM     21  N   UNL     1      -5.564  -5.114  -5.022  0.00  0.00    -0.228 NA
ENDBRANCH  10  12
BRANCH   2  22
ATOM     22  O   UNL     1      -5.217   2.537  -1.394  0.00  0.00    -0.506 OA
ATOM     23  H   UNL     1      -5.369   3.268  -2.008  0.00  0.00    +0.292 HD
ENDBRANCH   2  22
BRANCH   1  24
ATOM     24  C   UNL     1      -2.842   1.453  -2.450  0.00  0.00    -0.036 C 
BRANCH  24  31
ATOM     25  C   UNL     1       1.422   1.616  -0.003  0.00  0.00    +0.005 C 
ATOM     26  C   UNL     1      -0.013   1.086   0.008  0.00  0.00    -0.031 C 
ATOM     27  C   UNL     1      -0.731   1.580   1.267  0.00  0.00    -0.001 C 
ATOM     28  C   UNL     1      -2.183   1.095   1.240  0.00  0.00    -0.018 C 
ATOM     29  C   UNL     1      -2.862   1.602  -0.033  0.00  0.00    -0.078 C 
ATOM     30  C   UNL     1      -0.754   1.594  -1.231  0.00  0.00    -0.075 C 
ATOM     31  N   UNL     1      -2.138   1.071  -1.208  0.00  0.00    +0.383 N 
ATOM     32  H   UNL     1      -2.106   0.047  -1.145  0.00  0.00    -0.081 HD
ENDBRANCH  24  31
ENDBRANCH   1  24
TORSDOF 4
