REMARK  Name = ZINC59040273
REMARK  6 active torsions:
REMARK  status: ('A' for Active; 'I' for Inactive)
REMARK    1  A    between atoms: N_5  and  N_6
REMARK    2  A    between atoms: C_9  and  S_12
REMARK    3  A    between atoms: S_12  and  C_13
REMARK    4  A    between atoms: C_13  and  C_14
REMARK    5  A    between atoms: N_16  and  C_17
REMARK    6  A    between atoms: C_18  and  C_26
REMARK                            x       y       z     vdW  Elec       q    Type
REMARK                         _______ _______ _______ _____ _____    ______ ____
ROOT
ATOM      1  S   UNL     1       7.843  -3.123   2.903  0.00  0.00    -0.075 S 
ENDROOT
BRANCH   1   5
ATOM      2  N   UNL     1       2.948  -1.960   1.836  0.00  0.00    -0.205 N 
ATOM      3  C   UNL     1       4.062  -2.712   2.162  0.00  0.00    +0.232 A 
ATOM      4  N   UNL     1       5.289  -2.257   2.303  0.00  0.00    -0.186 NA
ATOM      5  C   UNL     1       6.110  -3.264   2.619  0.00  0.00    +0.211 A 
ATOM      6  N   UNL     1       5.415  -4.375   2.684  0.00  0.00    -0.144 NA
ATOM      7  N   UNL     1       4.082  -4.042   2.397  0.00  0.00    -0.245 N 
ATOM      8  H   UNL     1       2.080  -2.387   1.759  0.00  0.00    +0.177 HD
ATOM      9  H   UNL     1       3.325  -4.647   2.370  0.00  0.00    +0.192 HD
BRANCH   2  14
ATOM     10  C   UNL     1       0.275   1.433  -0.548  0.00  0.00    +0.001 C 
ATOM     11  C   UNL     1       1.662   2.020  -0.283  0.00  0.00    +0.006 C 
ATOM     12  C   UNL     1       2.132   1.604   1.115  0.00  0.00    +0.052 C 
ATOM     13  C   UNL     1       2.063   0.096   1.217  0.00  0.00    +0.037 C 
ATOM     14  N   UNL     1       3.072  -0.582   1.618  0.00  0.00    -0.189 NA
ATOM     15  C   UNL     1       0.771  -0.590   0.832  0.00  0.00    +0.052 C 
ATOM     16  C   UNL     1       0.350  -0.094  -0.555  0.00  0.00    +0.006 C 
ENDBRANCH   2  14
ENDBRANCH   1   5
BRANCH   1  17
ATOM     17  C   UNL     1       8.366  -4.817   3.283  0.00  0.00    +0.173 C 
BRANCH  17  18
ATOM     18  C   UNL     1       9.849  -4.838   3.550  0.00  0.00    +0.228 C 
ATOM     19  O   UNL     1      10.490  -3.811   3.489  0.00  0.00    -0.275 OA
ATOM     20  N   UNL     1      10.462  -5.998   3.856  0.00  0.00    -0.278 N 
ATOM     21  H   UNL     1       9.949  -6.820   3.904  0.00  0.00    +0.155 HD
BRANCH  20  22
ATOM     22  C   UNL     1      11.828  -6.018   4.101  0.00  0.00    +0.090 A 
ATOM     23  C   UNL     1      12.621  -7.107   4.421  0.00  0.00    +0.084 A 
ATOM     24  C   UNL     1      14.036  -6.861   4.631  0.00  0.00    -0.018 A 
ATOM     25  C   UNL     1      14.400  -5.568   4.483  0.00  0.00    -0.004 A 
ATOM     26  S   UNL     1      12.900  -4.725   4.071  0.00  0.00    -0.077 S 
ATOM     27  C   UNL     1      15.776  -4.998   4.634  0.00  0.00    +0.043 C 
ATOM     28  C   UNL     1      16.651  -6.036   5.353  0.00  0.00    +0.005 C 
ATOM     29  C   UNL     1      16.456  -7.399   4.682  0.00  0.00    +0.005 C 
ATOM     30  C   UNL     1      15.055  -7.934   4.987  0.00  0.00    +0.037 C 
BRANCH  23  31
ATOM     31  C   UNL     1      12.067  -8.423   4.540  0.00  0.00    +0.102 C 
ATOM     32  N   UNL     1      11.628  -9.466   4.634  0.00  0.00    -0.191 NA
ENDBRANCH  23  31
ENDBRANCH  20  22
ENDBRANCH  17  18
ENDBRANCH   1  17
TORSDOF 6
