REMARK  Name = ZINC22738303
REMARK  6 active torsions:
REMARK  status: ('A' for Active; 'I' for Inactive)
REMARK    1  A    between atoms: C_9  and  S_11
REMARK    2  A    between atoms: S_11  and  C_12
REMARK    3  A    between atoms: C_12  and  C_13
REMARK    4  A    between atoms: C_16  and  C_19
REMARK    5  A    between atoms: N_21  and  N_22
REMARK    6  A    between atoms: C_23  and  C_25
REMARK                            x       y       z     vdW  Elec       q    Type
REMARK                         _______ _______ _______ _____ _____    ______ ____
ROOT
ATOM      1  C   UNL     1       6.716   4.763  -0.035  0.00  0.00    -0.037 A 
ATOM      2  C   UNL     1       7.399   4.906   1.160  0.00  0.00    +0.005 A 
ATOM      3  C   UNL     1       8.750   5.188   1.156  0.00  0.00    +0.013 A 
ATOM      4  C   UNL     1       9.424   5.341  -0.057  0.00  0.00    +0.038 A 
ATOM      5  C   UNL     1       8.728   5.201  -1.258  0.00  0.00    +0.013 A 
ATOM      6  C   UNL     1       7.378   4.913  -1.240  0.00  0.00    +0.005 A 
ENDROOT
BRANCH   4   7
ATOM      7  C   UNL     1      10.870   5.649  -0.068  0.00  0.00    +0.260 C 
ATOM      8  O   UNL     1      11.455   5.782  -1.126  0.00  0.00    -0.269 OA
ATOM      9  N   UNL     1      11.540   5.784   1.094  0.00  0.00    -0.230 N 
ATOM     10  H   UNL     1      11.011   5.664   2.050  0.00  0.00    +0.173 HD
BRANCH   9  11
ATOM     11  N   UNL     1      12.910   6.076   1.083  0.00  0.00    -0.228 N 
ATOM     12  C   UNL     1      13.580   6.210   2.244  0.00  0.00    +0.295 C 
ATOM     13  O   UNL     1      12.994   6.078   3.303  0.00  0.00    -0.265 OA
ATOM     14  H   UNL     1      13.439   6.195   0.126  0.00  0.00    +0.173 HD
BRANCH  12  15
ATOM     15  C   UNL     1      15.013   6.516   2.233  0.00  0.00    +0.192 A 
ATOM     16  C   UNL     1      15.807   6.682   3.332  0.00  0.00    +0.056 A 
ATOM     17  C   UNL     1      17.099   6.955   2.859  0.00  0.00    +0.058 A 
ATOM     18  C   UNL     1      17.038   6.952   1.507  0.00  0.00    +0.171 A 
ATOM     19  O   UNL     1      15.779   6.687   1.134  0.00  0.00    -0.444 OA
ATOM     20 BR   UNL     1      18.489   7.271   0.337  0.00  0.00    -0.008 Br
ENDBRANCH  12  15
ENDBRANCH   9  11
ENDBRANCH   4   7
BRANCH   1  21
ATOM     21  C   UNL     1       5.242   4.449  -0.023  0.00  0.00    +0.112 C 
BRANCH  21  22
ATOM     22  S   UNL     1       5.008   2.654  -0.030  0.00  0.00    -0.083 S 
BRANCH  22  31
ATOM     23  C   UNL     1      -1.216   1.751   0.017  0.00  0.00    +0.002 A 
ATOM     24  C   UNL     1      -1.243   3.138   0.030  0.00  0.00    +0.002 A 
ATOM     25  C   UNL     1      -0.071   3.860   0.023  0.00  0.00    +0.030 A 
ATOM     26  C   UNL     1       1.156   3.191   0.008  0.00  0.00    +0.090 A 
ATOM     27  C   UNL     1       1.178   1.787   0.000  0.00  0.00    +0.067 A 
ATOM     28  C   UNL     1      -0.013   1.076   0.008  0.00  0.00    +0.028 A 
ATOM     29  N   UNL     1       2.514   1.422  -0.014  0.00  0.00    -0.333 N 
ATOM     30  H   UNL     1       2.794   0.358  -0.022  0.00  0.00    +0.168 HD
ATOM     31  C   UNL     1       3.248   2.575  -0.015  0.00  0.00    +0.168 A 
ATOM     32  N   UNL     1       2.448   3.612  -0.001  0.00  0.00    -0.222 NA
ENDBRANCH  22  31
ENDBRANCH  21  22
ENDBRANCH   1  21
TORSDOF 6
