REMARK  Name = ZINC32116493
REMARK  4 active torsions:
REMARK  status: ('A' for Active; 'I' for Inactive)
REMARK    1  A    between atoms: C_1  and  N_2
REMARK    2  A    between atoms: N_10  and  O_11
REMARK    3  A    between atoms: O_11  and  C_12
REMARK    4  A    between atoms: C_12  and  C_14
REMARK                            x       y       z     vdW  Elec       q    Type
REMARK                         _______ _______ _______ _____ _____    ______ ____
ROOT
ATOM      1  C   UNL     1       3.615   0.841  -0.028  0.00  0.00    +0.138 C 
ATOM      2  N   UNL     1       2.152   0.777  -0.014  0.00  0.00    -0.269 N 
ATOM      3  C   UNL     1       1.319   1.893  -0.000  0.00  0.00    +0.046 A 
ATOM      4  C   UNL     1       1.604   3.254   0.005  0.00  0.00    +0.024 A 
ATOM      5  C   UNL     1       0.577   4.177   0.021  0.00  0.00    +0.002 A 
ATOM      6  C   UNL     1      -0.744   3.762   0.032  0.00  0.00    +0.001 A 
ATOM      7  C   UNL     1      -1.045   2.415   0.030  0.00  0.00    +0.012 A 
ATOM      8  C   UNL     1      -0.018   1.478   0.010  0.00  0.00    +0.030 A 
ATOM      9  C   UNL     1       0.002  -0.004   0.002  0.00  0.00    +0.174 C 
ATOM     10  N   UNL     1      -1.019  -0.812   0.007  0.00  0.00    -0.069 NA
ATOM     11  C   UNL     1       1.444  -0.365  -0.014  0.00  0.00    +0.273 C 
ATOM     12  O   UNL     1       1.901  -1.491  -0.025  0.00  0.00    -0.268 OA
ENDROOT
BRANCH  10  13
ATOM     13  O   UNL     1      -0.842  -2.017  -0.001  0.00  0.00    -0.311 OA
BRANCH  13  14
ATOM     14  C   UNL     1      -1.941  -2.797   0.006  0.00  0.00    +0.366 C 
ATOM     15  O   UNL     1      -3.045  -2.291   0.019  0.00  0.00    -0.243 OA
BRANCH  14  16
ATOM     16  C   UNL     1      -1.803  -4.268  -0.004  0.00  0.00    +0.062 A 
ATOM     17  C   UNL     1      -2.940  -5.079   0.003  0.00  0.00    +0.015 A 
ATOM     18  C   UNL     1      -2.805  -6.451  -0.006  0.00  0.00    +0.002 A 
ATOM     19  C   UNL     1      -1.546  -7.026  -0.022  0.00  0.00    +0.015 A 
ATOM     20  C   UNL     1      -0.414  -6.228  -0.029  0.00  0.00    +0.019 A 
ATOM     21  C   UNL     1      -0.536  -4.853  -0.025  0.00  0.00    +0.030 A 
ATOM     22 BR   UNL     1       1.301  -7.024  -0.051  0.00  0.00    -0.050 Br
ENDBRANCH  14  16
ENDBRANCH  13  14
ENDBRANCH  10  13
TORSDOF 3
