REMARK  Name = ZINC10170368
REMARK  11 active torsions:
REMARK  status: ('A' for Active; 'I' for Inactive)
REMARK    1  A    between atoms: C_4  and  C_7
REMARK    2  A    between atoms: C_7  and  C_9
REMARK    3  A    between atoms: C_7  and  N_14
REMARK    4  A    between atoms: C_15  and  C_17
REMARK    5  A    between atoms: C_17  and  N_18
REMARK    6  A    between atoms: N_18  and  C_19
REMARK    7  A    between atoms: C_21  and  N_29
REMARK    8  A    between atoms: C_24  and  N_25
REMARK    9  A    between atoms: N_25  and  C_26
REMARK   10  A    between atoms: C_26  and  C_27
REMARK   11  A    between atoms: C_27  and  O_28
REMARK                            x       y       z     vdW  Elec       q    Type
REMARK                         _______ _______ _______ _____ _____    ______ ____
ROOT
ATOM      1  C   UNL     1       0.002  -0.004   0.002  0.00  0.00    +0.197 C 
ENDROOT
BRANCH   1   3
ATOM      2  N   UNL     1      -1.195   2.161   0.019  0.00  0.00    -0.303 N 
ATOM      3  C   UNL     1      -0.018   1.503   0.010  0.00  0.00    +0.231 C 
ATOM      4  O   UNL     1       1.024   2.123   0.004  0.00  0.00    -0.274 OA
ATOM      5  H   UNL     1      -2.028   1.664   0.021  0.00  0.00    +0.150 HD
BRANCH   2   6
ATOM      6  C   UNL     1      -1.214   3.626   0.028  0.00  0.00    +0.140 C 
BRANCH   6  10
ATOM      7  C   UNL     1      -4.875   4.991   1.754  0.00  0.00    +0.000 A 
ATOM      8  C   UNL     1      -3.690   5.639   2.045  0.00  0.00    +0.000 A 
ATOM      9  C   UNL     1      -2.505   5.197   1.486  0.00  0.00    +0.006 A 
ATOM     10  C   UNL     1      -2.506   4.107   0.637  0.00  0.00    -0.022 A 
ATOM     11  C   UNL     1      -3.692   3.462   0.342  0.00  0.00    +0.006 A 
ATOM     12  C   UNL     1      -4.876   3.901   0.904  0.00  0.00    +0.000 A 
ENDBRANCH   6  10
BRANCH   6  13
ATOM     13  C   UNL     1      -1.104   4.137  -1.386  0.00  0.00    +0.014 A 
ATOM     14  C   UNL     1      -0.404   5.198  -1.857  0.00  0.00    +0.013 A 
ATOM     15  C   UNL     1      -0.447   5.482  -3.209  0.00  0.00    +0.008 A 
ATOM     16  C   UNL     1      -1.197   4.697  -4.022  0.00  0.00    +0.045 A 
ATOM     17  S   UNL     1      -1.868   3.509  -2.872  0.00  0.00    -0.099 S 
ENDBRANCH   6  13
ENDBRANCH   2   6
ENDBRANCH   1   3
BRANCH   1  18
ATOM     18  N   UNL     1       1.390  -0.473  -0.014  0.00  0.00    -0.334 N 
ATOM     19  H   UNL     1       2.118   0.167  -0.017  0.00  0.00    +0.147 HD
BRANCH  18  20
ATOM     20  C   UNL     1       1.664  -1.847  -0.024  0.00  0.00    +0.051 A 
ATOM     21  C   UNL     1       0.624  -2.764  -0.013  0.00  0.00    +0.057 A 
ATOM     22  C   UNL     1       0.897  -4.119  -0.028  0.00  0.00    +0.128 A 
ATOM     23  C   UNL     1       2.206  -4.564  -0.044  0.00  0.00    +0.034 A 
ATOM     24  C   UNL     1       3.249  -3.657  -0.049  0.00  0.00    +0.027 A 
ATOM     25  C   UNL     1       2.985  -2.296  -0.039  0.00  0.00    +0.048 A 
BRANCH  22  26
ATOM     26  N   UNL     1      -0.214  -5.096  -0.022  0.00  0.00    +0.056 N 
ATOM     27  O   UNL     1       0.025  -6.290  -0.031  0.00  0.00    -0.126 OA
ATOM     28  O   UNL     1      -1.368  -4.706  -0.009  0.00  0.00    -0.126 OA
ENDBRANCH  22  26
BRANCH  25  29
ATOM     29  N   UNL     1       4.039  -1.375  -0.044  0.00  0.00    -0.340 N 
ATOM     30  H   UNL     1       3.852  -0.423  -0.038  0.00  0.00    +0.146 HD
BRANCH  29  31
ATOM     31  C   UNL     1       5.426  -1.849  -0.060  0.00  0.00    +0.129 C 
BRANCH  31  32
ATOM     32  C   UNL     1       6.375  -0.649  -0.063  0.00  0.00    +0.174 C 
BRANCH  32  33
ATOM     33  O   UNL     1       6.236   0.071   1.163  0.00  0.00    -0.393 OA
ATOM     34  H   UNL     1       6.809   0.847   1.230  0.00  0.00    +0.209 HD
ENDBRANCH  32  33
ENDBRANCH  31  32
ENDBRANCH  29  31
ENDBRANCH  25  29
ENDBRANCH  18  20
ENDBRANCH   1  18
TORSDOF 11
