REMARK  Name = ZINC33253615
REMARK  7 active torsions:
REMARK  status: ('A' for Active; 'I' for Inactive)
REMARK    1  A    between atoms: C_1  and  C_2
REMARK    2  A    between atoms: C_6  and  S_8
REMARK    3  A    between atoms: S_8  and  N_11
REMARK    4  A    between atoms: N_11  and  C_12
REMARK    5  A    between atoms: C_15  and  N_21
REMARK    6  A    between atoms: C_16  and  C_18
REMARK    7  A    between atoms: C_24  and  N_27
REMARK                            x       y       z     vdW  Elec       q    Type
REMARK                         _______ _______ _______ _____ _____    ______ ____
ROOT
ATOM      1  C   UNL     1       0.010  -0.024   0.026  0.00  0.00    +0.049 A 
ATOM      2  C   UNL     1       1.210  -0.726  -0.040  0.00  0.00    +0.026 A 
ATOM      3  C   UNL     1       2.413  -0.052  -0.024  0.00  0.00    +0.026 A 
ATOM      4  C   UNL     1       2.436   1.335   0.056  0.00  0.00    +0.044 A 
ATOM      5  C   UNL     1       1.230   2.049   0.122  0.00  0.00    +0.086 A 
ATOM      6  C   UNL     1       0.015   1.357   0.106  0.00  0.00    +0.041 A 
ENDROOT
BRANCH   4   7
ATOM      7  N   UNL     1       3.650   2.013   0.072  0.00  0.00    -0.329 N 
ATOM      8  C   UNL     1       4.376   1.822  -1.190  0.00  0.00    +0.103 C 
ATOM      9  C   UNL     1       5.633   2.695  -1.195  0.00  0.00    +0.004 C 
ATOM     10  C   UNL     1       6.522   2.308  -0.009  0.00  0.00    -0.066 C 
ATOM     11  C   UNL     1       5.726   2.470   1.289  0.00  0.00    +0.004 C 
ATOM     12  C   UNL     1       4.467   1.603   1.222  0.00  0.00    +0.103 C 
BRANCH  10  13
ATOM     13  N   UNL     1       7.702   3.183   0.025  0.00  0.00    +0.382 N 
ATOM     14  C   UNL     1       7.309   4.592   0.145  0.00  0.00    -0.078 C 
ATOM     15  C   UNL     1       8.558   5.458   0.325  0.00  0.00    -0.019 C 
ATOM     16  C   UNL     1       9.482   5.267  -0.881  0.00  0.00    -0.004 C 
ATOM     17  C   UNL     1       9.838   3.784  -1.012  0.00  0.00    -0.019 C 
ATOM     18  C   UNL     1       8.552   2.966  -1.152  0.00  0.00    -0.078 C 
ATOM     19  H   UNL     1       8.291   2.922   0.917  0.00  0.00    -0.081 HD
ENDBRANCH  10  13
ENDBRANCH   4   7
BRANCH   5  20
ATOM     20  C   UNL     1       1.244   3.519   0.208  0.00  0.00    +0.388 C 
ATOM     21  O   UNL     1       2.302   4.117   0.221  0.00  0.00    -0.241 OA
ATOM     22  O   UNL     1       0.083   4.202   0.271  0.00  0.00    -0.241 OA
ENDBRANCH   5  20
BRANCH   1  23
ATOM     23  N   UNL     1      -1.206  -0.718   0.010  0.00  0.00    -0.216 N 
ATOM     24  H   UNL     1      -1.997  -0.459   0.730  0.00  0.00    +0.174 HD
BRANCH  23  25
ATOM     25  S   UNL     1      -1.455  -1.928  -1.093  0.00  0.00    +0.072 S 
ATOM     26  O   UNL     1      -0.351  -2.816  -0.977  0.00  0.00    -0.150 OA
ATOM     27  O   UNL     1      -2.799  -2.358  -0.928  0.00  0.00    -0.150 OA
BRANCH  25  33
ATOM     28  C   UNL     1      -3.595   0.620  -5.124  0.00  0.00    +0.044 C 
ATOM     29  C   UNL     1      -2.382  -0.033  -4.513  0.00  0.00    -0.049 A 
ATOM     30  C   UNL     1      -1.188  -0.064  -5.210  0.00  0.00    +0.003 A 
ATOM     31  C   UNL     1      -0.076  -0.663  -4.649  0.00  0.00    +0.002 A 
ATOM     32  C   UNL     1      -0.157  -1.232  -3.392  0.00  0.00    +0.029 A 
ATOM     33  C   UNL     1      -1.351  -1.202  -2.695  0.00  0.00    +0.109 A 
ATOM     34  C   UNL     1      -2.465  -0.607  -3.258  0.00  0.00    +0.032 A 
ENDBRANCH  25  33
ENDBRANCH  23  25
ENDBRANCH   1  23
TORSDOF 6
