REMARK  Name = ZINC20694152
REMARK  8 active torsions:
REMARK  status: ('A' for Active; 'I' for Inactive)
REMARK    1  A    between atoms: C_1  and  N_2
REMARK    2  A    between atoms: N_2  and  C_3
REMARK    3  A    between atoms: N_2  and  S_9
REMARK    4  A    between atoms: S_9  and  C_12
REMARK    5  A    between atoms: C_25  and  C_28
REMARK    6  A    between atoms: C_32  and  O_35
REMARK    7  A    between atoms: C_33  and  O_34
REMARK    8  A    between atoms: O_35  and  C_36
REMARK                            x       y       z     vdW  Elec       q    Type
REMARK                         _______ _______ _______ _____ _____    ______ ____
ROOT
ATOM      1  C   UNL     1      -6.242   9.788   0.057  0.00  0.00    +0.109 A 
ATOM      2  C   UNL     1      -5.893  10.446  -1.109  0.00  0.00    +0.030 A 
ATOM      3  C   UNL     1      -5.627   9.729  -2.257  0.00  0.00    +0.025 A 
ATOM      4  C   UNL     1      -5.707   8.341  -2.252  0.00  0.00    +0.031 A 
ATOM      5  C   UNL     1      -6.070   7.683  -1.072  0.00  0.00    -0.018 A 
ATOM      6  C   UNL     1      -6.328   8.408   0.071  0.00  0.00    +0.034 A 
ATOM      7  C   UNL     1      -6.169   6.208  -1.115  0.00  0.00    +0.049 C 
ATOM      8  C   UNL     1      -5.950   5.370   0.091  0.00  0.00    -0.023 C 
ATOM      9  C   UNL     1      -5.455   4.206  -0.274  0.00  0.00    -0.030 C 
ATOM     10  C   UNL     1      -5.231   4.188  -1.787  0.00  0.00    +0.033 C 
ATOM     11  C   UNL     1      -5.074   5.684  -2.092  0.00  0.00    +0.029 C 
ATOM     12  C   UNL     1      -5.501   6.158  -3.470  0.00  0.00    +0.109 C 
ATOM     13  N   UNL     1      -5.420   7.634  -3.426  0.00  0.00    -0.336 N 
ATOM     14  H   UNL     1      -5.129   8.196  -4.326  0.00  0.00    +0.147 HD
ENDROOT
BRANCH  12  15
ATOM     15  C   UNL     1      -4.567   5.616  -4.520  0.00  0.00    +0.018 A 
ATOM     16  C   UNL     1      -3.457   6.347  -4.902  0.00  0.00    +0.009 A 
ATOM     17  C   UNL     1      -2.598   5.853  -5.865  0.00  0.00    +0.004 A 
ATOM     18  C   UNL     1      -2.844   4.625  -6.452  0.00  0.00    +0.049 A 
ATOM     19  C   UNL     1      -3.954   3.888  -6.074  0.00  0.00    +0.162 A 
ATOM     20  C   UNL     1      -4.823   4.388  -5.108  0.00  0.00    +0.163 A 
BRANCH  20  21
ATOM     21  O   UNL     1      -5.917   3.670  -4.738  0.00  0.00    -0.503 OA
ATOM     22  H   UNL     1      -6.119   2.696  -5.206  0.00  0.00    +0.292 HD
ENDBRANCH  20  21
BRANCH  19  23
ATOM     23  O   UNL     1      -4.198   2.680  -6.650  0.00  0.00    -0.491 OA
ATOM     24  C   UNL     1      -3.267   2.233  -7.638  0.00  0.00    +0.277 C 
ENDBRANCH  19  23
ENDBRANCH  12  15
BRANCH   1  25
ATOM     25  S   UNL     1      -6.574  10.708   1.522  0.00  0.00    +0.074 S 
ATOM     26  O   UNL     1      -6.828  12.045   1.114  0.00  0.00    -0.150 OA
ATOM     27  O   UNL     1      -7.511   9.949   2.274  0.00  0.00    -0.150 OA
BRANCH  25  29
ATOM     28  C   UNL     1      -4.850   9.631   3.307  0.00  0.00    +0.157 C 
ATOM     29  N   UNL     1      -5.174  10.741   2.407  0.00  0.00    -0.206 N 
BRANCH  29  30
ATOM     30  C   UNL     1      -4.303  11.827   2.295  0.00  0.00    +0.051 A 
ATOM     31  C   UNL     1      -3.668  12.088   1.088  0.00  0.00    +0.025 A 
ATOM     32  C   UNL     1      -2.811  13.166   0.979  0.00  0.00    +0.002 A 
ATOM     33  C   UNL     1      -2.576  13.978   2.074  0.00  0.00    +0.000 A 
ATOM     34  C   UNL     1      -3.202  13.717   3.279  0.00  0.00    +0.002 A 
ATOM     35  C   UNL     1      -4.065  12.644   3.393  0.00  0.00    +0.025 A 
ENDBRANCH  29  30
ENDBRANCH  25  29
ENDBRANCH   1  25
TORSDOF 6
