REMARK  Name = ZINC17028606
REMARK  7 active torsions:
REMARK  status: ('A' for Active; 'I' for Inactive)
REMARK    1  A    between atoms: C_1  and  C_2
REMARK    2  A    between atoms: C_17  and  C_37
REMARK    3  A    between atoms: C_22  and  C_23
REMARK    4  A    between atoms: C_22  and  O_36
REMARK    5  A    between atoms: C_23  and  N_24
REMARK    6  A    between atoms: C_25  and  C_26
REMARK    7  A    between atoms: C_28  and  N_33
REMARK                            x       y       z     vdW  Elec       q    Type
REMARK                         _______ _______ _______ _____ _____    ______ ____
ROOT
ATOM      1  C   UNL     1       0.806  -0.771  -1.364  0.00  0.00    +0.012 C 
ATOM      2  C   UNL     1      -0.029   0.339  -2.006  0.00  0.00    -0.026 C 
ATOM      3  C   UNL     1      -1.087  -0.323  -2.910  0.00  0.00    +0.007 C 
ATOM      4  C   UNL     1      -0.352  -1.246  -3.893  0.00  0.00    +0.001 C 
ATOM      5  C   UNL     1       0.641  -0.440  -4.729  0.00  0.00    +0.000 C 
ATOM      6  C   UNL     1       1.650   0.272  -3.821  0.00  0.00    +0.004 C 
ATOM      7  C   UNL     1       0.885   1.184  -2.867  0.00  0.00    -0.005 C 
ATOM      8  C   UNL     1       1.811   1.978  -1.954  0.00  0.00    +0.004 C 
ATOM      9  C   UNL     1       0.986   3.053  -1.244  0.00  0.00    +0.004 C 
ATOM     10  C   UNL     1      -0.490   2.660  -1.186  0.00  0.00    -0.004 C 
ATOM     11  C   UNL     1      -0.660   1.171  -0.908  0.00  0.00    -0.001 C 
ATOM     12  C   UNL     1      -0.028   0.858   0.451  0.00  0.00    +0.005 C 
ATOM     13  C   UNL     1      -0.817   1.600   1.527  0.00  0.00    +0.010 C 
ATOM     14  C   UNL     1      -0.765   3.113   1.307  0.00  0.00    +0.001 C 
ATOM     15  C   UNL     1      -1.193   3.482  -0.125  0.00  0.00    +0.001 C 
ATOM     16  C   UNL     1      -2.715   3.252  -0.115  0.00  0.00    +0.007 C 
ATOM     17  C   UNL     1      -3.148   3.781   1.273  0.00  0.00    +0.037 C 
ATOM     18  C   UNL     1      -1.900   3.724   2.173  0.00  0.00    +0.089 C 
ATOM     19  C   UNL     1       0.601   3.707   1.659  0.00  0.00    +0.014 C 
ENDROOT
BRANCH  18  20
ATOM     20  O   UNL     1      -1.540   5.041   2.596  0.00  0.00    -0.386 OA
ATOM     21  H   UNL     1      -2.230   5.626   3.222  0.00  0.00    +0.210 HD
ENDBRANCH  18  20
BRANCH  18  22
ATOM     22  C   UNL     1      -2.169   2.836   3.389  0.00  0.00    +0.147 C 
BRANCH  22  23
ATOM     23  N   UNL     1      -3.318   3.359   4.132  0.00  0.00    -0.387 N 
ATOM     24  C   UNL     1      -4.406   2.663   4.215  0.00  0.00    +0.090 C 
ATOM     25  H   UNL     1      -3.257   4.344   4.618  0.00  0.00    +0.159 HD
BRANCH  24  26
ATOM     26  C   UNL     1      -5.563   3.189   4.962  0.00  0.00    +0.039 A 
ATOM     27  C   UNL     1      -6.741   2.443   5.050  0.00  0.00    +0.045 A 
ATOM     28  C   UNL     1      -7.817   2.939   5.754  0.00  0.00    +0.127 A 
ATOM     29  C   UNL     1      -7.739   4.179   6.367  0.00  0.00    +0.036 A 
ATOM     30  C   UNL     1      -6.583   4.929   6.283  0.00  0.00    +0.054 A 
ATOM     31  C   UNL     1      -5.489   4.444   5.583  0.00  0.00    +0.188 A 
ATOM     32  O   UNL     1      -4.352   5.179   5.500  0.00  0.00    -0.287 OA
BRANCH  28  33
ATOM     33  N   UNL     1      -9.062   2.146   5.852  0.00  0.00    +0.056 N 
ATOM     34  O   UNL     1     -10.016   2.583   6.470  0.00  0.00    -0.126 OA
ATOM     35  O   UNL     1      -9.133   1.055   5.314  0.00  0.00    -0.126 OA
ENDBRANCH  28  33
ENDBRANCH  24  26
ENDBRANCH  22  23
ENDBRANCH  18  22
TORSDOF 5
