REMARK  Name = ZINC08590433
REMARK  10 active torsions:
REMARK  status: ('A' for Active; 'I' for Inactive)
REMARK    1  A    between atoms: C_1  and  C_2
REMARK    2  A    between atoms: C_2  and  C_3
REMARK    3  A    between atoms: C_2  and  C_4
REMARK    4  A    between atoms: C_7  and  S_10
REMARK    5  A    between atoms: S_10  and  C_13
REMARK    6  A    between atoms: C_16  and  S_20
REMARK    7  A    between atoms: C_18  and  N_19
REMARK    8  A    between atoms: S_20  and  C_21
REMARK    9  A    between atoms: C_21  and  C_22
REMARK   10  A    between atoms: N_24  and  C_25
REMARK                            x       y       z     vdW  Elec       q    Type
REMARK                         _______ _______ _______ _____ _____    ______ ____
ROOT
ATOM      1  C   UNL     1      -6.533  -0.738  -0.706  0.00  0.00    +0.151 A 
ATOM      2  C   UNL     1      -7.293  -1.055  -1.815  0.00  0.00    +0.144 A 
ATOM      3  N   UNL     1      -8.104  -0.142  -2.328  0.00  0.00    -0.228 NA
ATOM      4  C   UNL     1      -8.196   1.067  -1.791  0.00  0.00    +0.190 A 
ATOM      5  N   UNL     1      -7.484   1.410  -0.727  0.00  0.00    -0.205 NA
ATOM      6  C   UNL     1      -6.654   0.541  -0.159  0.00  0.00    +0.146 A 
ENDROOT
BRANCH   1   7
ATOM      7  S   UNL     1      -5.441  -1.923   0.007  0.00  0.00    +0.030 S 
ATOM      8  O   UNL     1      -5.538  -3.095  -0.789  0.00  0.00    -0.164 OA
ATOM      9  O   UNL     1      -5.702  -1.927   1.404  0.00  0.00    -0.164 OA
BRANCH   7  13
ATOM     10  C   UNL     1      -1.229  -0.350  -0.517  0.00  0.00    -0.045 A 
ATOM     11  C   UNL     1      -1.900  -0.146   0.674  0.00  0.00    +0.006 A 
ATOM     12  C   UNL     1      -3.186  -0.626   0.834  0.00  0.00    +0.027 A 
ATOM     13  C   UNL     1      -3.802  -1.310  -0.197  0.00  0.00    +0.094 A 
ATOM     14  C   UNL     1      -3.132  -1.513  -1.389  0.00  0.00    +0.027 A 
ATOM     15  C   UNL     1      -1.847  -1.029  -1.550  0.00  0.00    +0.006 A 
BRANCH  10  17
ATOM     16  C   UNL     1       0.176   1.694  -0.515  0.00  0.00    +0.012 C 
ATOM     17  C   UNL     1       0.173   0.174  -0.692  0.00  0.00    +0.013 C 
ATOM     18  C   UNL     1       1.089  -0.463   0.356  0.00  0.00    +0.012 C 
ENDBRANCH  10  17
ENDBRANCH   7  13
ENDBRANCH   1   7
BRANCH   6  19
ATOM     19  N   UNL     1      -5.916   0.901   0.957  0.00  0.00    -0.342 N 
ATOM     20  H   UNL     1      -5.283   0.276   1.342  0.00  0.00    +0.144 HD
ATOM     21  H   UNL     1      -6.033   1.779   1.353  0.00  0.00    +0.144 HD
ENDBRANCH   6  19
BRANCH   4  22
ATOM     22  S   UNL     1      -9.290   2.246  -2.510  0.00  0.00    -0.077 S 
BRANCH  22  23
ATOM     23  C   UNL     1     -10.034   1.359  -3.907  0.00  0.00    +0.173 C 
BRANCH  23  24
ATOM     24  C   UNL     1     -11.004   2.267  -4.619  0.00  0.00    +0.228 C 
ATOM     25  O   UNL     1     -11.176   3.400  -4.223  0.00  0.00    -0.275 OA
ATOM     26  N   UNL     1     -11.680   1.819  -5.696  0.00  0.00    -0.283 N 
ATOM     27  H   UNL     1     -11.493   0.936  -6.053  0.00  0.00    +0.155 HD
BRANCH  26  28
ATOM     28  C   UNL     1     -12.652   2.628  -6.299  0.00  0.00    +0.069 A 
ATOM     29  C   UNL     1     -12.501   4.008  -6.306  0.00  0.00    +0.029 A 
ATOM     30  C   UNL     1     -13.460   4.804  -6.901  0.00  0.00    +0.040 A 
ATOM     31  C   UNL     1     -14.572   4.227  -7.491  0.00  0.00    +0.126 A 
ATOM     32  C   UNL     1     -14.726   2.851  -7.486  0.00  0.00    +0.078 A 
ATOM     33  C   UNL     1     -13.766   2.050  -6.897  0.00  0.00    +0.147 A 
ATOM     34  F   UNL     1     -13.912   0.707  -6.897  0.00  0.00    -0.203 F 
ATOM     35  F   UNL     1     -15.509   5.009  -8.073  0.00  0.00    -0.205 F 
ENDBRANCH  26  28
ENDBRANCH  23  24
ENDBRANCH  22  23
ENDBRANCH   4  22
TORSDOF 8
