REMARK  Name = ZINC20112352
REMARK  8 active torsions:
REMARK  status: ('A' for Active; 'I' for Inactive)
REMARK    1  A    between atoms: C_1  and  O_2
REMARK    2  A    between atoms: O_2  and  C_3
REMARK    3  A    between atoms: C_13  and  C_18
REMARK    4  A    between atoms: C_21  and  O_38
REMARK    5  A    between atoms: C_22  and  C_24
REMARK    6  A    between atoms: C_24  and  N_25
REMARK    7  A    between atoms: N_28  and  C_31
REMARK    8  A    between atoms: O_38  and  C_39
REMARK                            x       y       z     vdW  Elec       q    Type
REMARK                         _______ _______ _______ _____ _____    ______ ____
ROOT
ATOM      1  C   UNL     1       1.176   1.783   0.000  0.00  0.00    -0.024 A 
ATOM      2  C   UNL     1      -0.013   1.076   0.008  0.00  0.00    +0.009 A 
ATOM      3  C   UNL     1      -1.218   1.750   0.017  0.00  0.00    +0.046 A 
ATOM      4  C   UNL     1      -1.236   3.137   0.030  0.00  0.00    +0.121 A 
ATOM      5  C   UNL     1      -0.043   3.844   0.023  0.00  0.00    -0.022 A 
ATOM      6  C   UNL     1       1.161   3.165   0.008  0.00  0.00    +0.011 A 
ENDROOT
BRANCH   1  17
ATOM      7  C   UNL     1       3.908  -1.466  -5.341  0.00  0.00    +0.121 A 
ATOM      8  C   UNL     1       3.511  -0.230  -5.838  0.00  0.00    +0.047 A 
ATOM      9  C   UNL     1       3.066   0.788  -5.013  0.00  0.00    +0.030 A 
ATOM     10  C   UNL     1       3.028   0.526  -3.645  0.00  0.00    +0.047 A 
ATOM     11  C   UNL     1       3.433  -0.735  -3.135  0.00  0.00    +0.007 A 
ATOM     12  C   UNL     1       3.880  -1.752  -3.985  0.00  0.00    +0.056 A 
ATOM     13  C   UNL     1       3.267  -0.656  -1.701  0.00  0.00    -0.016 A 
ATOM     14  C   UNL     1       2.794   0.580  -1.420  0.00  0.00    +0.042 A 
ATOM     15  N   UNL     1       2.649   1.294  -2.578  0.00  0.00    -0.356 N 
ATOM     16  H   UNL     1       2.294   2.323  -2.739  0.00  0.00    +0.166 HD
ATOM     17  C   UNL     1       2.490   1.045  -0.016  0.00  0.00    +0.131 C 
ATOM     18  N   UNL     1       2.407  -0.133   0.863  0.00  0.00    -0.304 NA
ATOM     19  C   UNL     1       3.587  -0.996   0.716  0.00  0.00    +0.086 C 
ATOM     20  C   UNL     1       3.546  -1.699  -0.648  0.00  0.00    +0.052 C 
ATOM     21  H   UNL     1       2.342   0.195   1.911  0.00  0.00    +0.123 HD
BRANCH   7  23
ATOM     22  C   UNL     1       4.346  -2.078  -7.598  0.00  0.00    +0.277 C 
ATOM     23  O   UNL     1       4.335  -2.421  -6.210  0.00  0.00    -0.495 OA
ENDBRANCH   7  23
ENDBRANCH   1  17
BRANCH   4  24
ATOM     24  O   UNL     1      -2.421   3.802   0.045  0.00  0.00    -0.495 OA
ATOM     25  C   UNL     1      -3.610   3.009   0.051  0.00  0.00    +0.277 C 
ENDBRANCH   4  24
BRANCH   5  26
ATOM     26  C   UNL     1      -0.059   5.351   0.031  0.00  0.00    -0.039 C 
BRANCH  26  27
ATOM     27  N   UNL     1      -0.435   5.844  -1.300  0.00  0.00    +0.384 N 
ATOM     28  C   UNL     1       0.595   5.514  -2.295  0.00  0.00    -0.059 C 
ATOM     29  C   UNL     1       0.130   5.973  -3.679  0.00  0.00    +0.086 C 
ATOM     30  N   UNL     1      -0.127   7.419  -3.651  0.00  0.00    -0.331 N 
ATOM     31  C   UNL     1      -1.158   7.749  -2.657  0.00  0.00    +0.086 C 
ATOM     32  C   UNL     1      -0.693   7.290  -1.273  0.00  0.00    -0.059 C 
ATOM     33  H   UNL     1      -1.367   5.338  -1.596  0.00  0.00    -0.081 HD
BRANCH  30  34
ATOM     34  C   UNL     1      -0.486   7.888  -4.919  0.00  0.00    +0.065 A 
ATOM     35  C   UNL     1      -0.694   9.245  -5.125  0.00  0.00    +0.026 A 
ATOM     36  C   UNL     1      -1.048   9.706  -6.379  0.00  0.00    +0.002 A 
ATOM     37  C   UNL     1      -1.195   8.818  -7.428  0.00  0.00    +0.003 A 
ATOM     38  C   UNL     1      -0.988   7.465  -7.228  0.00  0.00    +0.040 A 
ATOM     39  C   UNL     1      -0.628   6.998  -5.978  0.00  0.00    +0.144 A 
ATOM     40  F   UNL     1      -0.420   5.677  -5.783  0.00  0.00    -0.204 F 
ENDBRANCH  30  34
ENDBRANCH  26  27
ENDBRANCH   5  26
TORSDOF 6
