REMARK  Name = ZINC10367316
REMARK  8 active torsions:
REMARK  status: ('A' for Active; 'I' for Inactive)
REMARK    1  A    between atoms: C_1  and  C_2
REMARK    2  A    between atoms: C_3  and  N_9
REMARK    3  A    between atoms: C_19  and  S_20
REMARK    4  A    between atoms: S_20  and  C_21
REMARK    5  A    between atoms: C_21  and  C_23
REMARK    6  A    between atoms: C_21  and  C_26
REMARK    7  A    between atoms: C_23  and  C_24
REMARK    8  A    between atoms: C_23  and  C_25
REMARK                            x       y       z     vdW  Elec       q    Type
REMARK                         _______ _______ _______ _____ _____    ______ ____
ROOT
ATOM      1  N   UNL     1       3.390  -1.415  -0.070  0.00  0.00    -0.255 N 
ATOM      2  C   UNL     1       3.920  -1.897  -1.218  0.00  0.00    +0.267 A 
ATOM      3  O   UNL     1       3.410  -1.656  -2.297  0.00  0.00    -0.267 OA
ATOM      4  C   UNL     1       5.134  -2.717  -1.115  0.00  0.00    +0.065 A 
ATOM      5  C   UNL     1       5.757  -3.255  -2.240  0.00  0.00    +0.015 A 
ATOM      6  C   UNL     1       6.883  -4.016  -2.088  0.00  0.00    +0.001 A 
ATOM      7  C   UNL     1       7.410  -4.259  -0.826  0.00  0.00    +0.002 A 
ATOM      8  C   UNL     1       6.819  -3.744   0.294  0.00  0.00    +0.028 A 
ATOM      9  C   UNL     1       5.667  -2.962   0.171  0.00  0.00    +0.079 A 
ATOM     10  N   UNL     1       5.050  -2.433   1.253  0.00  0.00    -0.223 NA
ATOM     11  C   UNL     1       3.970  -1.700   1.135  0.00  0.00    +0.177 A 
ENDROOT
BRANCH   1  14
ATOM     12  C   UNL     1       0.862  -2.714   0.083  0.00  0.00    +0.047 C 
ATOM     13  C   UNL     1       0.982  -1.217  -0.043  0.00  0.00    -0.008 A 
ATOM     14  C   UNL     1       2.235  -0.624  -0.115  0.00  0.00    +0.056 A 
ATOM     15  C   UNL     1       2.341   0.756  -0.232  0.00  0.00    +0.027 A 
ATOM     16  C   UNL     1       1.201   1.534  -0.276  0.00  0.00    +0.003 A 
ATOM     17  C   UNL     1      -0.046   0.942  -0.205  0.00  0.00    +0.020 A 
ATOM     18  C   UNL     1      -0.156  -0.433  -0.088  0.00  0.00    +0.046 A 
ATOM     19 CL   UNL     1      -1.723  -1.174   0.001  0.00  0.00    -0.083 Cl
ENDBRANCH   1  14
BRANCH  11  20
ATOM     20  S   UNL     1       3.232  -1.052   2.598  0.00  0.00    -0.074 S 
BRANCH  20  21
ATOM     21  C   UNL     1       4.447  -1.587   3.828  0.00  0.00    +0.143 C 
BRANCH  21  22
ATOM     22  C   UNL     1       5.737  -0.838   3.619  0.00  0.00    +0.234 C 
ATOM     23  O   UNL     1       5.727   0.247   3.079  0.00  0.00    -0.274 OA
ATOM     24  N   UNL     1       6.902  -1.374   4.032  0.00  0.00    -0.239 N 
ATOM     25  C   UNL     1       8.056  -0.704   3.846  0.00  0.00    +0.303 C 
ATOM     26  O   UNL     1       8.046   0.384   3.304  0.00  0.00    -0.253 OA
ATOM     27  N   UNL     1       9.222  -1.240   4.259  0.00  0.00    -0.313 N 
ATOM     28  H   UNL     1       6.911  -2.359   4.522  0.00  0.00    +0.159 HD
ATOM     29  H   UNL     1      10.164  -0.693   4.107  0.00  0.00    +0.146 HD
ATOM     30  H   UNL     1       9.231  -2.225   4.749  0.00  0.00    +0.146 HD
ENDBRANCH  21  22
BRANCH  21  31
ATOM     31  C   UNL     1       3.911  -1.300   5.232  0.00  0.00    +0.005 C 
ATOM     32  C   UNL     1       2.607  -2.070   5.449  0.00  0.00    +0.009 C 
ATOM     33  C   UNL     1       4.943  -1.742   6.272  0.00  0.00    +0.009 C 
ENDBRANCH  21  31
ENDBRANCH  20  21
ENDBRANCH  11  20
TORSDOF 5
