REMARK  Name = ZINC30563214
REMARK  5 active torsions:
REMARK  status: ('A' for Active; 'I' for Inactive)
REMARK    1  A    between atoms: C_1  and  C_2
REMARK    2  A    between atoms: C_12  and  C_16
REMARK    3  A    between atoms: N_18  and  C_19
REMARK    4  A    between atoms: N_18  and  C_20
REMARK    5  A    between atoms: C_20  and  C_21
REMARK                            x       y       z     vdW  Elec       q    Type
REMARK                         _______ _______ _______ _____ _____    ______ ____
ROOT
ATOM      1  C   UNL     1       0.565  -6.725   2.300  0.00  0.00    +0.249 C 
ATOM      2  O   UNL     1      -0.582  -6.944   2.638  0.00  0.00    -0.270 OA
ATOM      3  N   UNL     1       1.269  -7.671   1.648  0.00  0.00    -0.293 N 
ATOM      4  C   UNL     1       2.680  -7.444   1.326  0.00  0.00    +0.133 C 
ENDROOT
BRANCH   1  15
ATOM      5  C   UNL     1      -0.771   1.705   1.711  0.00  0.00    +0.008 C 
ATOM      6  C   UNL     1      -0.720   0.201   1.437  0.00  0.00    -0.009 C 
ATOM      7  C   UNL     1      -2.088  -0.419   1.735  0.00  0.00    +0.009 C 
ATOM      8  C   UNL     1      -2.113  -1.866   1.229  0.00  0.00    +0.054 C 
ATOM      9  C   UNL     1      -0.889  -2.580   1.751  0.00  0.00    +0.020 A 
ATOM     10  C   UNL     1       0.197  -1.946   2.243  0.00  0.00    -0.019 A 
ATOM     11  C   UNL     1       1.143  -2.969   2.638  0.00  0.00    +0.004 A 
ATOM     12  C   UNL     1       2.421  -2.912   3.202  0.00  0.00    +0.010 A 
ATOM     13  C   UNL     1       3.054  -4.117   3.455  0.00  0.00    +0.001 A 
ATOM     14  C   UNL     1       2.464  -5.332   3.168  0.00  0.00    +0.015 A 
ATOM     15  C   UNL     1       1.187  -5.422   2.603  0.00  0.00    +0.061 A 
ATOM     16  C   UNL     1       0.525  -4.209   2.337  0.00  0.00    +0.059 A 
ATOM     17  N   UNL     1      -0.696  -3.936   1.804  0.00  0.00    -0.357 N 
ATOM     18  H   UNL     1      -1.335  -4.602   1.507  0.00  0.00    +0.166 HD
ATOM     19  C   UNL     1       0.339  -0.448   2.337  0.00  0.00    +0.040 C 
ENDBRANCH   1  15
BRANCH   3  20
ATOM     20  C   UNL     1       0.623  -8.928   1.260  0.00  0.00    +0.181 C 
BRANCH  20  21
ATOM     21  C   UNL     1       0.025  -8.782  -0.116  0.00  0.00    +0.128 A 
ATOM     22  N   UNL     1      -0.628  -9.846  -0.653  0.00  0.00    -0.309 N 
ATOM     23  H   UNL     1      -0.703 -10.675  -0.156  0.00  0.00    +0.170 HD
ATOM     24  C   UNL     1      -1.172  -9.736  -1.889  0.00  0.00    +0.266 A 
ATOM     25  O   UNL     1      -1.765 -10.672  -2.398  0.00  0.00    -0.267 OA
ATOM     26  C   UNL     1      -1.037  -8.521  -2.562  0.00  0.00    +0.102 A 
ATOM     27  C   UNL     1      -0.356  -7.436  -1.983  0.00  0.00    +0.085 A 
ATOM     28  N   UNL     1       0.154  -7.647  -0.726  0.00  0.00    -0.232 NA
ATOM     29  C   UNL     1      -0.294  -6.276  -2.767  0.00  0.00    +0.036 A 
ATOM     30  C   UNL     1      -0.865  -6.251  -3.991  0.00  0.00    +0.048 A 
ATOM     31  S   UNL     1      -1.549  -7.893  -4.139  0.00  0.00    -0.090 S 
ENDBRANCH  20  21
ENDBRANCH   3  20
TORSDOF 3
