REMARK  Name = ZINC61122717
REMARK  3 active torsions:
REMARK  status: ('A' for Active; 'I' for Inactive)
REMARK    1  A    between atoms: C_3  and  S_9
REMARK    2  A    between atoms: S_9  and  N_12
REMARK    3  A    between atoms: N_12  and  C_13
REMARK                            x       y       z     vdW  Elec       q    Type
REMARK                         _______ _______ _______ _____ _____    ______ ____
ROOT
ATOM      1  S   UNL     1       3.890   2.316  -0.024  0.00  0.00    +0.093 S 
ATOM      2  O   UNL     1       4.688   1.760  -1.061  0.00  0.00    -0.148 OA
ATOM      3  O   UNL     1       3.542   3.693   0.013  0.00  0.00    -0.148 OA
ENDROOT
BRANCH   1   6
ATOM      4  C   UNL     1      -0.017   1.379   0.010  0.00  0.00    +0.017 A 
ATOM      5  C   UNL     1       1.171   2.087   0.002  0.00  0.00    +0.031 A 
ATOM      6  C   UNL     1       2.377   1.413  -0.013  0.00  0.00    +0.129 A 
ATOM      7  C   UNL     1       2.397   0.029  -0.021  0.00  0.00    +0.069 A 
ATOM      8  C   UNL     1       1.209  -0.679  -0.013  0.00  0.00    +0.037 A 
ATOM      9  C   UNL     1       0.002  -0.004   0.002  0.00  0.00    +0.019 A 
ATOM     10 BR   UNL     1      -1.623  -0.972   0.013  0.00  0.00    -0.050 Br
ATOM     11 CL   UNL     1       3.913  -0.817  -0.041  0.00  0.00    -0.081 Cl
ENDBRANCH   1   6
BRANCH   1  12
ATOM     12  N   UNL     1       4.668   1.985   1.400  0.00  0.00    -0.098 NA
BRANCH  12  13
ATOM     13  C   UNL     1       5.909   2.570   1.671  0.00  0.00    +0.080 A 
ATOM     14  C   UNL     1       6.487   3.432   0.749  0.00  0.00    +0.068 A 
ATOM     15  C   UNL     1       7.714   4.011   1.019  0.00  0.00    +0.163 A 
ATOM     16  C   UNL     1       8.367   3.730   2.209  0.00  0.00    +0.193 A 
ATOM     17  C   UNL     1       7.791   2.869   3.130  0.00  0.00    +0.163 A 
ATOM     18  C   UNL     1       6.561   2.293   2.865  0.00  0.00    +0.068 A 
ATOM     19  F   UNL     1       8.429   2.595   4.290  0.00  0.00    -0.202 F 
ATOM     20  F   UNL     1       9.566   4.295   2.471  0.00  0.00    -0.199 F 
ATOM     21  F   UNL     1       8.277   4.849   0.122  0.00  0.00    -0.202 F 
ENDBRANCH  12  13
ENDBRANCH   1  12
TORSDOF 3
