REMARK  Name = ZINC19656919
REMARK  4 active torsions:
REMARK  status: ('A' for Active; 'I' for Inactive)
REMARK    1  A    between atoms: C_1  and  C_2
REMARK    2  A    between atoms: C_13  and  C_16
REMARK    3  A    between atoms: C_16  and  N_17
REMARK    4  A    between atoms: C_21  and  C_22
REMARK                            x       y       z     vdW  Elec       q    Type
REMARK                         _______ _______ _______ _____ _____    ______ ____
ROOT
ATOM      1  C   UNL     1      -7.067   0.532   2.484  0.00  0.00    +0.066 C 
ATOM      2  C   UNL     1      -5.628   0.980   2.472  0.00  0.00    +0.045 A 
ATOM      3  C   UNL     1      -4.802   0.645   1.417  0.00  0.00    +0.066 A 
ATOM      4  C   UNL     1      -3.474   1.075   1.449  0.00  0.00    +0.127 A 
ATOM      5  N   UNL     1      -3.053   1.793   2.485  0.00  0.00    -0.200 NA
ATOM      6  C   UNL     1      -3.879   2.098   3.475  0.00  0.00    +0.214 A 
ATOM      7  N   UNL     1      -5.142   1.698   3.474  0.00  0.00    -0.220 NA
ATOM      8  N   UNL     1      -3.411   2.852   4.537  0.00  0.00    -0.327 N 
ATOM      9  N   UNL     1      -2.608   0.757   0.416  0.00  0.00    -0.315 N 
ATOM     10  C   UNL     1      -3.147   1.196  -0.877  0.00  0.00    +0.106 C 
ATOM     11  C   UNL     1      -2.239   0.703  -2.005  0.00  0.00    +0.019 C 
ATOM     12  C   UNL     1      -0.828   1.265  -1.802  0.00  0.00    +0.008 C 
ATOM     13  C   UNL     1      -0.309   0.833  -0.428  0.00  0.00    +0.026 C 
ATOM     14  C   UNL     1      -1.274   1.323   0.654  0.00  0.00    +0.111 C 
ATOM     15  H   UNL     1      -4.085   3.112   5.366  0.00  0.00    +0.145 HD
ATOM     16  H   UNL     1      -2.364   3.191   4.551  0.00  0.00    +0.145 HD
ENDROOT
BRANCH  13  17
ATOM     17  C   UNL     1       1.075   1.440  -0.191  0.00  0.00    +0.128 C 
BRANCH  17  18
ATOM     18  N   UNL     1       2.028   0.870  -1.147  0.00  0.00    -0.334 N 
ATOM     19  C   UNL     1       2.452   1.448  -2.313  0.00  0.00    +0.107 A 
ATOM     20  C   UNL     1       3.320   0.588  -2.880  0.00  0.00    +0.130 A 
ATOM     21  N   UNL     1       3.424  -0.484  -2.081  0.00  0.00    -0.241 NA
ATOM     22  C   UNL     1       2.657  -0.320  -1.038  0.00  0.00    +0.107 A 
ATOM     23  C   UNL     1       2.497  -1.298   0.097  0.00  0.00    +0.086 C 
ENDBRANCH  17  18
ENDBRANCH  13  17
TORSDOF 2
