REMARK  Name = ZINC06431019
REMARK  8 active torsions:
REMARK  status: ('A' for Active; 'I' for Inactive)
REMARK    1  A    between atoms: C_1  and  C_2
REMARK    2  A    between atoms: C_5  and  C_8
REMARK    3  A    between atoms: C_8  and  O_10
REMARK    4  A    between atoms: O_10  and  C_11
REMARK    5  A    between atoms: C_11  and  C_12
REMARK    6  A    between atoms: N_14  and  C_15
REMARK    7  A    between atoms: C_16  and  C_26
REMARK    8  A    between atoms: C_21  and  C_25
REMARK                            x       y       z     vdW  Elec       q    Type
REMARK                         _______ _______ _______ _____ _____    ______ ____
ROOT
ATOM      1  C   UNL     1       1.141   2.072   0.002  0.00  0.00    +0.255 C 
ATOM      2  O   UNL     1       2.200   1.480  -0.011  0.00  0.00    -0.272 OA
ATOM      3  N   UNL     1      -0.017   1.382   0.010  0.00  0.00    -0.277 N 
ATOM      4  H   UNL     1      -0.863   1.856   0.016  0.00  0.00    +0.155 HD
ENDROOT
BRANCH   3   5
ATOM      5  C   UNL     1       0.002  -0.004   0.002  0.00  0.00    +0.084 A 
ATOM      6  C   UNL     1      -1.073  -0.881   0.013  0.00  0.00    +0.068 A 
ATOM      7  C   UNL     1      -0.780  -2.304  -0.003  0.00  0.00    -0.023 A 
ATOM      8  C   UNL     1       0.533  -2.620  -0.017  0.00  0.00    -0.004 A 
ATOM      9  S   UNL     1       1.374  -1.062  -0.016  0.00  0.00    -0.077 S 
ATOM     10  C   UNL     1       1.132  -3.993  -0.032  0.00  0.00    +0.046 C 
ATOM     11  C   UNL     1       0.031  -4.996  -0.406  0.00  0.00    -0.009 C 
ATOM     12  C   UNL     1      -1.209  -4.708   0.444  0.00  0.00    +0.008 C 
ATOM     13  C   UNL     1      -1.848  -3.390   0.001  0.00  0.00    +0.037 C 
ATOM     14  C   UNL     1       0.520  -6.420  -0.133  0.00  0.00    +0.008 C 
BRANCH   6  15
ATOM     15  C   UNL     1      -2.455  -0.390   0.036  0.00  0.00    +0.244 C 
ATOM     16  O   UNL     1      -3.044  -0.181  -1.008  0.00  0.00    -0.270 OA
ATOM     17  N   UNL     1      -3.072  -0.170   1.214  0.00  0.00    -0.325 N 
ATOM     18  H   UNL     1      -2.603  -0.337   2.046  0.00  0.00    +0.145 HD
ATOM     19  H   UNL     1      -3.986   0.155   1.229  0.00  0.00    +0.145 HD
ENDBRANCH   6  15
ENDBRANCH   3   5
BRANCH   1  20
ATOM     20  C   UNL     1       1.121   3.579   0.011  0.00  0.00    +0.328 C 
BRANCH  20  21
ATOM     21  O   UNL     1       2.483   4.082   0.000  0.00  0.00    -0.452 OA
BRANCH  21  22
ATOM     22  C   UNL     1       2.641   5.419   0.006  0.00  0.00    +0.340 C 
ATOM     23  O   UNL     1       1.668   6.146   0.019  0.00  0.00    -0.245 OA
BRANCH  22  28
ATOM     24  C   UNL     1       7.928   7.691  -0.030  0.00  0.00    +0.044 C 
ATOM     25  C   UNL     1       6.543   7.096  -0.021  0.00  0.00    -0.050 A 
ATOM     26  C   UNL     1       5.437   7.926  -0.007  0.00  0.00    +0.004 A 
ATOM     27  C   UNL     1       4.166   7.389   0.002  0.00  0.00    +0.015 A 
ATOM     28  C   UNL     1       3.999   6.002  -0.004  0.00  0.00    +0.059 A 
ATOM     29  C   UNL     1       5.120   5.170  -0.013  0.00  0.00    +0.015 A 
ATOM     30  C   UNL     1       6.384   5.721  -0.027  0.00  0.00    +0.004 A 
ENDBRANCH  22  28
ENDBRANCH  21  22
ENDBRANCH  20  21
ENDBRANCH   1  20
TORSDOF 6
