REMARK  Name = ZINC03628363
REMARK  10 active torsions:
REMARK  status: ('A' for Active; 'I' for Inactive)
REMARK    1  A    between atoms: C_1  and  C_2
REMARK    2  A    between atoms: C_2  and  O_3
REMARK    3  A    between atoms: O_3  and  C_4
REMARK    4  A    between atoms: C_6  and  C_19
REMARK    5  A    between atoms: C_9  and  O_10
REMARK    6  A    between atoms: O_10  and  C_11
REMARK    7  A    between atoms: C_11  and  C_12
REMARK    8  A    between atoms: C_15  and  C_18
REMARK    9  A    between atoms: C_28  and  N_32
REMARK   10  A    between atoms: C_29  and  C_30
REMARK                            x       y       z     vdW  Elec       q    Type
REMARK                         _______ _______ _______ _____ _____    ______ ____
ROOT
ATOM      1  C   UNL     1       6.106   1.531   2.807  0.00  0.00    +0.162 A 
ATOM      2  C   UNL     1       5.544   1.571   1.542  0.00  0.00    +0.054 A 
ATOM      3  C   UNL     1       4.295   2.135   1.357  0.00  0.00    -0.031 A 
ATOM      4  C   UNL     1       3.607   2.665   2.433  0.00  0.00    +0.008 A 
ATOM      5  C   UNL     1       4.160   2.623   3.700  0.00  0.00    +0.050 A 
ATOM      6  C   UNL     1       5.411   2.060   3.891  0.00  0.00    +0.162 A 
ENDROOT
BRANCH   3   7
ATOM      7  C   UNL     1       3.685   2.178  -0.020  0.00  0.00    +0.098 C 
ATOM      8  C   UNL     1       2.385   1.419  -0.013  0.00  0.00    +0.011 A 
ATOM      9  C   UNL     1       2.405   0.035  -0.021  0.00  0.00    +0.057 A 
ATOM     10  C   UNL     1       1.220  -0.680  -0.014  0.00  0.00    +0.167 A 
ATOM     11  C   UNL     1       0.002  -0.004   0.002  0.00  0.00    +0.170 A 
ATOM     12  C   UNL     1      -0.017   1.380   0.010  0.00  0.00    +0.096 A 
ATOM     13  C   UNL     1       1.175   2.094   0.002  0.00  0.00    +0.138 A 
ATOM     14  O   UNL     1       1.136   3.451   0.009  0.00  0.00    -0.441 OA
ATOM     15  C   UNL     1       2.212   4.154  -0.380  0.00  0.00    +0.199 C 
ATOM     16  C   UNL     1       3.450   3.608  -0.416  0.00  0.00    +0.098 C 
ATOM     17  O   UNL     1      -1.007  -0.923   0.007  0.00  0.00    -0.452 OA
ATOM     18  C   UNL     1      -0.396  -2.164   0.407  0.00  0.00    +0.466 C 
ATOM     19  O   UNL     1       0.973  -2.024  -0.019  0.00  0.00    -0.453 OA
BRANCH  15  20
ATOM     20  N   UNL     1       2.051   5.466  -0.752  0.00  0.00    -0.328 N 
ATOM     21  H   UNL     1       2.818   5.987  -1.035  0.00  0.00    +0.145 HD
ATOM     22  H   UNL     1       1.170   5.871  -0.731  0.00  0.00    +0.145 HD
ENDBRANCH  15  20
BRANCH  16  23
ATOM     23  C   UNL     1       4.559   4.410  -0.840  0.00  0.00    +0.101 C 
ATOM     24  N   UNL     1       5.438   5.046  -1.177  0.00  0.00    -0.191 NA
ENDBRANCH  16  23
ENDBRANCH   3   7
BRANCH   1  25
ATOM     25  O   UNL     1       7.335   0.978   2.990  0.00  0.00    -0.489 OA
BRANCH  25  27
ATOM     26  C   UNL     1       9.349  -0.121   2.232  0.00  0.00    +0.048 C 
ATOM     27  C   UNL     1       7.990   0.456   1.832  0.00  0.00    +0.226 C 
ENDBRANCH  25  27
ENDBRANCH   1  25
BRANCH   6  28
ATOM     28  O   UNL     1       5.959   2.023   5.135  0.00  0.00    -0.484 OA
BRANCH  28  29
ATOM     29  C   UNL     1       5.189   2.584   6.200  0.00  0.00    +0.264 C 
BRANCH  29  30
ATOM     30  C   UNL     1       5.951   2.454   7.494  0.00  0.00    -0.010 A 
ATOM     31  C   UNL     1       5.787   1.331   8.283  0.00  0.00    +0.007 A 
ATOM     32  C   UNL     1       6.489   1.210   9.467  0.00  0.00    +0.004 A 
ATOM     33  C   UNL     1       7.348   2.216   9.868  0.00  0.00    -0.050 A 
ATOM     34  C   UNL     1       7.508   3.341   9.081  0.00  0.00    +0.004 A 
ATOM     35  C   UNL     1       6.809   3.461   7.894  0.00  0.00    +0.007 A 
ATOM     36  C   UNL     1       8.110   2.087  11.161  0.00  0.00    +0.044 C 
ENDBRANCH  29  30
ENDBRANCH  28  29
ENDBRANCH   6  28
TORSDOF 8
