REMARK  Name = ZINC27308691
REMARK  8 active torsions:
REMARK  status: ('A' for Active; 'I' for Inactive)
REMARK    1  A    between atoms: C_4  and  C_7
REMARK    2  A    between atoms: C_7  and  N_8
REMARK    3  A    between atoms: C_9  and  N_32
REMARK    4  A    between atoms: C_10  and  N_17
REMARK    5  A    between atoms: N_17  and  C_18
REMARK    6  A    between atoms: N_17  and  C_25
REMARK    7  A    between atoms: C_18  and  C_19
REMARK    8  A    between atoms: C_25  and  C_26
REMARK                            x       y       z     vdW  Elec       q    Type
REMARK                         _______ _______ _______ _____ _____    ______ ____
ROOT
ATOM      1  N   UNL     1       7.536  -1.227  -2.506  0.00  0.00    -0.276 N 
ATOM      2  C   UNL     1       6.279  -0.690  -2.343  0.00  0.00    +0.127 A 
ATOM      3  C   UNL     1       5.333  -1.396  -1.651  0.00  0.00    +0.134 A 
ATOM      4  C   UNL     1       5.668  -2.659  -1.131  0.00  0.00    +0.277 A 
ATOM      5  O   UNL     1       4.840  -3.309  -0.515  0.00  0.00    -0.266 OA
ATOM      6  N   UNL     1       6.910  -3.147  -1.319  0.00  0.00    -0.273 N 
ATOM      7  H   UNL     1       7.180  -4.134  -0.915  0.00  0.00    +0.173 HD
ATOM      8  C   UNL     1       7.830  -2.438  -1.997  0.00  0.00    +0.331 A 
ATOM      9  O   UNL     1       8.944  -2.899  -2.155  0.00  0.00    -0.246 OA
ENDROOT
BRANCH   2  10
ATOM     10  N   UNL     1       5.979   0.546  -2.868  0.00  0.00    -0.343 N 
ATOM     11  H   UNL     1       4.972   0.970  -2.735  0.00  0.00    +0.144 HD
ATOM     12  H   UNL     1       6.744   1.110  -3.420  0.00  0.00    +0.144 HD
ENDBRANCH   2  10
BRANCH   1  13
ATOM     13  C   UNL     1       8.559  -0.478  -3.240  0.00  0.00    +0.163 C 
BRANCH  13  17
ATOM     14  C   UNL     1       8.353  -1.481  -7.388  0.00  0.00    +0.000 A 
ATOM     15  C   UNL     1       7.606  -0.428  -6.893  0.00  0.00    +0.000 A 
ATOM     16  C   UNL     1       7.673  -0.104  -5.551  0.00  0.00    +0.005 A 
ATOM     17  C   UNL     1       8.486  -0.832  -4.704  0.00  0.00    -0.028 A 
ATOM     18  C   UNL     1       9.237  -1.882  -5.199  0.00  0.00    +0.005 A 
ATOM     19  C   UNL     1       9.166  -2.210  -6.540  0.00  0.00    +0.000 A 
ENDBRANCH  13  17
ENDBRANCH   1  13
BRANCH   3  20
ATOM     20  N   UNL     1       4.035  -0.865  -1.465  0.00  0.00    -0.313 N 
BRANCH  20  21
ATOM     21  C   UNL     1       3.725  -0.721  -0.037  0.00  0.00    +0.141 C 
BRANCH  21  22
ATOM     22  C   UNL     1       4.456   0.474   0.518  0.00  0.00    -0.030 A 
ATOM     23  C   UNL     1       3.906   1.737   0.400  0.00  0.00    +0.005 A 
ATOM     24  C   UNL     1       4.577   2.834   0.908  0.00  0.00    +0.000 A 
ATOM     25  C   UNL     1       5.797   2.667   1.535  0.00  0.00    +0.000 A 
ATOM     26  C   UNL     1       6.347   1.405   1.654  0.00  0.00    +0.000 A 
ATOM     27  C   UNL     1       5.676   0.308   1.145  0.00  0.00    +0.005 A 
ENDBRANCH  21  22
ENDBRANCH  20  21
BRANCH  20  28
ATOM     28  C   UNL     1       3.027  -1.692  -2.142  0.00  0.00    +0.165 C 
BRANCH  28  29
ATOM     29  C   UNL     1       1.772  -0.884  -2.349  0.00  0.00    +0.108 A 
ATOM     30  C   UNL     1       1.589  -0.056  -3.416  0.00  0.00    +0.123 A 
ATOM     31  S   UNL     1       0.004   0.562  -3.089  0.00  0.00    +0.049 S 
ATOM     32  N   UNL     1      -0.292  -0.204  -1.741  0.00  0.00    -0.109 NA
ATOM     33  N   UNL     1       0.751  -0.919  -1.517  0.00  0.00    -0.143 NA
ATOM     34 CL   UNL     1       2.655   0.286  -4.743  0.00  0.00    -0.072 Cl
ENDBRANCH  28  29
ENDBRANCH  20  28
ENDBRANCH   3  20
TORSDOF 8
