REMARK  Name = ZINC36610142
REMARK  11 active torsions:
REMARK  status: ('A' for Active; 'I' for Inactive)
REMARK    1  A    between atoms: C_1  and  C_2
REMARK    2  A    between atoms: C_5  and  S_8
REMARK    3  A    between atoms: S_8  and  C_11
REMARK    4  A    between atoms: C_11  and  N_12
REMARK    5  A    between atoms: C_13  and  C_15
REMARK    6  A    between atoms: C_15  and  C_17
REMARK    7  A    between atoms: C_15  and  N_22
REMARK    8  A    between atoms: N_22  and  C_23
REMARK    9  A    between atoms: C_29  and  C_31
REMARK   10  A    between atoms: C_32  and  O_38
REMARK   11  A    between atoms: C_36  and  O_37
REMARK                            x       y       z     vdW  Elec       q    Type
REMARK                         _______ _______ _______ _____ _____    ______ ____
ROOT
ATOM      1  C   UNL     1       3.129  -4.987   3.658  0.00  0.00    +0.233 C 
ENDROOT
BRANCH   1   2
ATOM      2  C   UNL     1       2.209  -3.994   4.321  0.00  0.00    +0.135 A 
ATOM      3  C   UNL     1       2.356  -2.656   4.310  0.00  0.00    +0.047 A 
ATOM      4  C   UNL     1       1.276  -2.120   5.048  0.00  0.00    +0.041 A 
ATOM      5  C   UNL     1       0.535  -3.161   5.466  0.00  0.00    +0.195 A 
ATOM      6  O   UNL     1       1.101  -4.293   5.018  0.00  0.00    -0.465 OA
ENDBRANCH   1   2
BRANCH   1   8
ATOM      7  N   UNL     1       2.287  -4.514   1.381  0.00  0.00    -0.294 N 
ATOM      8  C   UNL     1       2.534  -5.424   2.345  0.00  0.00    +0.243 C 
ATOM      9  O   UNL     1       2.276  -6.593   2.155  0.00  0.00    -0.273 OA
ATOM     10  H   UNL     1       2.493  -3.579   1.532  0.00  0.00    +0.150 HD
BRANCH   7  11
ATOM     11  C   UNL     1       1.709  -4.939   0.104  0.00  0.00    +0.278 C 
BRANCH  11  12
ATOM     12  S   UNL     1      -0.093  -4.731   0.157  0.00  0.00    +0.013 S 
ATOM     13  O   UNL     1      -0.612  -5.271   1.364  0.00  0.00    -0.168 OA
ATOM     14  O   UNL     1      -0.663  -5.080  -1.097  0.00  0.00    -0.168 OA
BRANCH  12  19
ATOM     15  C   UNL     1      -0.956   1.221   0.639  0.00  0.00    +0.044 C 
ATOM     16  C   UNL     1      -0.740  -0.266   0.518  0.00  0.00    -0.050 A 
ATOM     17  C   UNL     1      -0.665  -0.854  -0.730  0.00  0.00    +0.005 A 
ATOM     18  C   UNL     1      -0.467  -2.218  -0.840  0.00  0.00    +0.027 A 
ATOM     19  C   UNL     1      -0.344  -2.993   0.298  0.00  0.00    +0.090 A 
ATOM     20  C   UNL     1      -0.418  -2.404   1.546  0.00  0.00    +0.027 A 
ATOM     21  C   UNL     1      -0.612  -1.040   1.657  0.00  0.00    +0.005 A 
ENDBRANCH  12  19
ENDBRANCH  11  12
ENDBRANCH   7  11
ENDBRANCH   1   8
BRANCH   1  22
ATOM     22  N   UNL     1       3.299  -6.152   4.529  0.00  0.00    -0.248 N 
ATOM     23  C   UNL     1       4.526  -6.488   4.974  0.00  0.00    +0.259 C 
ATOM     24  O   UNL     1       5.490  -5.813   4.667  0.00  0.00    -0.269 OA
BRANCH  22  25
ATOM     25  C   UNL     1       2.187  -6.916   4.900  0.00  0.00    +0.038 A 
ATOM     26  C   UNL     1       0.910  -6.510   4.533  0.00  0.00    +0.023 A 
ATOM     27  C   UNL     1      -0.185  -7.266   4.901  0.00  0.00    +0.002 A 
ATOM     28  C   UNL     1      -0.012  -8.427   5.632  0.00  0.00    +0.000 A 
ATOM     29  C   UNL     1       1.258  -8.834   5.999  0.00  0.00    +0.002 A 
ATOM     30  C   UNL     1       2.358  -8.085   5.630  0.00  0.00    +0.023 A 
ENDBRANCH  22  25
BRANCH  23  31
ATOM     31  C   UNL     1       4.699  -7.672   5.831  0.00  0.00    +0.120 A 
ATOM     32  C   UNL     1       5.027  -8.913   5.265  0.00  0.00    +0.133 A 
ATOM     33  C   UNL     1       5.189 -10.020   6.081  0.00  0.00    +0.046 A 
ATOM     34  C   UNL     1       5.027  -9.906   7.449  0.00  0.00    +0.007 A 
ATOM     35  C   UNL     1       4.703  -8.689   8.018  0.00  0.00    +0.046 A 
ATOM     36  C   UNL     1       4.543  -7.567   7.221  0.00  0.00    +0.133 A 
BRANCH  36  37
ATOM     37  O   UNL     1       4.230  -6.372   7.783  0.00  0.00    -0.506 OA
ATOM     38  H   UNL     1       3.280  -6.212   7.863  0.00  0.00    +0.292 HD
ENDBRANCH  36  37
BRANCH  32  39
ATOM     39  O   UNL     1       5.186  -9.027   3.922  0.00  0.00    -0.506 OA
ATOM     40  H   UNL     1       6.091  -8.872   3.619  0.00  0.00    +0.292 HD
ENDBRANCH  32  39
ENDBRANCH  23  31
ENDBRANCH   1  22
TORSDOF 10
