REMARK  Name = ZINC00836672
REMARK  7 active torsions:
REMARK  status: ('A' for Active; 'I' for Inactive)
REMARK    1  A    between atoms: C_3  and  C_6
REMARK    2  A    between atoms: N_8  and  C_9
REMARK    3  A    between atoms: C_9  and  C_11
REMARK    4  A    between atoms: C_9  and  N_15
REMARK    5  A    between atoms: N_15  and  C_16
REMARK    6  A    between atoms: C_16  and  N_18
REMARK    7  A    between atoms: N_18  and  C_19
REMARK                            x       y       z     vdW  Elec       q    Type
REMARK                         _______ _______ _______ _____ _____    ______ ____
ROOT
ATOM      1  C   UNL     1       6.122  -0.788  -0.205  0.00  0.00    +0.211 C 
ENDROOT
BRANCH   1   4
ATOM      2  C   UNL     1       4.221   0.681  -0.607  0.00  0.00    +0.281 C 
ATOM      3  O   UNL     1       4.989   1.625  -0.611  0.00  0.00    -0.267 OA
ATOM      4  N   UNL     1       4.689  -0.568  -0.412  0.00  0.00    -0.287 N 
ATOM      5  H   UNL     1       4.077  -1.320  -0.409  0.00  0.00    +0.151 HD
BRANCH   2   8
ATOM      6  C   UNL     1       0.809   1.853  -1.170  0.00  0.00    +0.042 A 
ATOM      7  C   UNL     1       2.181   2.109  -1.022  0.00  0.00    +0.054 A 
ATOM      8  C   UNL     1       2.786   0.902  -0.814  0.00  0.00    +0.189 A 
ATOM      9  O   UNL     1       1.831  -0.051  -0.834  0.00  0.00    -0.458 OA
ATOM     10  C   UNL     1       0.638   0.518  -1.048  0.00  0.00    +0.196 A 
ENDBRANCH   2   8
ENDBRANCH   1   4
BRANCH   1  11
ATOM     11  C   UNL     1       6.583  -1.976  -1.052  0.00  0.00    +0.225 C 
ATOM     12 CL   UNL     1       6.274  -1.628  -2.794  0.00  0.00    -0.080 Cl
ATOM     13 CL   UNL     1       8.347  -2.248  -0.797  0.00  0.00    -0.080 Cl
ATOM     14 CL   UNL     1       5.671  -3.453  -0.563  0.00  0.00    -0.080 Cl
ENDBRANCH   1  11
BRANCH   1  15
ATOM     15  N   UNL     1       6.374  -1.071   1.210  0.00  0.00    -0.305 N 
ATOM     16  H   UNL     1       6.143  -1.938   1.580  0.00  0.00    +0.150 HD
BRANCH  15  17
ATOM     17  C   UNL     1       6.926  -0.127   1.998  0.00  0.00    +0.136 C 
ATOM     18  S   UNL     1       7.334   1.402   1.345  0.00  0.00    -0.019 S 
BRANCH  17  19
ATOM     19  N   UNL     1       7.157  -0.388   3.300  0.00  0.00    -0.296 N 
ATOM     20  H   UNL     1       6.869  -1.230   3.685  0.00  0.00    +0.154 HD
BRANCH  19  21
ATOM     21  C   UNL     1       7.812   0.558   4.097  0.00  0.00    +0.053 A 
ATOM     22  C   UNL     1       7.418   1.889   4.064  0.00  0.00    +0.044 A 
ATOM     23  C   UNL     1       8.067   2.820   4.852  0.00  0.00    +0.043 A 
ATOM     24  C   UNL     1       9.109   2.428   5.674  0.00  0.00    +0.021 A 
ATOM     25  C   UNL     1       9.504   1.103   5.709  0.00  0.00    +0.023 A 
ATOM     26  C   UNL     1       8.854   0.166   4.928  0.00  0.00    +0.062 A 
ATOM     27 CL   UNL     1       9.346  -1.498   4.979  0.00  0.00    -0.082 Cl
ATOM     28 CL   UNL     1       7.575   4.485   4.811  0.00  0.00    -0.083 Cl
ENDBRANCH  19  21
ENDBRANCH  17  19
ENDBRANCH  15  17
ENDBRANCH   1  15
TORSDOF 7
