REMARK  Name = ZINC39663744
REMARK  10 active torsions:
REMARK  status: ('A' for Active; 'I' for Inactive)
REMARK    1  A    between atoms: C_1  and  N_2
REMARK    2  A    between atoms: N_2  and  C_3
REMARK    3  A    between atoms: N_2  and  C_4
REMARK    4  A    between atoms: C_4  and  C_6
REMARK    5  A    between atoms: C_4  and  C_30
REMARK    6  A    between atoms: C_6  and  N_7
REMARK    7  A    between atoms: C_8  and  C_10
REMARK    8  A    between atoms: C_21  and  C_23
REMARK    9  A    between atoms: C_33  and  O_36
REMARK   10  A    between atoms: O_36  and  C_37
REMARK                            x       y       z     vdW  Elec       q    Type
REMARK                         _______ _______ _______ _____ _____    ______ ____
ROOT
ATOM      1  C   UNL     1       0.860  -3.107   2.999  0.00  0.00    +0.100 C 
ATOM      2  C   UNL     1       2.143  -2.329   3.368  0.00  0.00    +0.121 C 
ATOM      3  N   UNL     1       2.977  -3.308   4.103  0.00  0.00    -0.296 N 
ATOM      4  C   UNL     1       2.778  -4.583   3.373  0.00  0.00    +0.115 C 
ATOM      5  C   UNL     1       1.281  -4.586   3.003  0.00  0.00    -0.004 C 
ATOM      6  C   UNL     1       1.082  -5.196   1.619  0.00  0.00    -0.010 C 
ATOM      7  C   UNL     1       1.452  -6.681   1.662  0.00  0.00    -0.082 C 
ATOM      8  N   UNL     1       0.608  -7.369   2.648  0.00  0.00    +0.379 N 
ATOM      9  C   UNL     1       0.875  -6.839   3.991  0.00  0.00    -0.082 C 
ATOM     10  C   UNL     1       0.480  -5.361   4.046  0.00  0.00    -0.010 C 
ATOM     11  C   UNL     1       3.744  -3.090   5.190  0.00  0.00    +0.247 C 
ATOM     12  O   UNL     1       3.707  -2.013   5.753  0.00  0.00    -0.270 OA
ATOM     13  H   UNL     1      -0.363  -7.224   2.417  0.00  0.00    -0.086 HD
ATOM     14  H   UNL     1       0.811  -8.357   2.631  0.00  0.00    -0.086 HD
ENDROOT
BRANCH  11  15
ATOM     15  C   UNL     1       4.630  -4.159   5.696  0.00  0.00    +0.037 A 
ATOM     16  C   UNL     1       5.009  -5.210   4.859  0.00  0.00    +0.014 A 
ATOM     17  C   UNL     1       5.836  -6.204   5.338  0.00  0.00    +0.021 A 
ATOM     18  C   UNL     1       6.290  -6.162   6.646  0.00  0.00    +0.041 A 
ATOM     19  C   UNL     1       5.918  -5.121   7.481  0.00  0.00    +0.021 A 
ATOM     20  C   UNL     1       5.096  -4.118   7.012  0.00  0.00    +0.014 A 
ATOM     21 CL   UNL     1       7.330  -7.418   7.241  0.00  0.00    -0.084 Cl
ENDBRANCH  11  15
BRANCH   1  23
ATOM     22  N   UNL     1      -0.937  -2.766   1.334  0.00  0.00    -0.316 N 
ATOM     23  C   UNL     1       0.376  -2.703   1.631  0.00  0.00    +0.218 C 
ATOM     24  O   UNL     1       1.169  -2.320   0.796  0.00  0.00    -0.275 OA
ATOM     25  H   UNL     1      -1.571  -3.072   2.002  0.00  0.00    +0.149 HD
BRANCH  22  26
ATOM     26  C   UNL     1      -1.407  -2.373   0.004  0.00  0.00    +0.093 C 
BRANCH  26  27
ATOM     27  C   UNL     1      -2.905  -2.661  -0.113  0.00  0.00    -0.021 C 
BRANCH  27  28
ATOM     28  C   UNL     1      -3.139  -4.148  -0.028  0.00  0.00    -0.059 A 
ATOM     29  C   UNL     1      -2.929  -4.944  -1.138  0.00  0.00    +0.005 A 
ATOM     30  C   UNL     1      -3.143  -6.307  -1.063  0.00  0.00    +0.046 A 
ATOM     31  C   UNL     1      -3.569  -6.876   0.128  0.00  0.00    +0.120 A 
ATOM     32  C   UNL     1      -3.779  -6.075   1.241  0.00  0.00    +0.046 A 
ATOM     33  C   UNL     1      -3.559  -4.713   1.162  0.00  0.00    +0.005 A 
BRANCH  31  34
ATOM     34  O   UNL     1      -3.781  -8.216   0.205  0.00  0.00    -0.495 OA
ATOM     35  C   UNL     1      -4.219  -8.733   1.463  0.00  0.00    +0.277 C 
ENDBRANCH  31  34
ENDBRANCH  27  28
BRANCH  27  37
ATOM     36  C   UNL     1      -4.824  -2.500  -1.545  0.00  0.00    -0.096 C 
ATOM     37  N   UNL     1      -3.401  -2.161  -1.402  0.00  0.00    +0.382 N 
ATOM     38  C   UNL     1      -3.238  -0.702  -1.456  0.00  0.00    -0.096 C 
ATOM     39  H   UNL     1      -2.877  -2.586  -2.152  0.00  0.00    -0.082 HD
ENDBRANCH  27  37
ENDBRANCH  26  27
ENDBRANCH  22  26
ENDBRANCH   1  23
TORSDOF 7
