REMARK  Name = ZINC55334360
REMARK  5 active torsions:
REMARK  status: ('A' for Active; 'I' for Inactive)
REMARK    1  A    between atoms: C_1  and  O_2
REMARK    2  A    between atoms: O_2  and  C_3
REMARK    3  A    between atoms: C_8  and  C_9
REMARK    4  A    between atoms: C_10  and  C_15
REMARK    5  A    between atoms: C_11  and  N_14
REMARK                            x       y       z     vdW  Elec       q    Type
REMARK                         _______ _______ _______ _____ _____    ______ ____
ROOT
ATOM      1  C   UNL     1      -0.006  -2.831  -0.013  0.00  0.00    +0.126 A 
ATOM      2  C   UNL     1       0.094  -4.292  -0.028  0.00  0.00    +0.072 A 
ATOM      3  C   UNL     1       1.440  -4.596  -0.040  0.00  0.00    +0.224 A 
ATOM      4  O   UNL     1       2.125  -3.443  -0.034  0.00  0.00    -0.339 OA
ATOM      5  N   UNL     1       1.218  -2.359  -0.023  0.00  0.00    -0.075 NA
ENDROOT
BRANCH   2   6
ATOM      6  C   UNL     1      -1.031  -5.256  -0.029  0.00  0.00    +0.003 A 
ATOM      7  C   UNL     1      -1.568  -5.705  -1.235  0.00  0.00    +0.010 A 
ATOM      8  C   UNL     1      -2.615  -6.603  -1.230  0.00  0.00    +0.001 A 
ATOM      9  C   UNL     1      -3.133  -7.059  -0.030  0.00  0.00    +0.001 A 
ATOM     10  C   UNL     1      -2.606  -6.618   1.170  0.00  0.00    +0.016 A 
ATOM     11  C   UNL     1      -1.554  -5.723   1.178  0.00  0.00    +0.026 A 
ATOM     12 BR   UNL     1      -0.829  -5.127   2.819  0.00  0.00    -0.050 Br
ENDBRANCH   2   6
BRANCH   1  18
ATOM     13  C   UNL     1      -1.199  -0.637   0.010  0.00  0.00    +0.129 A 
ATOM     14  C   UNL     1      -2.374   0.100   0.019  0.00  0.00    +0.046 A 
ATOM     15  C   UNL     1      -3.595  -0.546   0.027  0.00  0.00    +0.004 A 
ATOM     16  C   UNL     1      -3.655  -1.929   0.026  0.00  0.00    +0.001 A 
ATOM     17  C   UNL     1      -2.494  -2.674   0.016  0.00  0.00    +0.014 A 
ATOM     18  C   UNL     1      -1.257  -2.034   0.003  0.00  0.00    +0.046 A 
BRANCH  13  20
ATOM     19  C   UNL     1      -0.017   1.425   0.010  0.00  0.00    +0.277 C 
ATOM     20  O   UNL     1       0.002  -0.004   0.002  0.00  0.00    -0.494 OA
ENDBRANCH  13  20
ENDBRANCH   1  18
BRANCH   3  21
ATOM     21  N   UNL     1       1.986  -5.863  -0.055  0.00  0.00    -0.327 N 
ATOM     22  H   UNL     1       1.406  -6.641  -0.059  0.00  0.00    +0.145 HD
ATOM     23  H   UNL     1       2.949  -5.977  -0.063  0.00  0.00    +0.145 HD
ENDBRANCH   3  21
TORSDOF 4
