REMARK  Name = ZINC50252663
REMARK  8 active torsions:
REMARK  status: ('A' for Active; 'I' for Inactive)
REMARK    1  A    between atoms: C_1  and  C_2
REMARK    2  A    between atoms: C_4  and  S_8
REMARK    3  A    between atoms: N_6  and  C_7
REMARK    4  A    between atoms: S_8  and  N_11
REMARK    5  A    between atoms: N_11  and  C_12
REMARK    6  A    between atoms: C_12  and  C_14
REMARK    7  A    between atoms: C_12  and  C_15
REMARK    8  A    between atoms: C_18  and  N_21
REMARK                            x       y       z     vdW  Elec       q    Type
REMARK                         _______ _______ _______ _____ _____    ______ ____
ROOT
ATOM      1  N   UNL     1      -0.760  -2.992  -3.153  0.00  0.00    -0.181 NA
ATOM      2  H   UNL     1      -1.594  -3.427  -3.390  0.00  0.00    +0.149 HD
ENDROOT
BRANCH   1   3
ATOM      3  S   UNL     1       0.042  -3.437  -1.774  0.00  0.00    +0.078 S 
ATOM      4  O   UNL     1       1.398  -3.650  -2.144  0.00  0.00    -0.152 OA
ATOM      5  O   UNL     1      -0.745  -4.444  -1.153  0.00  0.00    -0.152 OA
BRANCH   3   9
ATOM      6  C   UNL     1      -0.018   1.503   0.010  0.00  0.00    +0.086 C 
ATOM      7  C   UNL     1       0.002  -0.004   0.002  0.00  0.00    +0.109 A 
ATOM      8  N   UNL     1       0.008  -0.759  -1.063  0.00  0.00    -0.213 NA
ATOM      9  C   UNL     1       0.028  -2.047  -0.691  0.00  0.00    +0.211 A 
ATOM     10  C   UNL     1       0.034  -2.093   0.655  0.00  0.00    +0.135 A 
ATOM     11  N   UNL     1       0.023  -0.797   1.095  0.00  0.00    -0.336 N 
ATOM     12  C   UNL     1       0.030  -0.353   2.491  0.00  0.00    +0.150 C 
ENDBRANCH   3   9
ENDBRANCH   1   3
BRANCH   1  13
ATOM     13  C   UNL     1      -0.211  -1.941  -4.013  0.00  0.00    +0.103 C 
ATOM     14  C   UNL     1       0.611  -2.578  -5.135  0.00  0.00    +0.031 C 
BRANCH  13  15
ATOM     15  C   UNL     1      -1.340  -1.140  -4.610  0.00  0.00    -0.029 A 
ATOM     16  C   UNL     1      -2.489  -1.780  -5.037  0.00  0.00    +0.007 A 
ATOM     17  C   UNL     1      -3.525  -1.049  -5.584  0.00  0.00    +0.023 A 
ATOM     18  C   UNL     1      -3.412   0.330  -5.706  0.00  0.00    +0.025 A 
ATOM     19  C   UNL     1      -2.256   0.970  -5.277  0.00  0.00    +0.023 A 
ATOM     20  C   UNL     1      -1.226   0.233  -4.725  0.00  0.00    +0.007 A 
BRANCH  18  21
ATOM     21  N   UNL     1      -4.457   1.073  -6.260  0.00  0.00    -0.358 N 
ATOM     22  H   UNL     1      -5.264   0.625  -6.560  0.00  0.00    +0.142 HD
ATOM     23  H   UNL     1      -4.377   2.035  -6.345  0.00  0.00    +0.142 HD
ENDBRANCH  18  21
ENDBRANCH  13  15
ENDBRANCH   1  13
TORSDOF 5
