REMARK  Name = ZINC12925167
REMARK  5 active torsions:
REMARK  status: ('A' for Active; 'I' for Inactive)
REMARK    1  A    between atoms: C_3  and  C_9
REMARK    2  A    between atoms: C_4  and  N_8
REMARK    3  A    between atoms: C_9  and  O_11
REMARK    4  A    between atoms: O_11  and  C_12
REMARK    5  A    between atoms: C_12  and  C_13
REMARK                            x       y       z     vdW  Elec       q    Type
REMARK                         _______ _______ _______ _____ _____    ______ ____
ROOT
ATOM      1  C   UNL     1       3.447  -1.270   0.142  0.00  0.00    +0.288 C 
ENDROOT
BRANCH   1   2
ATOM      2  C   UNL     1       3.129  -2.737   0.275  0.00  0.00    +0.087 A 
ATOM      3  C   UNL     1       3.412  -3.613  -0.752  0.00  0.00    +0.097 A 
ATOM      4  C   UNL     1       3.115  -4.969  -0.608  0.00  0.00    +0.259 A 
ATOM      5  O   UNL     1       3.369  -5.750  -1.512  0.00  0.00    -0.267 OA
ATOM      6  N   UNL     1       2.535  -5.420   0.544  0.00  0.00    -0.259 N 
ATOM      7  C   UNL     1       2.184  -6.737   0.809  0.00  0.00    +0.039 A 
ATOM      8  C   UNL     1       1.622  -7.019   1.991  0.00  0.00    +0.013 A 
ATOM      9  S   UNL     1       1.549  -5.448   2.812  0.00  0.00    -0.054 S 
ATOM     10  C   UNL     1       2.285  -4.484   1.508  0.00  0.00    +0.181 A 
ATOM     11  N   UNL     1       2.565  -3.210   1.384  0.00  0.00    -0.224 NA
ATOM     12  C   UNL     1       1.164  -8.349   2.498  0.00  0.00    +0.044 C 
ATOM     13  C   UNL     1       1.097  -9.322   1.312  0.00  0.00    +0.006 C 
ATOM     14  C   UNL     1       2.391  -9.195   0.503  0.00  0.00    +0.006 C 
ATOM     15  C   UNL     1       2.426  -7.845  -0.214  0.00  0.00    +0.055 C 
ENDBRANCH   1   2
BRANCH   1  16
ATOM     16  O   UNL     1       2.213  -0.506   0.142  0.00  0.00    -0.455 OA
BRANCH  16  17
ATOM     17  C   UNL     1       2.323   0.833   0.029  0.00  0.00    +0.341 C 
ATOM     18  O   UNL     1       3.420   1.347  -0.067  0.00  0.00    -0.245 OA
BRANCH  17  21
ATOM     19  C   UNL     1      -1.280   1.871  -0.004  0.00  0.00    +0.039 A 
ATOM     20  C   UNL     1      -0.153   1.081   0.009  0.00  0.00    +0.019 A 
ATOM     21  C   UNL     1       1.114   1.672   0.023  0.00  0.00    +0.080 A 
ATOM     22  C   UNL     1       1.226   3.073   0.030  0.00  0.00    +0.041 A 
ATOM     23  C   UNL     1       0.080   3.854   0.023  0.00  0.00    +0.061 A 
ATOM     24  C   UNL     1      -1.167   3.255   0.009  0.00  0.00    +0.125 A 
ATOM     25  F   UNL     1      -2.280   4.020   0.001  0.00  0.00    -0.205 F 
BRANCH  22  26
ATOM     26  N   UNL     1       2.479   3.672   0.044  0.00  0.00    -0.357 N 
ATOM     27  H   UNL     1       3.278   3.128  -0.032  0.00  0.00    +0.142 HD
ATOM     28  H   UNL     1       2.555   4.636   0.130  0.00  0.00    +0.142 HD
ENDBRANCH  22  26
ENDBRANCH  17  21
ENDBRANCH  16  17
ENDBRANCH   1  16
TORSDOF 5
