REMARK  Name = ZINC40701937
REMARK  9 active torsions:
REMARK  status: ('A' for Active; 'I' for Inactive)
REMARK    1  A    between atoms: C_1  and  C_2
REMARK    2  A    between atoms: C_2  and  N_3
REMARK    3  A    between atoms: N_3  and  C_4
REMARK    4  A    between atoms: C_15  and  N_30
REMARK    5  A    between atoms: C_16  and  O_20
REMARK    6  A    between atoms: O_20  and  C_21
REMARK    7  A    between atoms: C_24  and  C_27
REMARK    8  A    between atoms: C_27  and  C_28
REMARK    9  A    between atoms: C_27  and  C_29
REMARK                            x       y       z     vdW  Elec       q    Type
REMARK                         _______ _______ _______ _____ _____    ______ ____
ROOT
ATOM      1  N   UNL     1      -1.268  -0.430  -0.060  0.00  0.00    -0.283 N 
ATOM      2  C   UNL     1      -1.881  -0.670   1.165  0.00  0.00    +0.153 A 
ATOM      3  C   UNL     1      -1.213  -0.391   2.360  0.00  0.00    +0.128 A 
ATOM      4  C   UNL     1      -1.874  -0.649   3.559  0.00  0.00    +0.246 A 
ATOM      5  N   UNL     1      -3.107  -1.147   3.522  0.00  0.00    -0.199 NA
ATOM      6  C   UNL     1      -3.702  -1.397   2.373  0.00  0.00    +0.227 A 
ATOM      7  N   UNL     1      -3.116  -1.163   1.217  0.00  0.00    -0.218 NA
ENDROOT
BRANCH   1   8
ATOM      8  C   UNL     1      -0.611  -1.465  -0.724  0.00  0.00    +0.043 A 
ATOM      9  C   UNL     1       0.727  -1.703  -0.490  0.00  0.00    +0.024 A 
ATOM     10  C   UNL     1       1.392  -2.733  -1.148  0.00  0.00    +0.002 A 
ATOM     11  C   UNL     1       0.743  -3.533  -2.039  0.00  0.00    +0.008 A 
ATOM     12  C   UNL     1      -0.620  -3.323  -2.306  0.00  0.00    -0.016 A 
ATOM     13  C   UNL     1      -1.310  -2.281  -1.638  0.00  0.00    +0.003 A 
ATOM     14  C   UNL     1      -2.673  -2.077  -1.903  0.00  0.00    +0.010 A 
ATOM     15  C   UNL     1      -3.316  -2.883  -2.792  0.00  0.00    +0.001 A 
ATOM     16  C   UNL     1      -2.640  -3.912  -3.445  0.00  0.00    +0.001 A 
ATOM     17  C   UNL     1      -1.315  -4.133  -3.222  0.00  0.00    +0.008 A 
ENDBRANCH   1   8
BRANCH   3  18
ATOM     18  N   UNL     1       0.088   0.135   2.353  0.00  0.00    -0.351 N 
ATOM     19  H   UNL     1       0.507   0.382   1.513  0.00  0.00    +0.143 HD
ATOM     20  H   UNL     1       0.569   0.251   3.187  0.00  0.00    +0.143 HD
ENDBRANCH   3  18
BRANCH   1  22
ATOM     21  C   UNL     1      -2.494   1.001  -1.619  0.00  0.00    +0.025 C 
ATOM     22  C   UNL     1      -1.312   0.909  -0.652  0.00  0.00    +0.109 C 
ENDBRANCH   1  22
BRANCH   4  23
ATOM     23  O   UNL     1      -1.270  -0.396   4.747  0.00  0.00    -0.436 OA
BRANCH  23  24
ATOM     24  C   UNL     1      -1.996  -0.570   5.883  0.00  0.00    +0.130 A 
ATOM     25  C   UNL     1      -2.237  -1.849   6.364  0.00  0.00    +0.046 A 
ATOM     26  C   UNL     1      -2.975  -2.023   7.519  0.00  0.00    +0.007 A 
ATOM     27  C   UNL     1      -3.474  -0.924   8.194  0.00  0.00    -0.045 A 
ATOM     28  C   UNL     1      -3.236   0.351   7.716  0.00  0.00    +0.007 A 
ATOM     29  C   UNL     1      -2.493   0.531   6.565  0.00  0.00    +0.046 A 
BRANCH  27  30
ATOM     30  C   UNL     1      -4.280  -1.117   9.453  0.00  0.00    +0.013 C 
ATOM     31  C   UNL     1      -3.584  -0.410  10.617  0.00  0.00    +0.012 C 
ATOM     32  C   UNL     1      -5.678  -0.526   9.259  0.00  0.00    +0.012 C 
ENDBRANCH  27  30
ENDBRANCH  23  24
ENDBRANCH   4  23
TORSDOF 6
