REMARK  Name = ZINC16951216
REMARK  8 active torsions:
REMARK  status: ('A' for Active; 'I' for Inactive)
REMARK    1  A    between atoms: C_1  and  C_2
REMARK    2  A    between atoms: C_3  and  N_15
REMARK    3  A    between atoms: C_4  and  C_9
REMARK    4  A    between atoms: N_16  and  C_17
REMARK    5  A    between atoms: C_20  and  O_25
REMARK    6  A    between atoms: C_22  and  O_23
REMARK    7  A    between atoms: O_23  and  C_24
REMARK    8  A    between atoms: O_25  and  C_26
REMARK                            x       y       z     vdW  Elec       q    Type
REMARK                         _______ _______ _______ _____ _____    ______ ____
ROOT
ATOM      1  C   UNL     1      -0.096  -4.084   0.212  0.00  0.00    +0.068 C 
ATOM      2  C   UNL     1       1.235  -4.778   0.074  0.00  0.00    +0.071 A 
ATOM      3  C   UNL     1       2.384  -4.049  -0.259  0.00  0.00    +0.133 A 
ATOM      4  C   UNL     1       3.606  -4.748  -0.370  0.00  0.00    +0.103 A 
ATOM      5  N   UNL     1       3.614  -6.061  -0.160  0.00  0.00    -0.212 NA
ATOM      6  C   UNL     1       2.498  -6.705   0.147  0.00  0.00    +0.213 A 
ATOM      7  N   UNL     1       1.333  -6.081   0.260  0.00  0.00    -0.218 NA
ATOM      8  N   UNL     1       2.550  -8.070   0.358  0.00  0.00    -0.327 N 
ATOM      9  H   UNL     1       1.633  -8.622   0.614  0.00  0.00    +0.145 HD
ATOM     10  H   UNL     1       3.507  -8.604   0.269  0.00  0.00    +0.145 HD
ENDROOT
BRANCH   4  11
ATOM     11  C   UNL     1       4.856  -4.033  -0.714  0.00  0.00    +0.003 A 
ATOM     12  C   UNL     1       4.825  -2.955  -1.599  0.00  0.00    +0.010 A 
ATOM     13  C   UNL     1       5.992  -2.288  -1.911  0.00  0.00    +0.001 A 
ATOM     14  C   UNL     1       7.193  -2.694  -1.357  0.00  0.00    +0.000 A 
ATOM     15  C   UNL     1       7.231  -3.766  -0.483  0.00  0.00    +0.001 A 
ATOM     16  C   UNL     1       6.070  -4.437  -0.159  0.00  0.00    +0.010 A 
ENDBRANCH   4  11
BRANCH   3  17
ATOM     17  N   UNL     1       2.326  -2.703  -0.465  0.00  0.00    -0.145 NA
ATOM     18  N   UNL     1       1.409  -2.205  -1.224  0.00  0.00    -0.145 NA
BRANCH  18  19
ATOM     19  C   UNL     1       1.351  -0.859  -1.430  0.00  0.00    +0.128 A 
ATOM     20  C   UNL     1       2.283  -0.014  -0.819  0.00  0.00    +0.037 A 
ATOM     21  C   UNL     1       2.221   1.345  -1.030  0.00  0.00    +0.048 A 
ATOM     22  C   UNL     1       1.233   1.882  -1.848  0.00  0.00    +0.124 A 
ATOM     23  C   UNL     1       0.303   1.053  -2.459  0.00  0.00    +0.093 A 
ATOM     24  C   UNL     1       0.354  -0.314  -2.256  0.00  0.00    +0.151 A 
BRANCH  24  25
ATOM     25  O   UNL     1      -0.555  -1.127  -2.852  0.00  0.00    -0.493 OA
ATOM     26  C   UNL     1      -1.540  -0.502  -3.678  0.00  0.00    +0.277 C 
ENDBRANCH  24  25
BRANCH  22  27
ATOM     27  O   UNL     1       1.179   3.224  -2.051  0.00  0.00    -0.495 OA
ATOM     28  C   UNL     1       2.166   4.020  -1.393  0.00  0.00    +0.277 C 
ENDBRANCH  22  27
ENDBRANCH  18  19
ENDBRANCH   3  17
TORSDOF 5
