REMARK  Name = ZINC39631416
REMARK  11 active torsions:
REMARK  status: ('A' for Active; 'I' for Inactive)
REMARK    1  A    between atoms: C_1  and  C_2
REMARK    2  A    between atoms: C_2  and  C_4
REMARK    3  A    between atoms: C_2  and  N_11
REMARK    4  A    between atoms: C_4  and  C_5
REMARK    5  A    between atoms: C_5  and  C_6
REMARK    6  A    between atoms: C_6  and  C_7
REMARK    7  A    between atoms: C_7  and  C_8
REMARK    8  A    between atoms: C_7  and  C_9
REMARK    9  A    between atoms: C_7  and  O_10
REMARK   10  A    between atoms: C_12  and  C_14
REMARK   11  A    between atoms: C_25  and  C_27
REMARK                            x       y       z     vdW  Elec       q    Type
REMARK                         _______ _______ _______ _____ _____    ______ ____
ROOT
ATOM      1  C   UNL     1       2.599  -3.529   7.284  0.00  0.00    +0.100 C 
ATOM      2  C   UNL     1       3.134  -4.828   6.641  0.00  0.00    +0.121 C 
ATOM      3  N   UNL     1       4.345  -4.407   5.897  0.00  0.00    -0.296 N 
ATOM      4  C   UNL     1       4.993  -3.410   6.783  0.00  0.00    +0.115 C 
ATOM      5  C   UNL     1       3.823  -2.602   7.378  0.00  0.00    -0.004 C 
ATOM      6  C   UNL     1       4.109  -2.253   8.836  0.00  0.00    -0.010 C 
ATOM      7  C   UNL     1       5.294  -1.285   8.900  0.00  0.00    -0.082 C 
ATOM      8  N   UNL     1       4.977  -0.070   8.139  0.00  0.00    +0.379 N 
ATOM      9  C   UNL     1       4.795  -0.403   6.720  0.00  0.00    -0.082 C 
ATOM     10  C   UNL     1       3.589  -1.334   6.564  0.00  0.00    -0.010 C 
ATOM     11  C   UNL     1       4.763  -4.835   4.689  0.00  0.00    +0.247 C 
ATOM     12  O   UNL     1       5.797  -4.404   4.217  0.00  0.00    -0.270 OA
ATOM     13  H   UNL     1       4.129   0.340   8.499  0.00  0.00    -0.086 HD
ATOM     14  H   UNL     1       5.734   0.591   8.233  0.00  0.00    -0.086 HD
ENDROOT
BRANCH  11  15
ATOM     15  C   UNL     1       3.965  -5.827   3.940  0.00  0.00    +0.037 A 
ATOM     16  C   UNL     1       2.726  -5.469   3.404  0.00  0.00    +0.014 A 
ATOM     17  C   UNL     1       1.986  -6.398   2.705  0.00  0.00    +0.021 A 
ATOM     18  C   UNL     1       2.468  -7.685   2.534  0.00  0.00    +0.041 A 
ATOM     19  C   UNL     1       3.697  -8.046   3.063  0.00  0.00    +0.021 A 
ATOM     20  C   UNL     1       4.449  -7.123   3.759  0.00  0.00    +0.014 A 
ATOM     21 CL   UNL     1       1.530  -8.851   1.653  0.00  0.00    -0.084 Cl
ENDBRANCH  11  15
BRANCH   1  23
ATOM     22  N   UNL     1       0.611  -2.095   6.951  0.00  0.00    -0.312 N 
ATOM     23  C   UNL     1       1.538  -2.910   6.410  0.00  0.00    +0.218 C 
ATOM     24  O   UNL     1       1.519  -3.145   5.221  0.00  0.00    -0.275 OA
ATOM     25  H   UNL     1       0.670  -1.847   7.887  0.00  0.00    +0.149 HD
BRANCH  22  27
ATOM     26  C   UNL     1      -0.019  -0.337   5.372  0.00  0.00    +0.028 C 
ATOM     27  C   UNL     1      -0.486  -1.584   6.126  0.00  0.00    +0.070 C 
BRANCH  27  28
ATOM     28  C   UNL     1      -1.673  -1.225   7.021  0.00  0.00    +0.022 C 
BRANCH  28  29
ATOM     29  C   UNL     1      -2.056  -2.438   7.872  0.00  0.00    +0.005 C 
BRANCH  29  30
ATOM     30  C   UNL     1      -3.319  -2.119   8.675  0.00  0.00    +0.034 C 
BRANCH  30  31
ATOM     31  C   UNL     1      -3.737  -3.352   9.479  0.00  0.00    +0.061 C 
ATOM     32  C   UNL     1      -4.792  -2.953  10.512  0.00  0.00    +0.041 C 
ATOM     33  C   UNL     1      -4.320  -4.404   8.533  0.00  0.00    +0.041 C 
BRANCH  31  34
ATOM     34  O   UNL     1      -2.596  -3.893  10.148  0.00  0.00    -0.389 OA
ATOM     35  H   UNL     1      -2.771  -4.721  10.617  0.00  0.00    +0.210 HD
ENDBRANCH  31  34
ENDBRANCH  30  31
ENDBRANCH  29  30
ENDBRANCH  28  29
ENDBRANCH  27  28
ENDBRANCH  22  27
ENDBRANCH   1  23
TORSDOF 8
