REMARK  Name = ZINC39576707
REMARK  11 active torsions:
REMARK  status: ('A' for Active; 'I' for Inactive)
REMARK    1  A    between atoms: C_1  and  C_2
REMARK    2  A    between atoms: C_2  and  C_3
REMARK    3  A    between atoms: C_2  and  C_4
REMARK    4  A    between atoms: C_2  and  C_5
REMARK    5  A    between atoms: C_5  and  C_6
REMARK    6  A    between atoms: C_13  and  C_17
REMARK    7  A    between atoms: N_19  and  N_20
REMARK    8  A    between atoms: C_21  and  C_22
REMARK    9  A    between atoms: C_25  and  O_30
REMARK   10  A    between atoms: C_26  and  O_28
REMARK   11  A    between atoms: O_28  and  C_29
REMARK                            x       y       z     vdW  Elec       q    Type
REMARK                         _______ _______ _______ _____ _____    ______ ____
ROOT
ATOM      1  C   UNL     1       5.739  -1.330  -3.545  0.00  0.00    +0.263 C 
ATOM      2  O   UNL     1       6.600  -2.085  -3.143  0.00  0.00    -0.271 OA
ATOM      3  N   UNL     1       4.999  -1.663  -4.621  0.00  0.00    -0.205 N 
ATOM      4  H   UNL     1       4.311  -1.060  -4.942  0.00  0.00    +0.177 HD
ENDROOT
BRANCH   1  11
ATOM      5  C   UNL     1       2.007  -0.011  -1.051  0.00  0.00    -0.006 C 
ATOM      6  C   UNL     1       2.617  -0.599   0.225  0.00  0.00    +0.010 C 
ATOM      7  C   UNL     1       3.935   0.116   0.544  0.00  0.00    +0.057 C 
ATOM      8  C   UNL     1       4.795   0.117  -0.700  0.00  0.00    +0.065 C 
ATOM      9  C   UNL     1       4.307  -0.118  -1.922  0.00  0.00    -0.012 C 
ATOM     10  C   UNL     1       2.873  -0.409  -2.255  0.00  0.00    +0.039 C 
ATOM     11  C   UNL     1       5.497  -0.020  -2.841  0.00  0.00    +0.243 C 
ATOM     12  N   UNL     1       6.599   0.290  -1.909  0.00  0.00    -0.170 NA
ATOM     13  N   UNL     1       6.125   0.345  -0.769  0.00  0.00    -0.158 NA
BRANCH   5  14
ATOM     14  C   UNL     1       0.590  -0.555  -1.238  0.00  0.00    +0.010 C 
BRANCH  14  16
ATOM     15  C   UNL     1       0.517   0.241  -3.605  0.00  0.00    +0.010 C 
ATOM     16  C   UNL     1      -0.166   0.322  -2.238  0.00  0.00    -0.037 C 
ATOM     17  C   UNL     1      -0.160   1.772  -1.750  0.00  0.00    +0.010 C 
ATOM     18  C   UNL     1      -1.609  -0.170  -2.359  0.00  0.00    +0.010 C 
ENDBRANCH  14  16
ENDBRANCH   5  14
ENDBRANCH   1  11
BRANCH   3  19
ATOM     19  N   UNL     1       5.224  -2.882  -5.275  0.00  0.00    -0.188 NA
ATOM     20  C   UNL     1       4.511  -3.203  -6.311  0.00  0.00    +0.138 C 
BRANCH  20  21
ATOM     21  C   UNL     1       4.747  -4.485  -7.000  0.00  0.00    -0.002 A 
ATOM     22  C   UNL     1       5.734  -5.358  -6.535  0.00  0.00    +0.013 A 
ATOM     23  C   UNL     1       5.954  -6.556  -7.181  0.00  0.00    +0.050 A 
ATOM     24  C   UNL     1       5.197  -6.898  -8.292  0.00  0.00    +0.158 A 
ATOM     25  C   UNL     1       4.212  -6.033  -8.761  0.00  0.00    +0.162 A 
ATOM     26  C   UNL     1       3.981  -4.832  -8.116  0.00  0.00    +0.058 A 
BRANCH  25  27
ATOM     27  O   UNL     1       3.472  -6.371  -9.851  0.00  0.00    -0.491 OA
ATOM     28  C   UNL     1       2.479  -5.436 -10.277  0.00  0.00    +0.277 C 
ENDBRANCH  25  27
BRANCH  24  29
ATOM     29  O   UNL     1       5.418  -8.081  -8.925  0.00  0.00    -0.503 OA
ATOM     30  H   UNL     1       4.889  -8.815  -8.584  0.00  0.00    +0.292 HD
ENDBRANCH  24  29
ENDBRANCH  20  21
ENDBRANCH   3  19
TORSDOF 7
