REMARK  Name = ZINC03878228
REMARK  9 active torsions:
REMARK  status: ('A' for Active; 'I' for Inactive)
REMARK    1  A    between atoms: C_10  and  C_11
REMARK    2  A    between atoms: C_11  and  C_12
REMARK    3  A    between atoms: N_14  and  C_15
REMARK    4  A    between atoms: C_15  and  C_17
REMARK    5  A    between atoms: C_15  and  N_21
REMARK    6  A    between atoms: N_21  and  C_22
REMARK    7  A    between atoms: C_22  and  N_24
REMARK    8  A    between atoms: N_24  and  C_25
REMARK    9  A    between atoms: C_28  and  N_31
REMARK                            x       y       z     vdW  Elec       q    Type
REMARK                         _______ _______ _______ _____ _____    ______ ____
ROOT
ATOM      1  C   UNL     1      -4.457   4.562  -2.365  0.00  0.00    +0.211 C 
ENDROOT
BRANCH   1   4
ATOM      2  C   UNL     1      -3.574   3.160  -0.578  0.00  0.00    +0.219 C 
ATOM      3  O   UNL     1      -2.738   2.749  -1.354  0.00  0.00    -0.275 OA
ATOM      4  N   UNL     1      -4.481   4.070  -0.985  0.00  0.00    -0.293 N 
ATOM      5  H   UNL     1      -5.150   4.399  -0.364  0.00  0.00    +0.151 HD
BRANCH   2   6
ATOM      6  C   UNL     1      -3.599   2.655   0.841  0.00  0.00    +0.131 C 
BRANCH   6  16
ATOM      7  C   UNL     1       1.382   2.902   1.996  0.00  0.00    +0.001 A 
ATOM      8  C   UNL     1       0.368   3.843   1.819  0.00  0.00    +0.001 A 
ATOM      9  C   UNL     1      -0.899   3.457   1.506  0.00  0.00    +0.009 A 
ATOM     10  C   UNL     1      -1.193   2.090   1.359  0.00  0.00    -0.014 A 
ATOM     11  C   UNL     1      -0.163   1.134   1.540  0.00  0.00    -0.018 A 
ATOM     12  C   UNL     1       1.134   1.571   1.862  0.00  0.00    +0.008 A 
ATOM     13  C   UNL     1      -0.457  -0.232   1.392  0.00  0.00    +0.008 A 
ATOM     14  C   UNL     1      -1.724  -0.618   1.079  0.00  0.00    +0.001 A 
ATOM     15  C   UNL     1      -2.736   0.323   0.896  0.00  0.00    +0.005 A 
ATOM     16  C   UNL     1      -2.489   1.654   1.037  0.00  0.00    -0.031 A 
ENDBRANCH   6  16
ENDBRANCH   2   6
ENDBRANCH   1   4
BRANCH   1  17
ATOM     17  C   UNL     1      -4.622   6.083  -2.367  0.00  0.00    +0.225 C 
ATOM     18 CL   UNL     1      -3.272   6.835  -1.438  0.00  0.00    -0.080 Cl
ATOM     19 CL   UNL     1      -4.592   6.688  -4.065  0.00  0.00    -0.080 Cl
ATOM     20 CL   UNL     1      -6.195   6.519  -1.601  0.00  0.00    -0.080 Cl
ENDBRANCH   1  17
BRANCH   1  21
ATOM     21  N   UNL     1      -5.554   3.951  -3.120  0.00  0.00    -0.305 N 
ATOM     22  H   UNL     1      -6.465   4.253  -2.982  0.00  0.00    +0.150 HD
BRANCH  21  23
ATOM     23  C   UNL     1      -5.296   2.969  -4.007  0.00  0.00    +0.136 C 
ATOM     24  S   UNL     1      -3.688   2.435  -4.250  0.00  0.00    -0.019 S 
BRANCH  23  25
ATOM     25  N   UNL     1      -6.305   2.407  -4.702  0.00  0.00    -0.297 N 
ATOM     26  H   UNL     1      -7.222   2.666  -4.520  0.00  0.00    +0.154 HD
BRANCH  25  27
ATOM     27  C   UNL     1      -6.030   1.450  -5.684  0.00  0.00    +0.033 A 
ATOM     28  C   UNL     1      -6.662   1.519  -6.919  0.00  0.00    +0.025 A 
ATOM     29  C   UNL     1      -6.383   0.577  -7.889  0.00  0.00    +0.034 A 
ATOM     30  C   UNL     1      -5.484  -0.441  -7.629  0.00  0.00    +0.126 A 
ATOM     31  C   UNL     1      -4.857  -0.515  -6.399  0.00  0.00    +0.034 A 
ATOM     32  C   UNL     1      -5.127   0.427  -5.426  0.00  0.00    +0.025 A 
BRANCH  30  33
ATOM     33  N   UNL     1      -5.193  -1.453  -8.669  0.00  0.00    +0.056 N 
ATOM     34  O   UNL     1      -4.401  -2.350  -8.441  0.00  0.00    -0.126 OA
ATOM     35  O   UNL     1      -5.745  -1.389  -9.753  0.00  0.00    -0.126 OA
ENDBRANCH  30  33
ENDBRANCH  25  27
ENDBRANCH  23  25
ENDBRANCH  21  23
ENDBRANCH   1  21
TORSDOF 9
