REMARK  Name = ZINC01881662
REMARK  11 active torsions:
REMARK  status: ('A' for Active; 'I' for Inactive)
REMARK    1  A    between atoms: C_1  and  C_2
REMARK    2  A    between atoms: C_2  and  C_3
REMARK    3  A    between atoms: C_3  and  C_4
REMARK    4  A    between atoms: C_4  and  C_5
REMARK    5  A    between atoms: C_5  and  C_6
REMARK    6  A    between atoms: C_6  and  C_7
REMARK    7  A    between atoms: C_11  and  C_19
REMARK    8  A    between atoms: C_17  and  O_18
REMARK    9  A    between atoms: N_21  and  N_22
REMARK   10  A    between atoms: C_23  and  C_25
REMARK   11  A    between atoms: C_28  and  N_31
REMARK                            x       y       z     vdW  Elec       q    Type
REMARK                         _______ _______ _______ _____ _____    ______ ____
ROOT
ATOM      1  C   UNL     1      -0.724   2.012   1.250  0.00  0.00    -0.005 A 
ATOM      2  C   UNL     1       0.004   2.430   2.324  0.00  0.00    +0.018 A 
ATOM      3  C   UNL     1      -0.649   2.888   3.479  0.00  0.00    +0.019 A 
ATOM      4  C   UNL     1       0.103   3.329   4.595  0.00  0.00    +0.030 A 
ATOM      5  C   UNL     1      -0.570   3.768   5.720  0.00  0.00    +0.099 A 
ATOM      6  C   UNL     1      -2.036   3.761   5.715  0.00  0.00    +0.348 A 
ATOM      7  O   UNL     1      -2.648   4.144   6.695  0.00  0.00    -0.244 OA
ATOM      8  O   UNL     1      -2.705   3.334   4.632  0.00  0.00    -0.422 OA
ATOM      9  C   UNL     1      -2.057   2.903   3.528  0.00  0.00    +0.143 A 
ATOM     10  C   UNL     1      -2.780   2.469   2.427  0.00  0.00    +0.092 A 
ATOM     11  C   UNL     1      -2.117   2.026   1.294  0.00  0.00    +0.124 A 
ENDROOT
BRANCH   5  12
ATOM     12  C   UNL     1       0.174   4.236   6.906  0.00  0.00    +0.120 C 
ATOM     13  N   UNL     1      -0.472   4.647   7.962  0.00  0.00    -0.385 N 
ATOM     14  N   UNL     1       1.553   4.237   6.898  0.00  0.00    -0.249 N 
ATOM     15  H   UNL     1       0.083   4.996   8.845  0.00  0.00    +0.157 HD
ATOM     16  H   UNL     1       2.098   3.890   6.008  0.00  0.00    +0.171 HD
ATOM     17  H   UNL     1      -1.572   4.646   7.968  0.00  0.00    +0.157 HD
BRANCH  14  18
ATOM     18  N   UNL     1       2.260   4.681   8.023  0.00  0.00    -0.231 N 
ATOM     19  C   UNL     1       3.608   4.682   8.015  0.00  0.00    +0.260 C 
ATOM     20  O   UNL     1       4.210   4.298   7.031  0.00  0.00    -0.269 OA
ATOM     21  H   UNL     1       1.715   5.028   8.913  0.00  0.00    +0.173 HD
BRANCH  19  22
ATOM     22  C   UNL     1       4.354   5.150   9.203  0.00  0.00    +0.038 A 
ATOM     23  C   UNL     1       3.665   5.597  10.332  0.00  0.00    +0.015 A 
ATOM     24  C   UNL     1       4.367   6.027  11.439  0.00  0.00    +0.033 A 
ATOM     25  C   UNL     1       5.750   6.027  11.427  0.00  0.00    +0.126 A 
ATOM     26  C   UNL     1       6.439   5.591  10.309  0.00  0.00    +0.033 A 
ATOM     27  C   UNL     1       5.749   5.153   9.198  0.00  0.00    +0.015 A 
BRANCH  25  28
ATOM     28  N   UNL     1       6.497   6.496  12.616  0.00  0.00    +0.056 N 
ATOM     29  O   UNL     1       7.715   6.497  12.609  0.00  0.00    -0.126 OA
ATOM     30  O   UNL     1       5.894   6.881  13.601  0.00  0.00    -0.126 OA
ENDBRANCH  25  28
ENDBRANCH  19  22
ENDBRANCH  14  18
ENDBRANCH   5  12
BRANCH  11  31
ATOM     31  O   UNL     1      -2.829   1.601   0.220  0.00  0.00    -0.506 OA
ATOM     32  H   UNL     1      -3.929   1.611   0.250  0.00  0.00    +0.292 HD
ENDBRANCH  11  31
BRANCH   1  33
ATOM     33  C   UNL     1      -0.019   1.526   0.010  0.00  0.00    +0.039 C 
BRANCH  33  34
ATOM     34  C   UNL     1       0.002  -0.004   0.002  0.00  0.00    +0.005 C 
BRANCH  34  35
ATOM     35  C   UNL     1       0.718  -0.497  -1.257  0.00  0.00    +0.000 C 
BRANCH  35  36
ATOM     36  C   UNL     1       0.739  -2.027  -1.265  0.00  0.00    -0.000 C 
BRANCH  36  38
ATOM     37  C   UNL     1       1.476  -4.051  -2.532  0.00  0.00    +0.004 C 
ATOM     38  C   UNL     1       1.455  -2.521  -2.524  0.00  0.00    -0.003 C 
ENDBRANCH  36  38
ENDBRANCH  35  36
ENDBRANCH  34  35
ENDBRANCH  33  34
ENDBRANCH   1  33
TORSDOF 10
