REMARK  Name = ZINC47999262
REMARK  8 active torsions:
REMARK  status: ('A' for Active; 'I' for Inactive)
REMARK    1  A    between atoms: C_1  and  C_2
REMARK    2  A    between atoms: C_5  and  C_28
REMARK    3  A    between atoms: N_8  and  C_10
REMARK    4  A    between atoms: C_10  and  C_11
REMARK    5  A    between atoms: C_11  and  C_12
REMARK    6  A    between atoms: C_12  and  N_13
REMARK    7  A    between atoms: C_14  and  C_16
REMARK    8  A    between atoms: C_16  and  N_18
REMARK                            x       y       z     vdW  Elec       q    Type
REMARK                         _______ _______ _______ _____ _____    ______ ____
ROOT
ATOM      1  N   UNL     1       2.207   0.402   6.106  0.00  0.00    -0.308 N 
ATOM      2  C   UNL     1       2.669   0.154   7.348  0.00  0.00    +0.301 C 
ATOM      3  O   UNL     1       3.619  -0.585   7.506  0.00  0.00    -0.265 OA
ATOM      4  H   UNL     1       1.448   0.993   5.981  0.00  0.00    +0.149 HD
ENDROOT
BRANCH   2   5
ATOM      5  C   UNL     1       2.015   0.789   8.528  0.00  0.00    +0.324 C 
ATOM      6  O   UNL     1       1.062   1.532   8.370  0.00  0.00    -0.263 OA
BRANCH   5   7
ATOM      7  N   UNL     1       2.472   0.545   9.755  0.00  0.00    -0.148 NA
ATOM      8  C   UNL     1       1.887   1.112  10.809  0.00  0.00    +0.164 A 
ATOM      9  N   UNL     1       2.222   0.981  12.117  0.00  0.00    -0.335 N 
ATOM     10  C   UNL     1       1.497   1.650  13.083  0.00  0.00    +0.055 A 
ATOM     11  C   UNL     1       1.669   1.654  14.475  0.00  0.00    +0.027 A 
ATOM     12  C   UNL     1       0.834   2.393  15.280  0.00  0.00    +0.002 A 
ATOM     13  C   UNL     1      -0.195   3.150  14.745  0.00  0.00    +0.001 A 
ATOM     14  C   UNL     1      -0.386   3.163  13.375  0.00  0.00    +0.017 A 
ATOM     15  C   UNL     1       0.448   2.426  12.568  0.00  0.00    +0.039 A 
ATOM     16  S   UNL     1       0.572   2.159  10.819  0.00  0.00    -0.052 S 
ATOM     17  H   UNL     1       2.969   0.417  12.373  0.00  0.00    +0.168 HD
ENDBRANCH   5   7
ENDBRANCH   2   5
BRANCH   1  18
ATOM     18  C   UNL     1       2.850  -0.222   4.947  0.00  0.00    +0.103 C 
BRANCH  18  19
ATOM     19  C   UNL     1       2.136   0.221   3.668  0.00  0.00    +0.000 C 
BRANCH  19  20
ATOM     20  C   UNL     1       2.808  -0.431   2.458  0.00  0.00    -0.077 C 
BRANCH  20  26
ATOM     21  C   UNL     1      -0.019   1.526   0.010  0.00  0.00    +0.005 C 
ATOM     22  C   UNL     1       0.002  -0.004   0.002  0.00  0.00    -0.031 C 
ATOM     23  C   UNL     1       0.721  -0.499  -1.257  0.00  0.00    +0.003 C 
ATOM     24  C   UNL     1       2.177  -0.027  -1.220  0.00  0.00    -0.031 C 
ATOM     25  C   UNL     1       2.839  -0.534   0.063  0.00  0.00    -0.076 C 
ATOM     26  N   UNL     1       2.123  -0.005   1.230  0.00  0.00    +0.380 N 
ATOM     27  C   UNL     1       0.744  -0.512   1.240  0.00  0.00    -0.076 C 
ATOM     28  C   UNL     1       2.924  -0.581  -2.434  0.00  0.00    +0.005 C 
ATOM     29  H   UNL     1       2.109   1.003   1.187  0.00  0.00    -0.082 HD
ENDBRANCH  20  26
ENDBRANCH  19  20
ENDBRANCH  18  19
ENDBRANCH   1  18
TORSDOF 6
