REMARK  Name = ZINC33810630
REMARK  10 active torsions:
REMARK  status: ('A' for Active; 'I' for Inactive)
REMARK    1  A    between atoms: C_1  and  C_2
REMARK    2  A    between atoms: C_5  and  C_8
REMARK    3  A    between atoms: C_8  and  S_9
REMARK    4  A    between atoms: S_9  and  C_10
REMARK    5  A    between atoms: C_17  and  C_29
REMARK    6  A    between atoms: C_23  and  C_27
REMARK    7  A    between atoms: C_23  and  C_28
REMARK    8  A    between atoms: C_32  and  N_35
REMARK    9  A    between atoms: N_35  and  C_36
REMARK   10  A    between atoms: N_35  and  C_37
REMARK                            x       y       z     vdW  Elec       q    Type
REMARK                         _______ _______ _______ _____ _____    ______ ____
ROOT
ATOM      1  C   UNL     1      -0.174   4.215   0.024  0.00  0.00    +0.171 A 
ATOM      2  N   UNL     1       1.040   3.596   0.012  0.00  0.00    -0.208 NA
ATOM      3  C   UNL     1       1.111   2.228   0.005  0.00  0.00    +0.135 A 
ATOM      4  C   UNL     1      -0.038   1.500   0.009  0.00  0.00    +0.069 A 
ATOM      5  C   UNL     1      -1.275   2.180   0.025  0.00  0.00    +0.258 A 
ATOM      6  O   UNL     1      -2.322   1.551   0.031  0.00  0.00    -0.267 OA
ATOM      7  N   UNL     1      -1.293   3.522   0.027  0.00  0.00    -0.302 N 
ATOM      8  C   UNL     1      -0.000   0.000   0.003  0.00  0.00    +0.092 C 
ATOM      9  C   UNL     1       1.349  -0.511  -0.436  0.00  0.00    +0.024 C 
ATOM     10  C   UNL     1       2.435   0.291  -0.415  0.00  0.00    +0.017 C 
ATOM     11  N   UNL     1       2.332   1.593  -0.008  0.00  0.00    -0.302 N 
ATOM     12  C   UNL     1       3.789  -0.225  -0.835  0.00  0.00    +0.058 C 
ATOM     13  C   UNL     1       3.618  -1.302  -1.908  0.00  0.00    -0.023 C 
ATOM     14  C   UNL     1       2.749  -2.425  -1.334  0.00  0.00    +0.086 C 
ATOM     15  C   UNL     1       1.441  -1.845  -0.870  0.00  0.00    +0.162 C 
ATOM     16  O   UNL     1       0.446  -2.542  -0.869  0.00  0.00    -0.292 OA
ATOM     17  C   UNL     1       2.935  -0.699  -3.137  0.00  0.00    +0.011 C 
ATOM     18  C   UNL     1       4.989  -1.857  -2.303  0.00  0.00    +0.011 C 
ATOM     19  H   UNL     1       3.236   2.133   0.311  0.00  0.00    +0.153 HD
ATOM     20  H   UNL     1      -2.263   4.042   0.033  0.00  0.00    +0.171 HD
ENDROOT
BRANCH   8  21
ATOM     21  C   UNL     1      -0.290  -0.506   1.392  0.00  0.00    -0.035 A 
ATOM     22  C   UNL     1       0.538  -0.154   2.442  0.00  0.00    +0.006 A 
ATOM     23  C   UNL     1       0.272  -0.612   3.717  0.00  0.00    +0.023 A 
ATOM     24  C   UNL     1      -0.823  -1.437   3.943  0.00  0.00    +0.029 A 
ATOM     25  C   UNL     1      -1.650  -1.793   2.886  0.00  0.00    +0.023 A 
ATOM     26  C   UNL     1      -1.381  -1.327   1.614  0.00  0.00    +0.006 A 
BRANCH  24  27
ATOM     27  N   UNL     1      -1.091  -1.906   5.231  0.00  0.00    -0.336 N 
ATOM     28  C   UNL     1      -2.313  -2.671   5.492  0.00  0.00    +0.129 C 
ATOM     29  C   UNL     1      -0.151  -1.634   6.321  0.00  0.00    +0.129 C 
ENDBRANCH  24  27
ENDBRANCH   8  21
BRANCH   1  30
ATOM     30  S   UNL     1      -0.246   5.976   0.033  0.00  0.00    -0.083 S 
BRANCH  30  31
ATOM     31  C   UNL     1      -2.040   6.216   0.046  0.00  0.00    +0.112 C 
BRANCH  31  36
ATOM     32  C   UNL     1      -3.226  11.872   0.083  0.00  0.00    +0.044 C 
ATOM     33  C   UNL     1      -2.917  10.397   0.073  0.00  0.00    -0.050 A 
ATOM     34  C   UNL     1      -2.783   9.727  -1.128  0.00  0.00    +0.003 A 
ATOM     35  C   UNL     1      -2.499   8.374  -1.137  0.00  0.00    +0.005 A 
ATOM     36  C   UNL     1      -2.349   7.691   0.056  0.00  0.00    -0.037 A 
ATOM     37  C   UNL     1      -2.488   8.361   1.258  0.00  0.00    +0.005 A 
ATOM     38  C   UNL     1      -2.767   9.714   1.266  0.00  0.00    +0.003 A 
ENDBRANCH  31  36
ENDBRANCH  30  31
ENDBRANCH   1  30
TORSDOF 5
