REMARK  Name = ZINC15955664
REMARK  5 active torsions:
REMARK  status: ('A' for Active; 'I' for Inactive)
REMARK    1  A    between atoms: C_11  and  C_27
REMARK    2  A    between atoms: N_19  and  C_23
REMARK    3  A    between atoms: C_23  and  C_24
REMARK    4  A    between atoms: C_24  and  C_25
REMARK    5  A    between atoms: C_25  and  O_26
REMARK                            x       y       z     vdW  Elec       q    Type
REMARK                         _______ _______ _______ _____ _____    ______ ____
ROOT
ATOM      1  C   UNL     1       1.060  -4.444  -0.020  0.00  0.00    +0.001 A 
ATOM      2  C   UNL     1      -0.287  -4.521   0.295  0.00  0.00    +0.002 A 
ATOM      3  C   UNL     1      -1.078  -3.395   0.440  0.00  0.00    +0.026 A 
ATOM      4  C   UNL     1      -0.459  -2.161   0.252  0.00  0.00    +0.047 A 
ATOM      5  C   UNL     1       0.920  -2.087  -0.072  0.00  0.00    +0.003 A 
ATOM      6  C   UNL     1       1.696  -3.242  -0.211  0.00  0.00    +0.010 A 
ATOM      7  C   UNL     1       1.227  -0.677  -0.195  0.00  0.00    -0.015 A 
ATOM      8  C   UNL     1       0.084  -0.000   0.046  0.00  0.00    +0.046 A 
ATOM      9  N   UNL     1      -0.930  -0.881   0.317  0.00  0.00    -0.356 N 
ATOM     10  H   UNL     1      -1.845  -0.633   0.523  0.00  0.00    +0.166 HD
ATOM     11  C   UNL     1      -0.018   1.508   0.010  0.00  0.00    +0.154 C 
ATOM     12  N   UNL     1       1.358   2.044  -0.045  0.00  0.00    -0.276 N 
ATOM     13  C   UNL     1       2.300   1.414  -0.969  0.00  0.00    +0.167 C 
ATOM     14  C   UNL     1       2.551  -0.034  -0.523  0.00  0.00    +0.069 C 
ATOM     15  C   UNL     1       3.597   2.155  -1.020  0.00  0.00    +0.237 C 
ATOM     16  O   UNL     1       4.434   1.782  -1.813  0.00  0.00    -0.274 OA
ATOM     17  N   UNL     1       3.906   3.196  -0.272  0.00  0.00    -0.291 N 
ATOM     18  C   UNL     1       3.012   3.757   0.727  0.00  0.00    +0.203 C 
ATOM     19  C   UNL     1       1.685   3.071   0.742  0.00  0.00    +0.234 C 
ATOM     20  O   UNL     1       0.849   3.474   1.522  0.00  0.00    -0.274 OA
ENDROOT
BRANCH  11  21
ATOM     21  C   UNL     1      -0.711   2.003   1.253  0.00  0.00    -0.020 A 
ATOM     22  C   UNL     1      -1.783   2.870   1.148  0.00  0.00    +0.006 A 
ATOM     23  C   UNL     1      -2.419   3.325   2.288  0.00  0.00    +0.002 A 
ATOM     24  C   UNL     1      -1.984   2.914   3.534  0.00  0.00    +0.020 A 
ATOM     25  C   UNL     1      -0.912   2.046   3.640  0.00  0.00    +0.041 A 
ATOM     26  C   UNL     1      -0.279   1.587   2.498  0.00  0.00    +0.025 A 
ATOM     27 CL   UNL     1      -0.365   1.528   5.204  0.00  0.00    -0.084 Cl
ENDBRANCH  11  21
BRANCH  17  28
ATOM     28  C   UNL     1       5.222   3.816  -0.447  0.00  0.00    +0.110 C 
BRANCH  28  29
ATOM     29  C   UNL     1       6.231   3.142   0.485  0.00  0.00    +0.047 C 
BRANCH  29  30
ATOM     30  C   UNL     1       7.606   3.789   0.303  0.00  0.00    +0.157 C 
BRANCH  30  31
ATOM     31  O   UNL     1       8.548   3.160   1.173  0.00  0.00    -0.395 OA
ATOM     32  H   UNL     1       9.443   3.521   1.111  0.00  0.00    +0.209 HD
ENDBRANCH  30  31
ENDBRANCH  29  30
ENDBRANCH  28  29
ENDBRANCH  17  28
TORSDOF 5
