REMARK  Name = ZINC42996802
REMARK  8 active torsions:
REMARK  status: ('A' for Active; 'I' for Inactive)
REMARK    1  A    between atoms: C_1  and  C_2
REMARK    2  A    between atoms: C_2  and  C_3
REMARK    3  A    between atoms: C_2  and  C_4
REMARK    4  A    between atoms: C_4  and  C_6
REMARK    5  A    between atoms: C_4  and  S_17
REMARK    6  A    between atoms: S_17  and  C_18
REMARK    7  A    between atoms: C_21  and  C_25
REMARK    8  A    between atoms: C_22  and  N_24
REMARK                            x       y       z     vdW  Elec       q    Type
REMARK                         _______ _______ _______ _____ _____    ______ ____
ROOT
ATOM      1  C   UNL     1       0.823  -0.444   1.219  0.00  0.00    +0.143 C 
ENDROOT
BRANCH   1   2
ATOM      2  C   UNL     1       0.867  -1.933   0.992  0.00  0.00    +0.230 C 
ATOM      3  O   UNL     1       1.815  -2.432   0.423  0.00  0.00    -0.274 OA
ATOM      4  N   UNL     1      -0.146  -2.711   1.421  0.00  0.00    -0.296 N 
ATOM      5  C   UNL     1      -0.110  -4.166   1.211  0.00  0.00    +0.113 C 
ATOM      6  C   UNL     1      -0.040  -4.851   2.584  0.00  0.00    +0.061 C 
ATOM      7  C   UNL     1      -0.996  -4.170   3.509  0.00  0.00    -0.004 A 
ATOM      8  C   UNL     1      -1.586  -2.953   3.354  0.00  0.00    -0.020 A 
ATOM      9  C   UNL     1      -2.440  -2.537   4.374  0.00  0.00    +0.013 A 
ATOM     10  C   UNL     1      -2.652  -3.335   5.446  0.00  0.00    +0.046 A 
ATOM     11  S   UNL     1      -1.630  -4.748   5.060  0.00  0.00    -0.101 S 
ATOM     12  C   UNL     1      -1.299  -2.118   2.112  0.00  0.00    +0.143 C 
ENDBRANCH   1   2
BRANCH   1  14
ATOM     13  C   UNL     1      -0.228   1.696   0.473  0.00  0.00    +0.009 C 
ATOM     14  C   UNL     1      -0.073   0.206   0.163  0.00  0.00    +0.005 C 
ATOM     15  C   UNL     1       0.561   0.035  -1.219  0.00  0.00    +0.009 C 
ENDBRANCH   1  14
BRANCH   1  16
ATOM     16  S   UNL     1       2.499   0.237   1.092  0.00  0.00    -0.073 S 
BRANCH  16  17
ATOM     17  C   UNL     1       3.339  -0.435   2.488  0.00  0.00    +0.191 A 
ATOM     18  N   UNL     1       2.666  -1.208   3.333  0.00  0.00    -0.229 NA
ATOM     19  C   UNL     1       3.254  -1.733   4.392  0.00  0.00    +0.136 A 
ATOM     20  C   UNL     1       4.608  -1.466   4.622  0.00  0.00    +0.109 A 
ATOM     21  C   UNL     1       5.290  -0.640   3.701  0.00  0.00    +0.138 A 
ATOM     22  N   UNL     1       4.624  -0.157   2.659  0.00  0.00    -0.206 NA
BRANCH  21  23
ATOM     23  N   UNL     1       6.626  -0.344   3.879  0.00  0.00    -0.342 N 
ATOM     24  H   UNL     1       7.105  -0.704   4.641  0.00  0.00    +0.144 HD
ATOM     25  H   UNL     1       7.086   0.224   3.241  0.00  0.00    +0.144 HD
ENDBRANCH  21  23
BRANCH  20  26
ATOM     26  C   UNL     1       5.284  -2.015   5.758  0.00  0.00    +0.104 C 
ATOM     27  N   UNL     1       5.821  -2.451   6.660  0.00  0.00    -0.191 NA
ENDBRANCH  20  26
ENDBRANCH  16  17
ENDBRANCH   1  16
TORSDOF 6
