REMARK  Name = ZINC01934919
REMARK  7 active torsions:
REMARK  status: ('A' for Active; 'I' for Inactive)
REMARK    1  A    between atoms: C_1  and  C_2
REMARK    2  A    between atoms: C_9  and  N_14
REMARK    3  A    between atoms: C_10  and  C_11
REMARK    4  A    between atoms: C_15  and  C_17
REMARK    5  A    between atoms: C_18  and  C_19
REMARK    6  A    between atoms: C_22  and  O_26
REMARK    7  A    between atoms: O_26  and  C_27
REMARK                            x       y       z     vdW  Elec       q    Type
REMARK                         _______ _______ _______ _____ _____    ______ ____
ROOT
ATOM      1  C   UNL     1      -5.306  -0.902  -4.663  0.00  0.00    +0.008 C 
ATOM      2  C   UNL     1      -4.351  -0.675  -3.489  0.00  0.00    -0.009 C 
ATOM      3  C   UNL     1      -3.685   0.698  -3.627  0.00  0.00    +0.008 C 
ATOM      4  C   UNL     1      -2.555   0.833  -2.605  0.00  0.00    +0.037 C 
ATOM      5  C   UNL     1      -3.100   0.495  -1.223  0.00  0.00    -0.023 A 
ATOM      6  C   UNL     1      -4.253  -0.194  -1.079  0.00  0.00    -0.004 A 
ATOM      7  S   UNL     1      -4.477  -0.342   0.671  0.00  0.00    -0.077 S 
ATOM      8  C   UNL     1      -3.057   0.494   1.206  0.00  0.00    +0.085 A 
ATOM      9  C   UNL     1      -2.447   0.874   0.018  0.00  0.00    +0.068 A 
ATOM     10  C   UNL     1      -5.137  -0.714  -2.171  0.00  0.00    +0.046 C 
ENDROOT
BRANCH   9  11
ATOM     11  C   UNL     1      -1.187   1.624   0.017  0.00  0.00    +0.244 C 
ATOM     12  O   UNL     1      -1.204   2.841   0.023  0.00  0.00    -0.270 OA
ATOM     13  N   UNL     1      -0.011   0.966   0.007  0.00  0.00    -0.325 N 
ATOM     14  H   UNL     1       0.934   1.529   0.006  0.00  0.00    +0.145 HD
ATOM     15  H   UNL     1       0.004  -0.134   0.001  0.00  0.00    +0.145 HD
ENDBRANCH   9  11
BRANCH   8  16
ATOM     16  N   UNL     1      -2.634   0.728   2.504  0.00  0.00    -0.276 N 
ATOM     17  C   UNL     1      -3.365   0.278   3.543  0.00  0.00    +0.241 C 
ATOM     18  O   UNL     1      -4.398  -0.335   3.340  0.00  0.00    -0.270 OA
ATOM     19  H   UNL     1      -1.701   1.282   2.687  0.00  0.00    +0.156 HD
BRANCH  17  20
ATOM     20  C   UNL     1      -2.919   0.525   4.912  0.00  0.00    +0.068 C 
ATOM     21  C   UNL     1      -3.652   0.074   5.953  0.00  0.00    +0.013 C 
BRANCH  21  22
ATOM     22  C   UNL     1      -3.203   0.323   7.330  0.00  0.00    -0.024 A 
ATOM     23  C   UNL     1      -2.014   1.022   7.566  0.00  0.00    +0.011 A 
ATOM     24  C   UNL     1      -1.601   1.257   8.858  0.00  0.00    +0.047 A 
ATOM     25  C   UNL     1      -2.356   0.792   9.928  0.00  0.00    +0.134 A 
ATOM     26  C   UNL     1      -3.536   0.092   9.700  0.00  0.00    +0.060 A 
ATOM     27  C   UNL     1      -3.961  -0.144   8.411  0.00  0.00    +0.026 A 
ATOM     28 BR   UNL     1      -4.558  -0.538  11.161  0.00  0.00    -0.047 Br
BRANCH  25  29
ATOM     29  O   UNL     1      -1.941   1.022  11.200  0.00  0.00    -0.494 OA
ATOM     30  C   UNL     1      -0.721   1.747  11.363  0.00  0.00    +0.277 C 
ENDBRANCH  25  29
ENDBRANCH  21  22
ENDBRANCH  17  20
ENDBRANCH   8  16
TORSDOF 5
