REMARK  Name = ZINC35653234
REMARK  11 active torsions:
REMARK  status: ('A' for Active; 'I' for Inactive)
REMARK    1  A    between atoms: C_1  and  C_2
REMARK    2  A    between atoms: C_2  and  C_3
REMARK    3  A    between atoms: C_3  and  C_4
REMARK    4  A    between atoms: C_3  and  C_29
REMARK    5  A    between atoms: C_3  and  O_32
REMARK    6  A    between atoms: C_10  and  C_11
REMARK    7  A    between atoms: C_11  and  O_12
REMARK    8  A    between atoms: C_21  and  C_24
REMARK    9  A    between atoms: C_24  and  N_25
REMARK   10  A    between atoms: N_25  and  C_26
REMARK   11  A    between atoms: N_25  and  C_27
REMARK                            x       y       z     vdW  Elec       q    Type
REMARK                         _______ _______ _______ _____ _____    ______ ____
ROOT
ATOM      1  C   UNL     1      -1.313  -2.025   0.109  0.00  0.00    +0.007 C 
ATOM      2  C   UNL     1      -1.944  -2.711   1.155  0.00  0.00    +0.031 C 
ATOM      3  C   UNL     1      -1.869  -4.067   1.204  0.00  0.00    +0.046 C 
ATOM      4  N   UNL     1      -0.932  -4.709   0.375  0.00  0.00    -0.333 NA
ATOM      5  C   UNL     1      -0.465  -4.080  -0.769  0.00  0.00    +0.233 C 
ATOM      6  O   UNL     1       0.128  -4.784  -1.748  0.00  0.00    -0.272 OA
ATOM      7  C   UNL     1      -0.628  -2.723  -0.881  0.00  0.00    +0.045 C 
ATOM      8  C   UNL     1      -1.515  -6.022   0.067  0.00  0.00    +0.130 C 
ATOM      9  C   UNL     1      -2.322  -6.345   1.312  0.00  0.00    -0.004 A 
ATOM     10  C   UNL     1      -2.531  -5.116   1.985  0.00  0.00    +0.089 A 
ATOM     11  N   UNL     1      -3.225  -5.064   3.116  0.00  0.00    -0.245 NA
ATOM     12  C   UNL     1      -3.742  -6.156   3.663  0.00  0.00    +0.072 A 
ATOM     13  C   UNL     1      -4.483  -6.099   4.864  0.00  0.00    +0.032 C 
ATOM     14  C   UNL     1      -4.995  -7.234   5.396  0.00  0.00    +0.053 C 
ATOM     15  C   UNL     1      -4.809  -8.488   4.779  0.00  0.00    +0.184 C 
ATOM     16  C   UNL     1      -4.089  -8.602   3.593  0.00  0.00    +0.022 C 
ATOM     17  C   UNL     1      -3.547  -7.456   3.012  0.00  0.00    +0.009 A 
ATOM     18  C   UNL     1      -2.811  -7.506   1.808  0.00  0.00    +0.017 A 
ATOM     19  O   UNL     1      -5.330  -9.582   5.340  0.00  0.00    -0.288 OA
ATOM     20  H   UNL     1      -0.125  -4.903   0.949  0.00  0.00    +0.135 HD
ENDROOT
BRANCH   1  21
ATOM     21  C   UNL     1      -1.382  -0.521   0.053  0.00  0.00    +0.192 C 
BRANCH  21  22
ATOM     22  C   UNL     1      -0.049   0.059   0.453  0.00  0.00    +0.391 C 
ATOM     23  O   UNL     1       0.453  -0.249   1.520  0.00  0.00    -0.243 OA
ATOM     24  O   UNL     1       0.526   0.835  -0.290  0.00  0.00    -0.243 OA
ENDBRANCH  21  22
BRANCH  21  26
ATOM     25  C   UNL     1      -2.479   1.507   1.016  0.00  0.00    +0.007 C 
ATOM     26  C   UNL     1      -2.463  -0.023   1.014  0.00  0.00    +0.048 C 
ENDBRANCH  21  26
BRANCH  21  27
ATOM     27  O   UNL     1      -1.700  -0.108  -1.278  0.00  0.00    -0.373 OA
ATOM     28  H   UNL     1      -2.547  -0.445  -1.602  0.00  0.00    +0.211 HD
ENDBRANCH  21  27
ENDBRANCH   1  21
BRANCH   7  29
ATOM     29  C   UNL     1      -0.062  -1.989  -2.070  0.00  0.00    +0.196 C 
BRANCH  29  30
ATOM     30  O   UNL     1       0.718  -2.889  -2.859  0.00  0.00    -0.390 OA
ATOM     31  H   UNL     1       1.113  -2.484  -3.643  0.00  0.00    +0.210 HD
ENDBRANCH  29  30
ENDBRANCH   7  29
BRANCH  16  32
ATOM     32  C   UNL     1      -3.898  -9.949   2.945  0.00  0.00    +0.123 C 
BRANCH  32  33
ATOM     33  N   UNL     1      -5.001 -10.203   2.009  0.00  0.00    -0.304 NA
ATOM     34  C   UNL     1      -4.731 -11.389   1.186  0.00  0.00    +0.104 C 
ATOM     35  C   UNL     1      -6.278 -10.337   2.724  0.00  0.00    +0.104 C 
ENDBRANCH  32  33
ENDBRANCH  16  32
TORSDOF 8
