REMARK  Name = ZINC06161895
REMARK  5 active torsions:
REMARK  status: ('A' for Active; 'I' for Inactive)
REMARK    1  A    between atoms: C_4  and  S_8
REMARK    2  A    between atoms: S_8  and  N_11
REMARK    3  A    between atoms: C_15  and  C_18
REMARK    4  A    between atoms: N_27  and  C_28
REMARK    5  A    between atoms: C_28  and  C_29
REMARK                            x       y       z     vdW  Elec       q    Type
REMARK                         _______ _______ _______ _____ _____    ______ ____
ROOT
ATOM      1  C   UNL     1       2.155  -4.540   2.891  0.00  0.00    +0.140 A 
ATOM      2  N   UNL     1       0.878  -4.840   2.800  0.00  0.00    -0.211 NA
ATOM      3  C   UNL     1       0.461  -6.090   2.979  0.00  0.00    +0.186 A 
ATOM      4  C   UNL     1       1.406  -7.092   3.266  0.00  0.00    +0.197 A 
ATOM      5  C   UNL     1       2.760  -6.719   3.351  0.00  0.00    +0.303 A 
ATOM      6  N   UNL     1       3.079  -5.447   3.153  0.00  0.00    -0.192 NA
ATOM      7  O   UNL     1       3.716  -7.638   3.625  0.00  0.00    -0.263 OA
ATOM      8  N   UNL     1       0.744  -8.255   3.401  0.00  0.00    -0.122 NA
ATOM      9  N   UNL     1      -0.518  -8.069   3.226  0.00  0.00    -0.063 NA
ATOM     10  N   UNL     1      -0.755  -6.713   2.954  0.00  0.00    -0.222 N 
ENDROOT
BRANCH   1  15
ATOM     11  N   UNL     1       4.055  -1.658   1.387  0.00  0.00    -0.176 NA
ATOM     12  C   UNL     1       4.665  -1.033   2.568  0.00  0.00    +0.109 C 
ATOM     13  C   UNL     1       3.685  -1.132   3.740  0.00  0.00    +0.018 C 
ATOM     14  C   UNL     1       3.281  -2.595   3.941  0.00  0.00    +0.014 C 
ATOM     15  C   UNL     1       2.582  -3.110   2.680  0.00  0.00    +0.073 C 
ATOM     16  C   UNL     1       3.545  -3.031   1.498  0.00  0.00    +0.120 C 
BRANCH  11  17
ATOM     17  S   UNL     1       3.938  -0.827  -0.042  0.00  0.00    +0.064 S 
ATOM     18  O   UNL     1       3.846  -1.802  -1.072  0.00  0.00    -0.153 OA
ATOM     19  O   UNL     1       4.956   0.164  -0.019  0.00  0.00    -0.153 OA
BRANCH  17  23
ATOM     20  C   UNL     1      -0.017   1.377   0.010  0.00  0.00    +0.003 A 
ATOM     21  C   UNL     1       1.171   2.086   0.002  0.00  0.00    +0.002 A 
ATOM     22  C   UNL     1       2.378   1.413  -0.013  0.00  0.00    +0.031 A 
ATOM     23  C   UNL     1       2.399   0.030  -0.021  0.00  0.00    +0.140 A 
ATOM     24  C   UNL     1       1.211  -0.679  -0.013  0.00  0.00    +0.150 A 
ATOM     25  C   UNL     1       0.002  -0.004   0.002  0.00  0.00    +0.040 A 
ATOM     26  F   UNL     1       1.230  -2.030  -0.022  0.00  0.00    -0.203 F 
ENDBRANCH  17  23
ENDBRANCH  11  17
ENDBRANCH   1  15
BRANCH  10  27
ATOM     27  C   UNL     1      -2.054  -6.087   2.695  0.00  0.00    +0.182 C 
BRANCH  27  28
ATOM     28  C   UNL     1      -2.343  -6.123   1.217  0.00  0.00    -0.026 A 
ATOM     29  C   UNL     1      -1.933  -5.080   0.407  0.00  0.00    +0.008 A 
ATOM     30  C   UNL     1      -2.196  -5.113  -0.949  0.00  0.00    +0.038 A 
ATOM     31  C   UNL     1      -2.873  -6.190  -1.497  0.00  0.00    +0.123 A 
ATOM     32  C   UNL     1      -3.284  -7.234  -0.685  0.00  0.00    +0.038 A 
ATOM     33  C   UNL     1      -3.014  -7.201   0.670  0.00  0.00    +0.008 A 
ATOM     34  F   UNL     1      -3.132  -6.222  -2.822  0.00  0.00    -0.205 F 
ENDBRANCH  27  28
ENDBRANCH  10  27
TORSDOF 5
