REMARK  Name = ZINC19522700
REMARK  8 active torsions:
REMARK  status: ('A' for Active; 'I' for Inactive)
REMARK    1  A    between atoms: C_1  and  C_2
REMARK    2  A    between atoms: C_2  and  C_3
REMARK    3  A    between atoms: C_5  and  C_8
REMARK    4  A    between atoms: C_13  and  C_16
REMARK    5  A    between atoms: C_21  and  C_30
REMARK    6  A    between atoms: C_24  and  C_27
REMARK    7  A    between atoms: C_27  and  C_28
REMARK    8  A    between atoms: C_27  and  C_29
REMARK                            x       y       z     vdW  Elec       q    Type
REMARK                         _______ _______ _______ _____ _____    ______ ____
ROOT
ATOM      1  C   UNL     1      -2.289   7.069  -0.099  0.00  0.00    +0.070 A 
ATOM      2  C   UNL     1      -2.882   7.235   1.159  0.00  0.00    +0.068 A 
ATOM      3  C   UNL     1      -3.441   8.465   1.189  0.00  0.00    +0.118 A 
ATOM      4  N   UNL     1      -3.210   9.058  -0.012  0.00  0.00    -0.239 N 
ATOM      5  N   UNL     1      -2.482   8.164  -0.795  0.00  0.00    -0.174 NA
ATOM      6  C   UNL     1      -3.671  10.406  -0.357  0.00  0.00    +0.214 C 
ATOM      7  C   UNL     1      -4.803  10.803   0.598  0.00  0.00    +0.058 C 
ATOM      8  C   UNL     1      -4.377  10.546   2.047  0.00  0.00    +0.077 C 
ATOM      9  N   UNL     1      -4.142   9.098   2.217  0.00  0.00    -0.326 N 
ATOM     10  H   UNL     1      -4.513   8.582   3.115  0.00  0.00    +0.148 HD
ENDROOT
BRANCH   1  16
ATOM     11  C   UNL     1      -1.207   2.235   0.020  0.00  0.00    +0.285 C 
ATOM     12  O   UNL     1      -2.320   1.743   0.023  0.00  0.00    -0.267 OA
ATOM     13  N   UNL     1      -1.063   3.574   0.027  0.00  0.00    -0.294 N 
ATOM     14  C   UNL     1       0.217   4.298   0.031  0.00  0.00    +0.109 C 
ATOM     15  C   UNL     1      -0.109   5.806   0.008  0.00  0.00    +0.030 C 
ATOM     16  C   UNL     1      -1.548   5.844  -0.570  0.00  0.00    +0.058 C 
ATOM     17  C   UNL     1      -2.161   4.557   0.038  0.00  0.00    +0.118 C 
BRANCH  11  20
ATOM     18  C   UNL     1       1.378  -0.323  -0.013  0.00  0.00    +0.084 A 
ATOM     19  C   UNL     1       0.002  -0.004   0.002  0.00  0.00    +0.081 A 
ATOM     20  C   UNL     1      -0.017   1.364   0.009  0.00  0.00    +0.222 A 
ATOM     21  O   UNL     1       1.272   1.755  -0.001  0.00  0.00    -0.350 OA
ATOM     22  N   UNL     1       2.022   0.807  -0.013  0.00  0.00    -0.082 NA
BRANCH  18  24
ATOM     23  C   UNL     1       2.933  -1.833  -1.218  0.00  0.00    +0.010 C 
ATOM     24  C   UNL     1       1.982  -1.704  -0.026  0.00  0.00    +0.055 C 
ENDBRANCH  18  24
ENDBRANCH  11  20
ENDBRANCH   1  16
BRANCH   6  25
ATOM     25  C   UNL     1      -4.186  10.418  -1.797  0.00  0.00    +0.412 C 
ATOM     26  F   UNL     1      -5.250   9.518  -1.919  0.00  0.00    -0.168 F 
ATOM     27  F   UNL     1      -4.626  11.706  -2.124  0.00  0.00    -0.168 F 
ATOM     28  F   UNL     1      -3.155  10.043  -2.665  0.00  0.00    -0.168 F 
ENDBRANCH   6  25
BRANCH   8  29
ATOM     29  C   UNL     1      -5.486  11.002   2.998  0.00  0.00    +0.003 C 
ATOM     30  C   UNL     1      -5.057  10.743   4.443  0.00  0.00    +0.009 C 
ATOM     31  C   UNL     1      -5.743  12.497   2.801  0.00  0.00    +0.009 C 
ENDBRANCH   8  29
TORSDOF 5
