REMARK  Name = ZINC22325190
REMARK  11 active torsions:
REMARK  status: ('A' for Active; 'I' for Inactive)
REMARK    1  A    between atoms: C_1  and  C_2
REMARK    2  A    between atoms: C_5  and  C_33
REMARK    3  A    between atoms: N_8  and  C_10
REMARK    4  A    between atoms: C_10  and  C_11
REMARK    5  A    between atoms: N_16  and  C_17
REMARK    6  A    between atoms: C_17  and  C_19
REMARK    7  A    between atoms: C_22  and  C_25
REMARK    8  A    between atoms: C_25  and  N_26
REMARK    9  A    between atoms: N_29  and  C_30
REMARK   10  A    between atoms: C_30  and  C_31
REMARK   11  A    between atoms: C_30  and  C_32
REMARK                            x       y       z     vdW  Elec       q    Type
REMARK                         _______ _______ _______ _____ _____    ______ ____
ROOT
ATOM      1  C   UNL     1       7.187  -1.898   0.314  0.00  0.00    +0.269 C 
ATOM      2  O   UNL     1       7.467  -1.122   1.212  0.00  0.00    -0.268 OA
ENDROOT
BRANCH   1   8
ATOM      3  C   UNL     1       2.971  -2.034   2.241  0.00  0.00    +0.008 A 
ATOM      4  C   UNL     1       3.536  -1.180   3.102  0.00  0.00    +0.067 A 
ATOM      5  S   UNL     1       5.192  -1.044   2.455  0.00  0.00    -0.061 S 
ATOM      6  C   UNL     1       5.039  -2.083   1.142  0.00  0.00    +0.163 A 
ATOM      7  N   UNL     1       3.749  -2.507   1.231  0.00  0.00    -0.341 N 
ATOM      8  N   UNL     1       5.959  -2.415   0.238  0.00  0.00    -0.152 NA
ATOM      9  H   UNL     1       3.389  -3.132   0.582  0.00  0.00    +0.167 HD
BRANCH   3  10
ATOM     10  C   UNL     1       1.534  -2.461   2.390  0.00  0.00    -0.024 C 
BRANCH  10  16
ATOM     11  C   UNL     1      -0.019   1.526   0.010  0.00  0.00    +0.005 C 
ATOM     12  C   UNL     1       0.002  -0.004   0.002  0.00  0.00    -0.031 C 
ATOM     13  C   UNL     1      -1.434  -0.535   0.015  0.00  0.00    +0.003 C 
ATOM     14  C   UNL     1      -1.402  -2.064   0.086  0.00  0.00    -0.031 C 
ATOM     15  C   UNL     1      -0.613  -2.496   1.324  0.00  0.00    -0.075 C 
ATOM     16  N   UNL     1       0.758  -1.980   1.239  0.00  0.00    +0.384 N 
ATOM     17  C   UNL     1       0.740  -0.512   1.242  0.00  0.00    -0.075 C 
ATOM     18  C   UNL     1      -0.728  -2.620  -1.170  0.00  0.00    +0.005 C 
ATOM     19  H   UNL     1       1.188  -2.307   0.386  0.00  0.00    -0.081 HD
ENDBRANCH  10  16
ENDBRANCH   3  10
ENDBRANCH   1   8
BRANCH   1  20
ATOM     20  C   UNL     1       8.210  -2.267  -0.692  0.00  0.00    +0.039 A 
ATOM     21  C   UNL     1       7.891  -3.150  -1.723  0.00  0.00    +0.013 A 
ATOM     22  C   UNL     1       8.848  -3.490  -2.657  0.00  0.00    +0.006 A 
ATOM     23  C   UNL     1      10.122  -2.957  -2.571  0.00  0.00    -0.030 A 
ATOM     24  C   UNL     1      10.445  -2.080  -1.550  0.00  0.00    +0.006 A 
ATOM     25  C   UNL     1       9.494  -1.728  -0.614  0.00  0.00    +0.013 A 
BRANCH  23  26
ATOM     26  C   UNL     1      11.163  -3.333  -3.594  0.00  0.00    +0.141 C 
BRANCH  26  27
ATOM     27  N   UNL     1      11.109  -2.391  -4.715  0.00  0.00    -0.295 N 
ATOM     28  C   UNL     1      11.955  -2.533  -5.755  0.00  0.00    +0.300 C 
ATOM     29  O   UNL     1      12.762  -3.441  -5.763  0.00  0.00    -0.253 OA
ATOM     30  N   UNL     1      11.905  -1.666  -6.787  0.00  0.00    -0.297 N 
ATOM     31  H   UNL     1      10.465  -1.667  -4.709  0.00  0.00    +0.151 HD
ATOM     32  H   UNL     1      11.260  -0.942  -6.780  0.00  0.00    +0.150 HD
BRANCH  30  33
ATOM     33  C   UNL     1      12.824  -1.820  -7.917  0.00  0.00    +0.068 C 
ATOM     34  C   UNL     1      12.209  -1.182  -9.164  0.00  0.00    +0.027 C 
ATOM     35  C   UNL     1      14.150  -1.130  -7.593  0.00  0.00    +0.027 C 
ENDBRANCH  30  33
ENDBRANCH  26  27
ENDBRANCH  23  26
ENDBRANCH   1  20
TORSDOF 7
