REMARK  Name = ZINC22591611
REMARK  6 active torsions:
REMARK  status: ('A' for Active; 'I' for Inactive)
REMARK    1  A    between atoms: C_4  and  C_7
REMARK    2  A    between atoms: C_7  and  N_8
REMARK    3  A    between atoms: N_11  and  C_14
REMARK    4  A    between atoms: C_14  and  C_15
REMARK    5  A    between atoms: N_17  and  N_18
REMARK    6  A    between atoms: C_19  and  C_20
REMARK                            x       y       z     vdW  Elec       q    Type
REMARK                         _______ _______ _______ _____ _____    ______ ____
ROOT
ATOM      1  C   UNL     1      -2.585   2.722   0.342  0.00  0.00    +0.216 C 
ATOM      2  O   UNL     1      -3.771   2.888   0.537  0.00  0.00    -0.276 OA
ATOM      3  N   UNL     1      -2.104   1.481   0.128  0.00  0.00    -0.209 N 
ATOM      4  H   UNL     1      -1.029   1.331  -0.048  0.00  0.00    +0.177 HD
ENDROOT
BRANCH   3   5
ATOM      5  N   UNL     1      -2.974   0.383   0.131  0.00  0.00    -0.188 NA
ATOM      6  C   UNL     1      -2.500  -0.822   0.028  0.00  0.00    +0.140 C 
BRANCH   6   7
ATOM      7  C   UNL     1      -1.052  -1.056   0.155  0.00  0.00    +0.020 A 
ATOM      8  C   UNL     1      -0.159  -0.279   0.824  0.00  0.00    +0.093 A 
ATOM      9  N   UNL     1       1.089  -0.817   0.718  0.00  0.00    -0.360 N 
ATOM     10  H   UNL     1       1.945  -0.322   1.199  0.00  0.00    +0.165 HD
ATOM     11  C   UNL     1       1.047  -1.974  -0.032  0.00  0.00    +0.047 A 
ATOM     12  C   UNL     1      -0.288  -2.178  -0.418  0.00  0.00    +0.008 A 
ATOM     13  C   UNL     1      -0.629  -3.284  -1.193  0.00  0.00    +0.010 A 
ATOM     14  C   UNL     1       0.349  -4.175  -1.577  0.00  0.00    +0.001 A 
ATOM     15  C   UNL     1       1.668  -3.974  -1.197  0.00  0.00    +0.002 A 
ATOM     16  C   UNL     1       2.020  -2.885  -0.431  0.00  0.00    +0.026 A 
ENDBRANCH   6   7
ENDBRANCH   3   5
BRANCH   1  17
ATOM     17  C   UNL     1      -1.649   3.903   0.340  0.00  0.00    +0.020 C 
BRANCH  17  21
ATOM     18  N   UNL     1      -3.265   7.797   0.065  0.00  0.00    -0.302 NA
ATOM     19  C   UNL     1      -2.343   7.511   1.173  0.00  0.00    +0.066 C 
ATOM     20  C   UNL     1      -1.513   6.270   0.835  0.00  0.00    -0.063 C 
ATOM     21  N   UNL     1      -2.412   5.133   0.594  0.00  0.00    +0.387 N 
ATOM     22  C   UNL     1      -3.334   5.419  -0.513  0.00  0.00    -0.063 C 
ATOM     23  C   UNL     1      -4.164   6.660  -0.175  0.00  0.00    +0.066 C 
ATOM     24  H   UNL     1      -3.011   4.975   1.503  0.00  0.00    -0.081 HD
BRANCH  18  25
ATOM     25  C   UNL     1      -4.028   9.026   0.320  0.00  0.00    +0.119 C 
BRANCH  25  29
ATOM     26  C   UNL     1      -7.141   9.397  -2.582  0.00  0.00    +0.000 A 
ATOM     27  C   UNL     1      -7.378   8.729  -1.395  0.00  0.00    +0.000 A 
ATOM     28  C   UNL     1      -6.371   8.609  -0.457  0.00  0.00    +0.005 A 
ATOM     29  C   UNL     1      -5.126   9.157  -0.704  0.00  0.00    -0.033 A 
ATOM     30  C   UNL     1      -4.890   9.830  -1.888  0.00  0.00    +0.005 A 
ATOM     31  C   UNL     1      -5.896   9.946  -2.829  0.00  0.00    +0.000 A 
ENDBRANCH  25  29
ENDBRANCH  18  25
ENDBRANCH  17  21
ENDBRANCH   1  17
TORSDOF 6
