REMARK  Name = ZINC05660486
REMARK  6 active torsions:
REMARK  status: ('A' for Active; 'I' for Inactive)
REMARK    1  A    between atoms: C_1  and  O_2
REMARK    2  A    between atoms: O_2  and  C_3
REMARK    3  A    between atoms: C_3  and  C_5
REMARK    4  A    between atoms: C_9  and  N_10
REMARK    5  A    between atoms: N_13  and  N_14
REMARK    6  A    between atoms: C_15  and  C_16
REMARK                            x       y       z     vdW  Elec       q    Type
REMARK                         _______ _______ _______ _____ _____    ______ ____
ROOT
ATOM      1  C   UNL     1      -6.615  -0.596   0.029  0.00  0.00    +0.091 A 
ATOM      2  C   UNL     1      -8.043  -0.867   0.040  0.00  0.00    -0.021 A 
ATOM      3  C   UNL     1      -8.836   0.226   0.049  0.00  0.00    -0.004 A 
ATOM      4  S   UNL     1      -7.717   1.598   0.051  0.00  0.00    -0.077 S 
ATOM      5  C   UNL     1      -6.215   0.734   0.039  0.00  0.00    +0.088 A 
ATOM      6  C   UNL     1     -10.334   0.255   0.055  0.00  0.00    +0.043 C 
ATOM      7  C   UNL     1     -10.846  -1.141  -0.328  0.00  0.00    +0.005 C 
ATOM      8  C   UNL     1     -10.095  -2.187   0.499  0.00  0.00    +0.005 C 
ATOM      9  C   UNL     1      -8.639  -2.269   0.035  0.00  0.00    +0.037 C 
ENDROOT
BRANCH   5  10
ATOM     10  N   UNL     1      -4.928   1.246   0.035  0.00  0.00    -0.262 N 
ATOM     11  C   UNL     1      -4.733   2.580   0.041  0.00  0.00    +0.324 C 
ATOM     12  O   UNL     1      -5.687   3.334   0.050  0.00  0.00    -0.251 OA
ATOM     13  N   UNL     1      -3.481   3.078   0.037  0.00  0.00    -0.191 N 
ATOM     14  H   UNL     1      -4.167   0.645   0.028  0.00  0.00    +0.157 HD
ATOM     15  H   UNL     1      -3.341   4.038   0.041  0.00  0.00    +0.179 HD
BRANCH  13  16
ATOM     16  N   UNL     1      -2.381   2.210   0.026  0.00  0.00    -0.186 NA
ATOM     17  C   UNL     1      -1.173   2.690   0.022  0.00  0.00    +0.145 C 
BRANCH  17  18
ATOM     18  C   UNL     1      -0.022   1.781   0.012  0.00  0.00    +0.032 A 
ATOM     19  C   UNL     1       1.328   2.083   0.001  0.00  0.00    +0.017 A 
ATOM     20  C   UNL     1       2.230   1.045  -0.014  0.00  0.00    +0.008 A 
ATOM     21  C   UNL     1       1.772  -0.234  -0.016  0.00  0.00    +0.046 A 
ATOM     22  S   UNL     1       0.002  -0.004   0.002  0.00  0.00    -0.096 S 
ENDBRANCH  17  18
ENDBRANCH  13  16
ENDBRANCH   5  10
BRANCH   1  23
ATOM     23  C   UNL     1      -5.635  -1.683   0.011  0.00  0.00    +0.342 C 
ATOM     24  O   UNL     1      -5.221  -2.146   1.058  0.00  0.00    -0.245 OA
BRANCH  23  26
ATOM     25  C   UNL     1      -4.220  -3.251  -1.106  0.00  0.00    +0.280 C 
ATOM     26  O   UNL     1      -5.191  -2.173  -1.165  0.00  0.00    -0.464 OA
ENDBRANCH  23  26
ENDBRANCH   1  23
TORSDOF 5
