REMARK  Name = ZINC14239535
REMARK  11 active torsions:
REMARK  status: ('A' for Active; 'I' for Inactive)
REMARK    1  A    between atoms: C_1  and  C_2
REMARK    2  A    between atoms: C_2  and  N_3
REMARK    3  A    between atoms: N_3  and  C_4
REMARK    4  A    between atoms: N_3  and  S_6
REMARK    5  A    between atoms: C_4  and  C_5
REMARK    6  A    between atoms: S_6  and  C_9
REMARK    7  A    between atoms: C_12  and  O_31
REMARK    8  A    between atoms: C_13  and  N_15
REMARK    9  A    between atoms: C_16  and  C_18
REMARK   10  A    between atoms: C_18  and  N_19
REMARK   11  A    between atoms: C_20  and  C_26
REMARK                            x       y       z     vdW  Elec       q    Type
REMARK                         _______ _______ _______ _____ _____    ______ ____
ROOT
ATOM      1  N   UNL     1      -0.288   1.272  -2.443  0.00  0.00    -0.281 N 
ATOM      2  C   UNL     1      -0.314   1.989  -1.302  0.00  0.00    +0.237 C 
ATOM      3  O   UNL     1      -0.916   3.042  -1.261  0.00  0.00    -0.274 OA
ATOM      4  H   UNL     1       0.258   0.473  -2.501  0.00  0.00    +0.155 HD
ENDROOT
BRANCH   1   9
ATOM      5  C   UNL     1      -2.930   2.868  -4.447  0.00  0.00    +0.107 A 
ATOM      6  C   UNL     1      -2.558   2.491  -5.724  0.00  0.00    +0.032 A 
ATOM      7  C   UNL     1      -1.434   1.710  -5.919  0.00  0.00    +0.049 A 
ATOM      8  C   UNL     1      -0.677   1.302  -4.832  0.00  0.00    +0.138 A 
ATOM      9  C   UNL     1      -1.051   1.682  -3.545  0.00  0.00    +0.077 A 
ATOM     10  C   UNL     1      -2.182   2.462  -3.357  0.00  0.00    +0.055 A 
BRANCH   5  11
ATOM     11  S   UNL     1      -4.363   3.864  -4.206  0.00  0.00    +0.061 S 
ATOM     12  O   UNL     1      -4.189   4.535  -2.966  0.00  0.00    -0.153 OA
ATOM     13  O   UNL     1      -4.582   4.561  -5.425  0.00  0.00    -0.153 OA
BRANCH  11  14
ATOM     14  N   UNL     1      -5.647   2.836  -4.012  0.00  0.00    -0.177 NA
BRANCH  14  16
ATOM     15  C   UNL     1      -7.115   3.264  -2.104  0.00  0.00    +0.022 C 
ATOM     16  C   UNL     1      -6.014   2.368  -2.673  0.00  0.00    +0.106 C 
ENDBRANCH  14  16
BRANCH  14  17
ATOM     17  C   UNL     1      -6.415   2.395  -5.179  0.00  0.00    +0.106 C 
ATOM     18  C   UNL     1      -5.878   1.047  -5.663  0.00  0.00    +0.022 C 
ENDBRANCH  14  17
ENDBRANCH  11  14
ENDBRANCH   5  11
BRANCH   8  19
ATOM     19  O   UNL     1       0.428   0.533  -5.022  0.00  0.00    -0.505 OA
ATOM     20  H   UNL     1       0.253  -0.418  -5.006  0.00  0.00    +0.292 HD
ENDBRANCH   8  19
ENDBRANCH   1   9
BRANCH   2  21
ATOM     21  C   UNL     1       0.405   1.484  -0.078  0.00  0.00    +0.221 C 
BRANCH  21  22
ATOM     22  N   UNL     1       0.226   2.436   1.021  0.00  0.00    -0.294 N 
ATOM     23  C   UNL     1      -0.798   2.420   1.948  0.00  0.00    +0.170 A 
ATOM     24  N   UNL     1      -0.627   3.419   2.772  0.00  0.00    -0.153 NA
ATOM     25  N   UNL     1       0.530   4.108   2.383  0.00  0.00    -0.254 N 
ATOM     26  H   UNL     1       0.901   4.894   2.813  0.00  0.00    +0.191 HD
ATOM     27  C   UNL     1       1.037   3.475   1.305  0.00  0.00    +0.176 A 
ATOM     28  S   UNL     1       2.452   3.915   0.448  0.00  0.00    -0.011 S 
BRANCH  23  29
ATOM     29  C   UNL     1      -1.897   1.441   2.000  0.00  0.00    +0.056 A 
ATOM     30  C   UNL     1      -2.778   1.183   3.019  0.00  0.00    +0.019 A 
ATOM     31  C   UNL     1      -3.734   0.209   2.836  0.00  0.00    +0.008 A 
ATOM     32  C   UNL     1      -3.776  -0.464   1.657  0.00  0.00    +0.046 A 
ATOM     33  S   UNL     1      -2.435   0.287   0.748  0.00  0.00    -0.094 S 
ENDBRANCH  23  29
ENDBRANCH  21  22
ENDBRANCH   2  21
TORSDOF 9
