REMARK  Name = ZINC64609612
REMARK  12 active torsions:
REMARK  status: ('A' for Active; 'I' for Inactive)
REMARK    1  A    between atoms: C_1  and  C_2
REMARK    2  A    between atoms: C_10  and  C_12
REMARK    3  A    between atoms: N_14  and  C_15
REMARK    4  A    between atoms: N_14  and  C_31
REMARK    5  A    between atoms: C_15  and  C_16
REMARK    6  A    between atoms: C_19  and  O_29
REMARK    7  A    between atoms: C_20  and  O_22
REMARK    8  A    between atoms: O_22  and  C_23
REMARK    9  A    between atoms: C_23  and  C_24
REMARK   10  A    between atoms: C_24  and  C_28
REMARK   11  A    between atoms: O_29  and  C_30
REMARK   12  A    between atoms: C_31  and  C_32
REMARK                            x       y       z     vdW  Elec       q    Type
REMARK                         _______ _______ _______ _____ _____    ______ ____
ROOT
ATOM      1  C   UNL     1      -1.247  -0.503   2.228  0.00  0.00    +0.243 C 
ATOM      2  O   UNL     1      -2.226  -1.200   2.392  0.00  0.00    -0.273 OA
ATOM      3  N   UNL     1      -1.107   0.639   2.930  0.00  0.00    -0.293 N 
ENDROOT
BRANCH   1  13
ATOM      4  C   UNL     1      -1.308   0.297  -0.900  0.00  0.00    +0.042 C 
ATOM      5  C   UNL     1      -0.747  -0.894  -0.166  0.00  0.00    -0.033 C 
ATOM      6  C   UNL     1      -0.638  -2.159  -0.631  0.00  0.00    +0.001 A 
ATOM      7  C   UNL     1      -0.996  -2.781  -1.911  0.00  0.00    +0.030 A 
ATOM      8  C   UNL     1      -0.761  -4.103  -2.087  0.00  0.00    +0.042 A 
ATOM      9  C   UNL     1      -0.186  -4.890  -1.078  0.00  0.00    +0.022 A 
ATOM     10  C   UNL     1       0.169  -4.389   0.124  0.00  0.00    +0.027 A 
ATOM     11  C   UNL     1      -0.032  -3.011   0.417  0.00  0.00    +0.043 A 
ATOM     12  N   UNL     1       0.223  -2.301   1.488  0.00  0.00    -0.370 N 
ATOM     13  C   UNL     1      -0.186  -0.914   1.239  0.00  0.00    +0.193 C 
ATOM     14 CL   UNL     1      -1.183  -4.843  -3.600  0.00  0.00    -0.084 Cl
ATOM     15  H   UNL     1       0.620  -2.635   2.308  0.00  0.00    +0.161 HD
ENDBRANCH   1  13
BRANCH   3  16
ATOM     16  C   UNL     1      -2.090   0.992   3.957  0.00  0.00    +0.143 C 
BRANCH  16  17
ATOM     17  C   UNL     1      -1.657   0.420   5.283  0.00  0.00    -0.026 A 
ATOM     18  C   UNL     1      -2.063  -0.849   5.652  0.00  0.00    +0.009 A 
ATOM     19  C   UNL     1      -1.669  -1.378   6.867  0.00  0.00    +0.050 A 
ATOM     20  C   UNL     1      -0.866  -0.635   7.718  0.00  0.00    +0.162 A 
ATOM     21  C   UNL     1      -0.458   0.642   7.347  0.00  0.00    +0.162 A 
ATOM     22  C   UNL     1      -0.852   1.164   6.125  0.00  0.00    +0.054 A 
BRANCH  20  23
ATOM     23  O   UNL     1      -0.478  -1.154   8.914  0.00  0.00    -0.491 OA
ATOM     24  C   UNL     1      -0.936  -2.470   9.229  0.00  0.00    +0.277 C 
ENDBRANCH  20  23
BRANCH  21  25
ATOM     25  O   UNL     1       0.330   1.375   8.179  0.00  0.00    -0.488 OA
BRANCH  25  26
ATOM     26  C   UNL     1       0.710   2.678   7.732  0.00  0.00    +0.240 C 
BRANCH  26  27
ATOM     27  C   UNL     1       1.588   3.345   8.792  0.00  0.00    +0.049 C 
ATOM     28  C   UNL     1       0.791   4.033   9.916  0.00  0.00    +0.172 C 
ATOM     29  O   UNL     1       1.737   5.112   9.773  0.00  0.00    -0.378 OA
ATOM     30  C   UNL     1       2.057   4.761   8.411  0.00  0.00    +0.172 C 
ATOM     31  C   UNL     1       2.712   2.437   9.295  0.00  0.00    +0.019 C 
ENDBRANCH  26  27
ENDBRANCH  25  26
ENDBRANCH  21  25
ENDBRANCH  16  17
ENDBRANCH   3  16
BRANCH   3  32
ATOM     32  C   UNL     1       0.028   1.527   2.665  0.00  0.00    +0.139 C 
BRANCH  32  33
ATOM     33  C   UNL     1      -0.316   2.462   1.503  0.00  0.00    +0.136 C 
ATOM     34  C   UNL     1       0.905   3.343   1.162  0.00  0.00    +0.035 C 
ATOM     35  C   UNL     1       0.245   4.715   0.855  0.00  0.00    +0.031 C 
ATOM     36  C   UNL     1      -0.943   4.699   1.850  0.00  0.00    +0.160 C 
ATOM     37  O   UNL     1      -1.389   3.332   1.881  0.00  0.00    -0.375 OA
ENDBRANCH  32  33
ENDBRANCH   3  32
TORSDOF 9
