REMARK  Name = ZINC58847559
REMARK  8 active torsions:
REMARK  status: ('A' for Active; 'I' for Inactive)
REMARK    1  A    between atoms: C_1  and  O_2
REMARK    2  A    between atoms: O_2  and  C_3
REMARK    3  A    between atoms: C_6  and  O_36
REMARK    4  A    between atoms: C_7  and  C_9
REMARK    5  A    between atoms: C_20  and  S_25
REMARK    6  A    between atoms: S_25  and  N_28
REMARK    7  A    between atoms: N_28  and  C_29
REMARK    8  A    between atoms: O_36  and  C_37
REMARK                            x       y       z     vdW  Elec       q    Type
REMARK                         _______ _______ _______ _____ _____    ______ ____
ROOT
ATOM      1  C   UNL     1      -2.400  -5.978  -4.045  0.00  0.00    +0.109 C 
ATOM      2  C   UNL     1      -2.745  -5.425  -2.694  0.00  0.00    +0.029 C 
ATOM      3  C   UNL     1      -1.943  -4.151  -2.360  0.00  0.00    +0.033 C 
ATOM      4  C   UNL     1      -1.866  -4.158  -0.847  0.00  0.00    -0.030 C 
ATOM      5  C   UNL     1      -2.137  -5.346  -0.372  0.00  0.00    -0.023 C 
ATOM      6  C   UNL     1      -2.404  -6.312  -1.500  0.00  0.00    +0.049 C 
ATOM      7  C   UNL     1      -1.163  -7.134  -1.710  0.00  0.00    -0.018 A 
ATOM      8  C   UNL     1      -0.581  -7.740  -0.606  0.00  0.00    +0.034 A 
ATOM      9  C   UNL     1       0.566  -8.496  -0.746  0.00  0.00    +0.109 A 
ATOM     10  C   UNL     1       1.145  -8.655  -1.992  0.00  0.00    +0.030 A 
ATOM     11  C   UNL     1       0.570  -8.059  -3.096  0.00  0.00    +0.025 A 
ATOM     12  C   UNL     1      -0.590  -7.301  -2.957  0.00  0.00    +0.031 A 
ATOM     13  N   UNL     1      -1.177  -6.752  -4.081  0.00  0.00    -0.336 N 
ATOM     14  H   UNL     1      -0.728  -6.872  -4.933  0.00  0.00    +0.147 HD
ENDROOT
BRANCH   1  19
ATOM     15  C   UNL     1      -0.889  -3.326  -6.273  0.00  0.00    +0.121 A 
ATOM     16  C   UNL     1      -2.024  -2.714  -6.785  0.00  0.00    +0.049 A 
ATOM     17  C   UNL     1      -3.276  -3.158  -6.410  0.00  0.00    +0.049 A 
ATOM     18  C   UNL     1      -3.400  -4.216  -5.521  0.00  0.00    +0.125 A 
ATOM     19  C   UNL     1      -2.265  -4.828  -5.010  0.00  0.00    +0.018 A 
ATOM     20  C   UNL     1      -1.012  -4.387  -5.389  0.00  0.00    +0.054 A 
BRANCH  15  22
ATOM     21  C   UNL     1       0.397  -1.791  -7.556  0.00  0.00    +0.277 C 
ATOM     22  O   UNL     1       0.345  -2.889  -6.643  0.00  0.00    -0.495 OA
ENDBRANCH  15  22
BRANCH  18  23
ATOM     23  O   UNL     1      -4.633  -4.653  -5.152  0.00  0.00    -0.495 OA
ATOM     24  C   UNL     1      -5.758  -3.977  -5.717  0.00  0.00    +0.277 C 
ENDBRANCH  18  23
ENDBRANCH   1  19
BRANCH   9  25
ATOM     25  S   UNL     1       1.293  -9.261   0.665  0.00  0.00    +0.072 S 
ATOM     26  O   UNL     1       2.688  -9.348   0.405  0.00  0.00    -0.150 OA
ATOM     27  O   UNL     1       0.771  -8.591   1.804  0.00  0.00    -0.150 OA
BRANCH  25  28
ATOM     28  N   UNL     1       0.726 -10.815   0.727  0.00  0.00    -0.216 N 
ATOM     29  H   UNL     1       1.341 -11.560   0.645  0.00  0.00    +0.174 HD
BRANCH  28  30
ATOM     30  C   UNL     1      -0.641 -11.053   0.897  0.00  0.00    +0.048 A 
ATOM     31  C   UNL     1      -1.229 -10.872   2.143  0.00  0.00    +0.026 A 
ATOM     32  C   UNL     1      -2.579 -11.108   2.308  0.00  0.00    +0.022 A 
ATOM     33  C   UNL     1      -3.347 -11.525   1.235  0.00  0.00    +0.041 A 
ATOM     34  C   UNL     1      -2.764 -11.706  -0.007  0.00  0.00    +0.022 A 
ATOM     35  C   UNL     1      -1.415 -11.466  -0.180  0.00  0.00    +0.026 A 
ATOM     36 CL   UNL     1      -5.044 -11.822   1.446  0.00  0.00    -0.084 Cl
ENDBRANCH  28  30
ENDBRANCH  25  28
ENDBRANCH   9  25
TORSDOF 6
