REMARK  Name = ZINC39944721
REMARK  9 active torsions:
REMARK  status: ('A' for Active; 'I' for Inactive)
REMARK    1  A    between atoms: C_4  and  C_7
REMARK    2  A    between atoms: C_7  and  C_8
REMARK    3  A    between atoms: N_11  and  S_14
REMARK    4  A    between atoms: S_14  and  C_17
REMARK    5  A    between atoms: C_21  and  C_23
REMARK    6  A    between atoms: C_23  and  O_25
REMARK    7  A    between atoms: O_25  and  C_26
REMARK    8  A    between atoms: C_26  and  C_27
REMARK    9  A    between atoms: C_27  and  C_29
REMARK                            x       y       z     vdW  Elec       q    Type
REMARK                         _______ _______ _______ _____ _____    ______ ____
ROOT
ATOM      1  C   UNL     1       7.280  -1.043   5.971  0.00  0.00    +0.106 A 
ATOM      2  C   UNL     1       6.747  -0.228   6.955  0.00  0.00    +0.028 A 
ATOM      3  C   UNL     1       6.627  -0.689   8.254  0.00  0.00    +0.003 A 
ATOM      4  C   UNL     1       7.039  -1.965   8.577  0.00  0.00    +0.015 A 
ATOM      5  C   UNL     1       7.578  -2.793   7.590  0.00  0.00    +0.061 A 
ATOM      6  C   UNL     1       7.690  -2.323   6.279  0.00  0.00    +0.043 A 
ENDROOT
BRANCH   1   7
ATOM      7  S   UNL     1       7.429  -0.446   4.320  0.00  0.00    +0.061 S 
ATOM      8  O   UNL     1       8.456  -1.210   3.703  0.00  0.00    -0.153 OA
ATOM      9  O   UNL     1       7.480   0.971   4.404  0.00  0.00    -0.153 OA
BRANCH   7  13
ATOM     10  C   UNL     1       4.171  -0.963   1.399  0.00  0.00    -0.004 C 
ATOM     11  C   UNL     1       4.462   0.372   2.087  0.00  0.00    +0.021 C 
ATOM     12  C   UNL     1       4.889   0.114   3.535  0.00  0.00    +0.110 C 
ATOM     13  N   UNL     1       6.021  -0.823   3.534  0.00  0.00    -0.177 NA
ATOM     14  C   UNL     1       5.879  -2.101   2.823  0.00  0.00    +0.110 C 
ATOM     15  C   UNL     1       5.441  -1.818   1.383  0.00  0.00    +0.021 C 
BRANCH  10  16
ATOM     16  C   UNL     1       3.711  -0.707  -0.038  0.00  0.00    +0.038 C 
BRANCH  16  20
ATOM     17  C   UNL     1      -0.017   1.378   0.010  0.00  0.00    +0.000 A 
ATOM     18  C   UNL     1       1.171   2.086   0.002  0.00  0.00    +0.000 A 
ATOM     19  C   UNL     1       2.377   1.411  -0.013  0.00  0.00    +0.003 A 
ATOM     20  C   UNL     1       2.396   0.029  -0.020  0.00  0.00    -0.047 A 
ATOM     21  C   UNL     1       1.208  -0.679  -0.012  0.00  0.00    +0.003 A 
ATOM     22  C   UNL     1       0.002  -0.004   0.002  0.00  0.00    +0.000 A 
ENDBRANCH  16  20
ENDBRANCH  10  16
ENDBRANCH   7  13
ENDBRANCH   1   7
BRANCH   5  23
ATOM     23  C   UNL     1       8.021  -4.161   7.929  0.00  0.00    +0.340 C 
ATOM     24  O   UNL     1       8.489  -4.878   7.068  0.00  0.00    -0.245 OA
BRANCH  23  25
ATOM     25  O   UNL     1       7.905  -4.612   9.193  0.00  0.00    -0.453 OA
BRANCH  25  26
ATOM     26  C   UNL     1       8.354  -5.945   9.449  0.00  0.00    +0.311 C 
BRANCH  26  27
ATOM     27  C   UNL     1       8.148  -6.272  10.905  0.00  0.00    +0.199 C 
ATOM     28  O   UNL     1       7.664  -5.446  11.651  0.00  0.00    -0.289 OA
BRANCH  27  29
ATOM     29  C   UNL     1       8.517  -7.540  11.402  0.00  0.00    +0.026 C 
ATOM     30  C   UNL     1       8.391  -8.000  12.701  0.00  0.00    +0.006 A 
ATOM     31  C   UNL     1       7.890  -7.410  13.886  0.00  0.00    +0.010 A 
ATOM     32  C   UNL     1       7.887  -8.105  15.045  0.00  0.00    +0.001 A 
ATOM     33  C   UNL     1       8.369  -9.421  15.135  0.00  0.00    +0.002 A 
ATOM     34  C   UNL     1       8.867 -10.075  14.064  0.00  0.00    +0.026 A 
ATOM     35  C   UNL     1       8.907  -9.389  12.761  0.00  0.00    +0.043 A 
ATOM     36  N   UNL     1       9.326  -9.772  11.589  0.00  0.00    -0.380 N 
ATOM     37  C   UNL     1       9.128  -8.685  10.624  0.00  0.00    +0.152 C 
ATOM     38  H   UNL     1       9.705 -10.641  11.385  0.00  0.00    +0.160 HD
ENDBRANCH  27  29
ENDBRANCH  26  27
ENDBRANCH  25  26
ENDBRANCH  23  25
ENDBRANCH   5  23
TORSDOF 9
