REMARK  Name = ZINC40687258
REMARK  7 active torsions:
REMARK  status: ('A' for Active; 'I' for Inactive)
REMARK    1  A    between atoms: C_1  and  C_2
REMARK    2  A    between atoms: C_4  and  C_26
REMARK    3  A    between atoms: C_7  and  N_8
REMARK    4  A    between atoms: C_10  and  N_24
REMARK    5  A    between atoms: C_11  and  N_15
REMARK    6  A    between atoms: C_26  and  C_28
REMARK    7  A    between atoms: C_26  and  C_30
REMARK                            x       y       z     vdW  Elec       q    Type
REMARK                         _______ _______ _______ _____ _____    ______ ____
ROOT
ATOM      1  N   UNL     1      -0.309  -0.123   2.378  0.00  0.00    -0.299 N 
ATOM      2  C   UNL     1      -0.229  -0.854   3.558  0.00  0.00    +0.126 A 
ATOM      3  C   UNL     1      -0.415  -0.230   4.793  0.00  0.00    +0.104 A 
ATOM      4  C   UNL     1      -0.324  -1.011   5.947  0.00  0.00    +0.151 A 
ATOM      5  N   UNL     1      -0.064  -2.311   5.827  0.00  0.00    -0.220 NA
ATOM      6  C   UNL     1       0.106  -2.861   4.641  0.00  0.00    +0.200 A 
ATOM      7  N   UNL     1       0.022  -2.161   3.528  0.00  0.00    -0.333 N 
ATOM      8  H   UNL     1      -0.490   0.829   2.409  0.00  0.00    +0.154 HD
ATOM      9  H   UNL     1       0.149  -2.604   2.674  0.00  0.00    +0.168 HD
ENDROOT
BRANCH   4  10
ATOM     10  N   UNL     1      -0.501  -0.439   7.202  0.00  0.00    -0.283 N 
ATOM     11  C   UNL     1      -1.764  -0.419   7.944  0.00  0.00    +0.117 C 
ATOM     12  C   UNL     1      -1.448   0.316   9.258  0.00  0.00    +0.056 C 
ATOM     13  C   UNL     1       0.019   0.666   9.153  0.00  0.00    -0.025 A 
ATOM     14  C   UNL     1       0.500   0.193   7.942  0.00  0.00    +0.038 A 
ATOM     15  C   UNL     1       1.844   0.395   7.621  0.00  0.00    +0.024 A 
ATOM     16  C   UNL     1       2.678   1.051   8.501  0.00  0.00    +0.002 A 
ATOM     17  C   UNL     1       2.189   1.515   9.709  0.00  0.00    +0.000 A 
ATOM     18  C   UNL     1       0.858   1.327  10.030  0.00  0.00    +0.005 A 
ENDBRANCH   4  10
BRANCH   1  25
ATOM     19  C   UNL     1       2.321  -0.937   1.659  0.00  0.00    +0.045 C 
ATOM     20  C   UNL     1       1.138  -1.175   0.757  0.00  0.00    -0.029 A 
ATOM     21  C   UNL     1       1.311  -1.810  -0.457  0.00  0.00    +0.011 A 
ATOM     22  C   UNL     1       0.227  -2.030  -1.286  0.00  0.00    -0.008 A 
ATOM     23  C   UNL     1      -1.036  -1.613  -0.903  0.00  0.00    +0.047 A 
ATOM     24  C   UNL     1      -1.217  -0.977   0.310  0.00  0.00    +0.043 A 
ATOM     25  C   UNL     1      -0.129  -0.761   1.148  0.00  0.00    +0.037 A 
ATOM     26 CL   UNL     1      -2.395  -1.890  -1.948  0.00  0.00    -0.083 Cl
BRANCH  22  27
ATOM     27  C   UNL     1       0.421  -2.723  -2.610  0.00  0.00    +0.153 C 
BRANCH  27  28
ATOM     28  C   UNL     1       1.252  -1.851  -3.517  0.00  0.00    -0.026 A 
ATOM     29  C   UNL     1       2.583  -1.622  -3.224  0.00  0.00    +0.006 A 
ATOM     30  C   UNL     1       3.346  -0.823  -4.055  0.00  0.00    +0.020 A 
ATOM     31  C   UNL     1       2.777  -0.253  -5.179  0.00  0.00    +0.041 A 
ATOM     32  C   UNL     1       1.444  -0.483  -5.472  0.00  0.00    +0.020 A 
ATOM     33  C   UNL     1       0.684  -1.287  -4.644  0.00  0.00    +0.006 A 
ATOM     34 CL   UNL     1       3.734   0.751  -6.223  0.00  0.00    -0.084 Cl
ENDBRANCH  27  28
BRANCH  27  35
ATOM     35  C   UNL     1       1.110  -4.006  -2.396  0.00  0.00    +0.075 C 
ATOM     36  N   UNL     1       1.641  -4.996  -2.231  0.00  0.00    -0.196 NA
ENDBRANCH  27  35
ENDBRANCH  22  27
ENDBRANCH   1  25
BRANCH   3  37
ATOM     37  N   UNL     1      -0.687   1.145   4.872  0.00  0.00    -0.353 N 
ATOM     38  H   UNL     1      -0.675   1.689   4.069  0.00  0.00    +0.143 HD
ATOM     39  H   UNL     1      -0.888   1.551   5.730  0.00  0.00    +0.143 HD
ENDBRANCH   3  37
TORSDOF 6
