REMARK  Name = ZINC14015945
REMARK  4 active torsions:
REMARK  status: ('A' for Active; 'I' for Inactive)
REMARK    1  A    between atoms: C_1  and  C_2
REMARK    2  A    between atoms: C_15  and  C_17
REMARK    3  A    between atoms: N_22  and  S_24
REMARK    4  A    between atoms: S_24  and  C_27
REMARK                            x       y       z     vdW  Elec       q    Type
REMARK                         _______ _______ _______ _____ _____    ______ ____
ROOT
ATOM      1  C   UNL     1      -0.018   1.503   0.010  0.00  0.00    +0.073 C 
ATOM      2  C   UNL     1       0.002  -0.004   0.002  0.00  0.00    +0.076 A 
ATOM      3  N   UNL     1      -0.003  -0.807  -1.024  0.00  0.00    -0.244 NA
ATOM      4  C   UNL     1       0.022  -2.149  -0.894  0.00  0.00    +0.080 A 
ATOM      5  C   UNL     1       0.028  -3.148  -1.898  0.00  0.00    +0.031 A 
ATOM      6  C   UNL     1       0.047  -4.464  -1.600  0.00  0.00    +0.031 A 
ATOM      7  C   UNL     1       0.065  -4.937  -0.263  0.00  0.00    +0.081 A 
ATOM      8  C   UNL     1       0.062  -3.945   0.743  0.00  0.00    +0.057 A 
ATOM      9  C   UNL     1       0.041  -2.611   0.442  0.00  0.00    +0.055 A 
ATOM     10  S   UNL     1       0.030  -1.089   1.357  0.00  0.00    -0.071 S 
ATOM     11  S   UNL     1       0.089  -4.918   2.230  0.00  0.00    -0.051 S 
ATOM     12  C   UNL     1       0.102  -6.525   1.448  0.00  0.00    +0.165 A 
ATOM     13  N   UNL     1       0.086  -6.214   0.173  0.00  0.00    -0.225 NA
ATOM     14  N   UNL     1       0.124  -7.779   2.038  0.00  0.00    -0.264 N 
ATOM     15  C   UNL     1       0.132  -8.886   1.268  0.00  0.00    +0.223 C 
ATOM     16  O   UNL     1       0.118  -8.784   0.060  0.00  0.00    -0.275 OA
ATOM     17  H   UNL     1       0.135  -7.861   3.005  0.00  0.00    +0.157 HD
ENDROOT
BRANCH  15  18
ATOM     18  C   UNL     1       0.156 -10.249   1.910  0.00  0.00    +0.091 C 
ATOM     19  C   UNL     1       1.418 -10.390   2.764  0.00  0.00    +0.015 C 
ATOM     20  C   UNL     1       1.427 -11.762   3.442  0.00  0.00    +0.018 C 
ATOM     21  C   UNL     1       1.445 -12.856   2.370  0.00  0.00    +0.109 C 
ATOM     22  N   UNL     1       0.314 -12.642   1.456  0.00  0.00    -0.176 NA
ATOM     23  C   UNL     1       0.160 -11.327   0.820  0.00  0.00    +0.122 C 
BRANCH  22  24
ATOM     24  S   UNL     1      -0.765 -13.860   1.149  0.00  0.00    +0.061 S 
ATOM     25  O   UNL     1      -0.706 -14.744   2.260  0.00  0.00    -0.153 OA
ATOM     26  O   UNL     1      -1.972 -13.237   0.734  0.00  0.00    -0.153 OA
BRANCH  24  27
ATOM     27  C   UNL     1      -0.156 -14.757  -0.240  0.00  0.00    +0.106 A 
ATOM     28  C   UNL     1      -0.531 -14.388  -1.519  0.00  0.00    +0.030 A 
ATOM     29  C   UNL     1      -0.049 -15.087  -2.609  0.00  0.00    +0.022 A 
ATOM     30  C   UNL     1       0.798 -16.164  -2.421  0.00  0.00    +0.041 A 
ATOM     31  C   UNL     1       1.169 -16.537  -1.140  0.00  0.00    +0.022 A 
ATOM     32  C   UNL     1       0.691 -15.833  -0.051  0.00  0.00    +0.030 A 
ATOM     33 CL   UNL     1       1.397 -17.048  -3.789  0.00  0.00    -0.084 Cl
ENDBRANCH  24  27
ENDBRANCH  22  24
ENDBRANCH  15  18
TORSDOF 3
