REMARK  Name = ZINC02778496
REMARK  9 active torsions:
REMARK  status: ('A' for Active; 'I' for Inactive)
REMARK    1  A    between atoms: C_1  and  C_2
REMARK    2  A    between atoms: C_2  and  N_3
REMARK    3  A    between atoms: C_4  and  C_9
REMARK    4  A    between atoms: N_11  and  N_12
REMARK    5  A    between atoms: C_13  and  C_31
REMARK    6  A    between atoms: C_23  and  C_27
REMARK    7  A    between atoms: C_27  and  C_28
REMARK    8  A    between atoms: C_27  and  C_29
REMARK    9  A    between atoms: C_27  and  C_30
REMARK                            x       y       z     vdW  Elec       q    Type
REMARK                         _______ _______ _______ _____ _____    ______ ____
ROOT
ATOM      1  N   UNL     1       0.009  -6.334   1.603  0.00  0.00    -0.209 N 
ATOM      2  C   UNL     1      -1.234  -6.715   1.221  0.00  0.00    +0.129 A 
ATOM      3  N   UNL     1      -2.129  -5.873   0.754  0.00  0.00    -0.225 NA
ATOM      4  C   UNL     1      -1.776  -4.595   0.661  0.00  0.00    +0.116 A 
ATOM      5  C   UNL     1      -0.506  -4.100   1.033  0.00  0.00    +0.077 A 
ATOM      6  C   UNL     1       0.442  -5.053   1.538  0.00  0.00    +0.280 A 
ATOM      7  O   UNL     1       1.565  -4.729   1.886  0.00  0.00    -0.265 OA
ATOM      8  C   UNL     1      -0.299  -2.673   0.862  0.00  0.00    -0.023 A 
ATOM      9  C   UNL     1      -1.339  -1.964   0.364  0.00  0.00    -0.004 A 
ATOM     10  S   UNL     1      -2.631  -3.155   0.105  0.00  0.00    -0.073 S 
ATOM     11  C   UNL     1      -1.387  -0.493   0.091  0.00  0.00    +0.046 C 
ATOM     12  C   UNL     1       0.049   0.052   0.110  0.00  0.00    -0.000 C 
ATOM     13  C   UNL     1       0.757  -0.478   1.360  0.00  0.00    +0.009 C 
ATOM     14  C   UNL     1       1.014  -1.978   1.215  0.00  0.00    +0.037 C 
ATOM     15  C   UNL     1      -1.607  -8.170   1.337  0.00  0.00    +0.088 C 
ENDROOT
BRANCH   1  18
ATOM     16  C   UNL     1       1.146  -7.391   3.407  0.00  0.00    +0.282 C 
ATOM     17  O   UNL     1       0.683  -6.563   4.168  0.00  0.00    -0.267 OA
ATOM     18  N   UNL     1       0.888  -7.312   2.087  0.00  0.00    -0.213 N 
ATOM     19  H   UNL     1       1.367  -8.015   1.389  0.00  0.00    +0.176 HD
BRANCH  16  21
ATOM     20  N   UNL     1       3.351  -8.481   4.039  0.00  0.00    -0.258 N 
ATOM     21  C   UNL     1       1.988  -8.479   3.928  0.00  0.00    +0.143 A 
ATOM     22  C   UNL     1       1.560  -9.710   4.399  0.00  0.00    +0.091 A 
ATOM     23  C   UNL     1       2.724 -10.386   4.776  0.00  0.00    +0.155 A 
ATOM     24  N   UNL     1       3.741  -9.598   4.538  0.00  0.00    -0.177 NA
ATOM     25 CL   UNL     1      -0.073 -10.289   4.497  0.00  0.00    -0.080 Cl
BRANCH  20  27
ATOM     26  C   UNL     1       4.532  -6.510   4.874  0.00  0.00    +0.029 C 
ATOM     27  C   UNL     1       4.231  -7.376   3.650  0.00  0.00    +0.141 C 
ENDBRANCH  20  27
ENDBRANCH  16  21
ENDBRANCH   1  18
BRANCH  12  28
ATOM     28  C   UNL     1       0.018   1.581   0.147  0.00  0.00    -0.035 C 
ATOM     29  C   UNL     1       1.449   2.120   0.187  0.00  0.00    +0.011 C 
ATOM     30  C   UNL     1      -0.691   2.107  -1.103  0.00  0.00    +0.011 C 
ATOM     31  C   UNL     1      -0.737   2.046   1.394  0.00  0.00    +0.011 C 
ENDBRANCH  12  28
TORSDOF 4
