REMARK  Name = ZINC41155337
REMARK  4 active torsions:
REMARK  status: ('A' for Active; 'I' for Inactive)
REMARK    1  A    between atoms: C_1  and  C_2
REMARK    2  A    between atoms: C_7  and  C_8
REMARK    3  A    between atoms: C_10  and  C_13
REMARK    4  A    between atoms: C_13  and  N_20
REMARK                            x       y       z     vdW  Elec       q    Type
REMARK                         _______ _______ _______ _____ _____    ______ ____
ROOT
ATOM      1  C   UNL     1       0.120   0.206   2.408  0.00  0.00    +0.259 A 
ATOM      2  N   UNL     1       0.336  -0.285   3.607  0.00  0.00    -0.193 NA
ATOM      3  C   UNL     1       0.367   0.703   4.505  0.00  0.00    +0.161 A 
ATOM      4  N   UNL     1       0.173   1.838   3.897  0.00  0.00    -0.062 NA
ATOM      5  O   UNL     1       0.013   1.542   2.518  0.00  0.00    -0.333 OA
ENDROOT
BRANCH   1  12
ATOM      6  C   UNL     1      -2.036   0.747   0.556  0.00  0.00    +0.044 C 
ATOM      7  C   UNL     1      -1.016  -0.321   0.255  0.00  0.00    -0.037 A 
ATOM      8  C   UNL     1      -1.102  -1.048  -0.914  0.00  0.00    +0.019 A 
ATOM      9  C   UNL     1      -0.166  -2.029  -1.193  0.00  0.00    +0.018 A 
ATOM     10  C   UNL     1       0.862  -2.287  -0.300  0.00  0.00    +0.016 A 
ATOM     11  C   UNL     1       0.958  -1.567   0.872  0.00  0.00    +0.014 A 
ATOM     12  C   UNL     1       0.020  -0.573   1.156  0.00  0.00    +0.042 A 
ATOM     13 BR   UNL     1      -0.291  -3.022  -2.797  0.00  0.00    -0.050 Br
ENDBRANCH   1  12
BRANCH   3  14
ATOM     14  C   UNL     1       0.592   0.531   5.986  0.00  0.00    -0.006 C 
ATOM     15  C   UNL     1       1.988   0.025   6.230  0.00  0.00    -0.005 C 
ATOM     16  C   UNL     1       2.068  -0.921   7.443  0.00  0.00    -0.001 C 
ATOM     17  C   UNL     1       1.227  -0.433   8.638  0.00  0.00    -0.000 C 
ATOM     18  C   UNL     1       1.343   1.051   8.856  0.00  0.00    -0.000 C 
ATOM     19  C   UNL     1       0.180   1.747   8.121  0.00  0.00    -0.001 C 
ATOM     20  C   UNL     1       0.433   1.891   6.695  0.00  0.00    -0.005 C 
BRANCH  14  21
ATOM     21  N   UNL     1      -0.385  -0.424   6.525  0.00  0.00    +0.387 N 
ATOM     22  H   UNL     1       0.032  -1.342   6.569  0.00  0.00    -0.089 HD
ATOM     23  H   UNL     1      -0.661  -0.136   7.452  0.00  0.00    -0.089 HD
ATOM     24  H   UNL     1      -1.196  -0.451   5.926  0.00  0.00    -0.089 HD
ENDBRANCH  14  21
ENDBRANCH   3  14
TORSDOF 3
