REMARK  Name = ZINC40316938
REMARK  13 active torsions:
REMARK  status: ('A' for Active; 'I' for Inactive)
REMARK    1  A    between atoms: C_1  and  O_2
REMARK    2  A    between atoms: O_2  and  C_3
REMARK    3  A    between atoms: C_6  and  C_11
REMARK    4  A    between atoms: C_8  and  O_9
REMARK    5  A    between atoms: O_9  and  C_10
REMARK    6  A    between atoms: C_11  and  N_12
REMARK    7  A    between atoms: N_12  and  C_13
REMARK    8  A    between atoms: N_12  and  C_26
REMARK    9  A    between atoms: C_13  and  C_14
REMARK   10  A    between atoms: C_14  and  C_16
REMARK   11  A    between atoms: C_14  and  O_25
REMARK   12  A    between atoms: C_16  and  O_17
REMARK   13  A    between atoms: O_17  and  C_18
REMARK                            x       y       z     vdW  Elec       q    Type
REMARK                         _______ _______ _______ _____ _____    ______ ____
ROOT
ATOM      1  N   UNL     1       3.787  -2.731  -4.073  0.00  0.00    +0.387 N 
ATOM      2  H   UNL     1       3.674  -3.208  -3.191  0.00  0.00    -0.081 HD
ENDROOT
BRANCH   1   3
ATOM      3  C   UNL     1       4.168  -1.334  -3.828  0.00  0.00    -0.045 C 
ATOM      4  C   UNL     1       3.365  -0.776  -2.641  0.00  0.00    +0.009 C 
ATOM      5  C   UNL     1       3.517   0.762  -2.577  0.00  0.00    +0.164 C 
ATOM      6  S   UNL     1       3.817   1.212  -4.335  0.00  0.00    -0.033 S 
ATOM      7  O   UNL     1       5.110   1.788  -4.452  0.00  0.00    -0.174 OA
ATOM      8  O   UNL     1       2.688   1.921  -4.830  0.00  0.00    -0.174 OA
ATOM      9  C   UNL     1       3.841  -0.473  -5.081  0.00  0.00    +0.151 C 
ENDBRANCH   1   3
BRANCH   1  10
ATOM     10  C   UNL     1       2.520  -2.770  -4.816  0.00  0.00    -0.042 C 
BRANCH  10  14
ATOM     11  C   UNL     1      -0.657  -1.419  -2.292  0.00  0.00    +0.161 A 
ATOM     12  C   UNL     1      -0.090  -0.558  -3.218  0.00  0.00    +0.049 A 
ATOM     13  C   UNL     1       0.937  -0.998  -4.032  0.00  0.00    +0.005 A 
ATOM     14  C   UNL     1       1.401  -2.296  -3.925  0.00  0.00    -0.060 A 
ATOM     15  C   UNL     1       0.840  -3.160  -3.004  0.00  0.00    +0.051 A 
ATOM     16  C   UNL     1      -0.186  -2.724  -2.180  0.00  0.00    +0.162 A 
BRANCH  11  18
ATOM     17  C   UNL     1      -2.099   0.363  -1.660  0.00  0.00    +0.277 C 
ATOM     18  O   UNL     1      -1.667  -0.988  -1.490  0.00  0.00    -0.491 OA
ENDBRANCH  11  18
BRANCH  16  19
ATOM     19  O   UNL     1      -0.735  -3.571  -1.269  0.00  0.00    -0.491 OA
ATOM     20  C   UNL     1      -0.202  -4.895  -1.210  0.00  0.00    +0.277 C 
ENDBRANCH  16  19
ENDBRANCH  10  14
ENDBRANCH   1  10
BRANCH   1  21
ATOM     21  C   UNL     1       4.836  -3.395  -4.858  0.00  0.00    -0.043 C 
BRANCH  21  22
ATOM     22  C   UNL     1       6.111  -3.502  -4.019  0.00  0.00    +0.135 C 
BRANCH  22  23
ATOM     23  O   UNL     1       5.854  -4.303  -2.863  0.00  0.00    -0.390 OA
ATOM     24  H   UNL     1       5.569  -5.204  -3.065  0.00  0.00    +0.210 HD
ENDBRANCH  22  23
BRANCH  22  25
ATOM     25  C   UNL     1       7.218  -4.150  -4.853  0.00  0.00    +0.258 C 
BRANCH  25  26
ATOM     26  O   UNL     1       8.439  -4.144  -4.111  0.00  0.00    -0.488 OA
BRANCH  26  27
ATOM     27  C   UNL     1       9.529  -4.688  -4.713  0.00  0.00    +0.135 A 
ATOM     28  C   UNL     1       9.428  -5.210  -5.994  0.00  0.00    +0.047 A 
ATOM     29  C   UNL     1      10.538  -5.762  -6.604  0.00  0.00    +0.004 A 
ATOM     30  C   UNL     1      11.750  -5.794  -5.939  0.00  0.00    +0.001 A 
ATOM     31  C   UNL     1      11.854  -5.274  -4.662  0.00  0.00    +0.019 A 
ATOM     32  C   UNL     1      10.748  -4.716  -4.049  0.00  0.00    +0.059 A 
ATOM     33 BR   UNL     1      10.893  -3.997  -2.306  0.00  0.00    -0.047 Br
ENDBRANCH  26  27
ENDBRANCH  25  26
ENDBRANCH  22  25
ENDBRANCH  21  22
ENDBRANCH   1  21
TORSDOF 11
