REMARK  Name = ZINC20573415
REMARK  8 active torsions:
REMARK  status: ('A' for Active; 'I' for Inactive)
REMARK    1  A    between atoms: C_1  and  C_2
REMARK    2  A    between atoms: C_2  and  C_4
REMARK    3  A    between atoms: C_2  and  N_21
REMARK    4  A    between atoms: C_22  and  C_24
REMARK    5  A    between atoms: C_27  and  C_30
REMARK    6  A    between atoms: C_30  and  C_31
REMARK    7  A    between atoms: C_30  and  C_32
REMARK    8  A    between atoms: C_30  and  C_33
REMARK                            x       y       z     vdW  Elec       q    Type
REMARK                         _______ _______ _______ _____ _____    ______ ____
ROOT
ATOM      1  C   UNL     1       0.597  -0.491  -1.294  0.00  0.00    +0.236 C 
ATOM      2  O   UNL     1       1.726  -0.934  -1.315  0.00  0.00    -0.274 OA
ATOM      3  N   UNL     1      -0.125  -0.435  -2.430  0.00  0.00    -0.300 N 
ATOM      4  C   UNL     1      -1.449   0.204  -2.446  0.00  0.00    +0.110 C 
ATOM      5  C   UNL     1      -1.471   1.264  -3.551  0.00  0.00    +0.047 C 
ATOM      6  C   UNL     1      -1.066   0.622  -4.878  0.00  0.00    +0.064 C 
ATOM      7  C   UNL     1       0.353   0.063  -4.771  0.00  0.00    +0.047 C 
ATOM      8  C   UNL     1       0.398  -1.005  -3.679  0.00  0.00    +0.110 C 
ATOM      9  C   UNL     1      -1.127   1.647  -5.979  0.00  0.00    +0.057 A 
ATOM     10  C   UNL     1      -1.669   1.411  -7.195  0.00  0.00    +0.039 A 
ATOM     11  N   UNL     1      -1.561   2.525  -7.919  0.00  0.00    -0.349 N 
ATOM     12  C   UNL     1      -0.970   3.446  -7.202  0.00  0.00    +0.171 A 
ATOM     13  N   UNL     1      -0.684   2.932  -5.982  0.00  0.00    -0.348 N 
ATOM     14  H   UNL     1      -0.246   3.394  -5.250  0.00  0.00    +0.166 HD
ATOM     15  C   UNL     1      -2.270   0.082  -7.583  0.00  0.00    +0.070 C 
ATOM     16  C   UNL     1      -1.790  -0.966  -6.570  0.00  0.00    +0.088 C 
ATOM     17  N   UNL     1      -2.001  -0.467  -5.204  0.00  0.00    -0.305 NA
ATOM     18  H   UNL     1      -1.932  -1.216  -4.531  0.00  0.00    +0.123 HD
ATOM     19  H   UNL     1      -1.870   2.635  -8.832  0.00  0.00    +0.166 HD
ENDROOT
BRANCH   1  21
ATOM     20  C   UNL     1       0.240   1.501   0.139  0.00  0.00    +0.038 C 
ATOM     21  C   UNL     1       0.002  -0.004   0.002  0.00  0.00    +0.156 C 
BRANCH  21  22
ATOM     22  N   UNL     1       0.635  -0.703   1.123  0.00  0.00    -0.300 N 
ATOM     23  C   UNL     1      -0.022  -0.836   2.292  0.00  0.00    +0.245 C 
ATOM     24  O   UNL     1      -1.140  -0.376   2.416  0.00  0.00    -0.270 OA
ATOM     25  H   UNL     1       1.528  -1.070   1.024  0.00  0.00    +0.150 HD
BRANCH  23  26
ATOM     26  C   UNL     1       0.618  -1.541   3.424  0.00  0.00    +0.037 A 
ATOM     27  C   UNL     1       1.904  -2.065   3.286  0.00  0.00    +0.013 A 
ATOM     28  C   UNL     1       2.495  -2.721   4.346  0.00  0.00    +0.005 A 
ATOM     29  C   UNL     1       1.815  -2.861   5.543  0.00  0.00    -0.042 A 
ATOM     30  C   UNL     1       0.540  -2.345   5.686  0.00  0.00    +0.005 A 
ATOM     31  C   UNL     1      -0.060  -1.681   4.636  0.00  0.00    +0.013 A 
BRANCH  29  32
ATOM     32  C   UNL     1       2.467  -3.580   6.696  0.00  0.00    -0.013 C 
ATOM     33  C   UNL     1       3.758  -2.856   7.084  0.00  0.00    +0.015 C 
ATOM     34  C   UNL     1       1.512  -3.596   7.892  0.00  0.00    +0.015 C 
ATOM     35  C   UNL     1       2.792  -5.017   6.283  0.00  0.00    +0.015 C 
ENDBRANCH  29  32
ENDBRANCH  23  26
ENDBRANCH  21  22
ENDBRANCH   1  21
TORSDOF 4
