REMARK  Name = ZINC39691239
REMARK  8 active torsions:
REMARK  status: ('A' for Active; 'I' for Inactive)
REMARK    1  A    between atoms: C_1  and  C_2
REMARK    2  A    between atoms: C_7  and  C_8
REMARK    3  A    between atoms: C_8  and  C_9
REMARK    4  A    between atoms: C_9  and  N_10
REMARK    5  A    between atoms: C_11  and  C_13
REMARK    6  A    between atoms: C_24  and  C_26
REMARK    7  A    between atoms: C_29  and  O_32
REMARK    8  A    between atoms: O_32  and  C_33
REMARK                            x       y       z     vdW  Elec       q    Type
REMARK                         _______ _______ _______ _____ _____    ______ ____
ROOT
ATOM      1  C   UNL     1      -1.980   2.796   6.710  0.00  0.00    +0.100 C 
ATOM      2  C   UNL     1      -1.240   4.072   6.250  0.00  0.00    +0.121 C 
ATOM      3  N   UNL     1      -2.318   5.013   5.866  0.00  0.00    -0.296 N 
ATOM      4  C   UNL     1      -3.371   4.803   6.889  0.00  0.00    +0.115 C 
ATOM      5  C   UNL     1      -3.377   3.281   7.133  0.00  0.00    -0.004 C 
ATOM      6  C   UNL     1      -3.615   2.983   8.610  0.00  0.00    -0.010 C 
ATOM      7  C   UNL     1      -5.032   3.420   8.992  0.00  0.00    -0.082 C 
ATOM      8  N   UNL     1      -6.008   2.702   8.164  0.00  0.00    +0.379 N 
ATOM      9  C   UNL     1      -5.831   3.067   6.753  0.00  0.00    -0.082 C 
ATOM     10  C   UNL     1      -4.449   2.614   6.276  0.00  0.00    -0.010 C 
ATOM     11  C   UNL     1      -2.338   5.867   4.824  0.00  0.00    +0.248 C 
ATOM     12  O   UNL     1      -1.451   5.832   3.993  0.00  0.00    -0.270 OA
ATOM     13  H   UNL     1      -5.873   1.708   8.273  0.00  0.00    -0.086 HD
ATOM     14  H   UNL     1      -6.941   2.946   8.459  0.00  0.00    -0.086 HD
ENDROOT
BRANCH  11  15
ATOM     15  C   UNL     1      -3.437   6.843   4.691  0.00  0.00    +0.055 A 
ATOM     16  C   UNL     1      -4.223   7.187   5.801  0.00  0.00    +0.020 A 
ATOM     17  C   UNL     1      -5.238   8.104   5.626  0.00  0.00    +0.068 A 
ATOM     18  C   UNL     1      -5.448   8.655   4.366  0.00  0.00    +0.220 A 
ATOM     19  N   UNL     1      -4.689   8.310   3.337  0.00  0.00    -0.220 NA
ATOM     20  C   UNL     1      -3.706   7.443   3.460  0.00  0.00    +0.127 A 
BRANCH  18  21
ATOM     21  O   UNL     1      -6.443   9.557   4.188  0.00  0.00    -0.438 OA
BRANCH  21  22
ATOM     22  C   UNL     1      -6.560  10.147   2.970  0.00  0.00    +0.130 A 
ATOM     23  C   UNL     1      -7.156   9.463   1.920  0.00  0.00    +0.046 A 
ATOM     24  C   UNL     1      -7.273  10.065   0.682  0.00  0.00    +0.004 A 
ATOM     25  C   UNL     1      -6.797  11.349   0.489  0.00  0.00    +0.000 A 
ATOM     26  C   UNL     1      -6.203  12.033   1.533  0.00  0.00    +0.004 A 
ATOM     27  C   UNL     1      -6.088  11.437   2.774  0.00  0.00    +0.046 A 
ENDBRANCH  21  22
ENDBRANCH  18  21
ENDBRANCH  11  15
BRANCH   1  29
ATOM     28  N   UNL     1      -2.175   0.492   5.831  0.00  0.00    -0.315 N 
ATOM     29  C   UNL     1      -2.087   1.812   5.574  0.00  0.00    +0.218 C 
ATOM     30  O   UNL     1      -2.094   2.209   4.427  0.00  0.00    -0.275 OA
ATOM     31  H   UNL     1      -2.169   0.175   6.747  0.00  0.00    +0.149 HD
BRANCH  28  32
ATOM     32  C   UNL     1      -2.279  -0.464   4.726  0.00  0.00    +0.109 C 
BRANCH  32  33
ATOM     33  C   UNL     1      -2.365  -1.885   5.287  0.00  0.00    +0.054 C 
BRANCH  33  40
ATOM     34  C   UNL     1       0.025  -2.844   3.976  0.00  0.00    +0.044 C 
ATOM     35  C   UNL     1      -1.329  -3.327   3.523  0.00  0.00    -0.047 A 
ATOM     36  C   UNL     1      -1.427  -4.234   2.484  0.00  0.00    +0.003 A 
ATOM     37  C   UNL     1      -2.668  -4.677   2.069  0.00  0.00    +0.000 A 
ATOM     38  C   UNL     1      -3.812  -4.215   2.693  0.00  0.00    +0.000 A 
ATOM     39  C   UNL     1      -3.714  -3.309   3.732  0.00  0.00    +0.004 A 
ATOM     40  C   UNL     1      -2.472  -2.868   4.151  0.00  0.00    -0.043 A 
ENDBRANCH  33  40
ENDBRANCH  32  33
ENDBRANCH  28  32
ENDBRANCH   1  29
TORSDOF 7
