REMARK  Name = ZINC33271470
REMARK  6 active torsions:
REMARK  status: ('A' for Active; 'I' for Inactive)
REMARK    1  A    between atoms: C_1  and  C_2
REMARK    2  A    between atoms: C_14  and  C_16
REMARK    3  A    between atoms: C_17  and  C_23
REMARK    4  A    between atoms: C_28  and  O_29
REMARK    5  A    between atoms: O_29  and  C_30
REMARK    6  A    between atoms: C_30  and  C_31
REMARK                            x       y       z     vdW  Elec       q    Type
REMARK                         _______ _______ _______ _____ _____    ______ ____
ROOT
ATOM      1  C   UNL     1      -8.510   0.714  -1.362  0.00  0.00    +0.044 C 
ATOM      2  C   UNL     1      -7.022   0.712  -1.121  0.00  0.00    -0.049 A 
ATOM      3  C   UNL     1      -6.332   1.909  -0.991  0.00  0.00    +0.005 A 
ATOM      4  C   UNL     1      -4.980   1.935  -0.771  0.00  0.00    +0.029 A 
ATOM      5  C   UNL     1      -4.240   0.734  -0.671  0.00  0.00    +0.081 A 
ATOM      6  C   UNL     1      -4.976  -0.465  -0.808  0.00  0.00    +0.041 A 
ATOM      7  C   UNL     1      -6.331  -0.482  -1.028  0.00  0.00    +0.020 A 
ATOM      8  S   UNL     1      -3.715  -1.705  -0.633  0.00  0.00    -0.048 S 
ATOM      9  C   UNL     1      -2.339  -0.591  -0.385  0.00  0.00    +0.196 A 
ATOM     10  N   UNL     1      -2.915   0.586  -0.459  0.00  0.00    -0.221 NA
ATOM     11  N   UNL     1      -0.999  -0.894  -0.174  0.00  0.00    -0.193 N 
ATOM     12  C   UNL     1       0.002  -0.004   0.002  0.00  0.00    +0.135 A 
ATOM     13  C   UNL     1       1.158  -0.714   0.188  0.00  0.00    +0.023 A 
ATOM     14  C   UNL     1       0.848  -2.065   0.112  0.00  0.00    +0.066 A 
ATOM     15  N   UNL     1      -0.441  -2.181  -0.105  0.00  0.00    -0.168 NA
ATOM     16  C   UNL     1       1.825  -3.203   0.255  0.00  0.00    +0.068 C 
ATOM     17  C   UNL     1       2.485  -0.044   0.437  0.00  0.00    +0.066 C 
ATOM     18  C   UNL     1       2.466   1.329  -0.242  0.00  0.00    +0.109 C 
ATOM     19  C   UNL     1       1.165   2.041   0.002  0.00  0.00    +0.219 C 
ATOM     20  O   UNL     1       1.178   3.238   0.198  0.00  0.00    -0.275 OA
ATOM     21  N   UNL     1      -0.017   1.389   0.010  0.00  0.00    -0.270 N 
ATOM     22  H   UNL     1      -0.977   1.926   0.022  0.00  0.00    +0.156 HD
ENDROOT
BRANCH  17  23
ATOM     23  C   UNL     1       3.595  -0.883  -0.143  0.00  0.00    +0.002 A 
ATOM     24  C   UNL     1       3.612  -1.168  -1.495  0.00  0.00    +0.008 A 
ATOM     25  C   UNL     1       4.632  -1.933  -2.028  0.00  0.00    +0.001 A 
ATOM     26  C   UNL     1       5.632  -2.425  -1.208  0.00  0.00    +0.004 A 
ATOM     27  C   UNL     1       5.616  -2.147   0.144  0.00  0.00    +0.046 A 
ATOM     28  C   UNL     1       4.596  -1.374   0.681  0.00  0.00    +0.125 A 
BRANCH  28  29
ATOM     29  O   UNL     1       4.578  -1.100   2.012  0.00  0.00    -0.488 OA
BRANCH  29  30
ATOM     30  C   UNL     1       5.642  -1.639   2.800  0.00  0.00    +0.256 C 
BRANCH  30  31
ATOM     31  C   UNL     1       5.456  -1.234   4.239  0.00  0.00    +0.006 C 
ATOM     32  C   UNL     1       5.611  -2.118   5.194  0.00  0.00    +0.007 C 
ENDBRANCH  30  31
ENDBRANCH  29  30
ENDBRANCH  28  29
ENDBRANCH  17  23
TORSDOF 4
