REMARK  Name = ZINC35649250
REMARK  5 active torsions:
REMARK  status: ('A' for Active; 'I' for Inactive)
REMARK    1  A    between atoms: C_1  and  C_2
REMARK    2  A    between atoms: C_3  and  C_11
REMARK    3  A    between atoms: C_7  and  N_8
REMARK    4  A    between atoms: C_11  and  O_12
REMARK    5  A    between atoms: O_12  and  C_13
REMARK                            x       y       z     vdW  Elec       q    Type
REMARK                         _______ _______ _______ _____ _____    ______ ____
ROOT
ATOM      1  C   UNL     1      -0.538   1.447   0.088  0.00  0.00    +0.046 C 
ATOM      2  C   UNL     1      -0.246  -0.031   0.039  0.00  0.00    -0.014 A 
ATOM      3  C   UNL     1      -0.347  -0.716  -1.157  0.00  0.00    -0.005 A 
ATOM      4  C   UNL     1      -0.080  -2.071  -1.202  0.00  0.00    +0.007 A 
ATOM      5  C   UNL     1       0.288  -2.742  -0.051  0.00  0.00    +0.003 A 
ATOM      6  C   UNL     1       0.390  -2.057   1.145  0.00  0.00    +0.033 A 
ATOM      7  C   UNL     1       0.127  -0.700   1.190  0.00  0.00    +0.129 A 
ENDROOT
BRANCH   7   8
ATOM      8  N   UNL     1       0.241   0.035   2.470  0.00  0.00    +0.057 N 
ATOM      9  O   UNL     1       0.674   1.163   2.482  0.00  0.00    -0.126 OA
ATOM     10  O   UNL     1      -0.099  -0.494   3.502  0.00  0.00    -0.126 OA
ENDBRANCH   7   8
BRANCH   3  11
ATOM     11  C   UNL     1      -0.749   0.015  -2.412  0.00  0.00    +0.265 C 
BRANCH  11  12
ATOM     12  O   UNL     1      -0.782  -0.902  -3.508  0.00  0.00    -0.486 OA
BRANCH  12  13
ATOM     13  C   UNL     1      -1.129  -0.400  -4.722  0.00  0.00    +0.135 A 
ATOM     14  C   UNL     1      -1.425   0.948  -4.858  0.00  0.00    +0.047 A 
ATOM     15  C   UNL     1      -1.778   1.456  -6.094  0.00  0.00    +0.004 A 
ATOM     16  C   UNL     1      -1.835   0.621  -7.195  0.00  0.00    +0.001 A 
ATOM     17  C   UNL     1      -1.540  -0.723  -7.063  0.00  0.00    +0.019 A 
ATOM     18  C   UNL     1      -1.181  -1.235  -5.830  0.00  0.00    +0.059 A 
ATOM     19 BR   UNL     1      -0.770  -3.072  -5.652  0.00  0.00    -0.047 Br
ENDBRANCH  12  13
ENDBRANCH  11  12
ENDBRANCH   3  11
TORSDOF 4
