REMARK  Name = ZINC20285893
REMARK  15 active torsions:
REMARK  status: ('A' for Active; 'I' for Inactive)
REMARK    1  A    between atoms: C_1  and  C_2
REMARK    2  A    between atoms: C_2  and  C_32
REMARK    3  A    between atoms: C_4  and  N_10
REMARK    4  A    between atoms: C_6  and  C_8
REMARK    5  A    between atoms: C_6  and  C_9
REMARK    6  A    between atoms: N_10  and  C_11
REMARK    7  A    between atoms: C_11  and  N_13
REMARK    8  A    between atoms: N_13  and  C_14
REMARK    9  A    between atoms: N_13  and  C_21
REMARK   10  A    between atoms: C_14  and  C_15
REMARK   11  A    between atoms: C_21  and  C_22
REMARK   12  A    between atoms: C_25  and  O_30
REMARK   13  A    between atoms: C_26  and  O_28
REMARK   14  A    between atoms: O_28  and  C_29
REMARK   15  A    between atoms: O_30  and  C_31
REMARK                            x       y       z     vdW  Elec       q    Type
REMARK                         _______ _______ _______ _____ _____    ______ ____
ROOT
ATOM      1  N   UNL     1       4.255  -0.809  -4.288  0.00  0.00    -0.304 N 
ENDROOT
BRANCH   1   2
ATOM      2  C   UNL     1       3.770  -0.334  -3.123  0.00  0.00    +0.134 C 
ATOM      3  S   UNL     1       4.622   0.885  -2.276  0.00  0.00    -0.019 S 
BRANCH   2   4
ATOM      4  N   UNL     1       2.615  -0.819  -2.626  0.00  0.00    -0.324 N 
ATOM      5  H   UNL     1       2.133  -1.510  -3.106  0.00  0.00    +0.148 HD
BRANCH   4   9
ATOM      6  C   UNL     1      -0.019   1.528   0.010  0.00  0.00    -0.010 C 
ATOM      7  C   UNL     1       0.002  -0.004   0.002  0.00  0.00    -0.072 C 
ATOM      8  C   UNL     1       0.573  -0.505  -1.321  0.00  0.00    +0.009 C 
ATOM      9  C   UNL     1       2.088  -0.301  -1.357  0.00  0.00    +0.069 C 
ATOM     10  C   UNL     1       2.703  -1.086  -0.198  0.00  0.00    +0.009 C 
ATOM     11  C   UNL     1       2.147  -0.590   1.133  0.00  0.00    -0.072 C 
ATOM     12  N   UNL     1       0.697  -0.529   1.164  0.00  0.00    +0.386 N 
ATOM     13  C   UNL     1       2.769   0.766   1.481  0.00  0.00    -0.010 C 
ATOM     14  C   UNL     1       2.600  -1.589   2.223  0.00  0.00    -0.010 C 
ATOM     15  C   UNL     1      -1.468  -0.478   0.079  0.00  0.00    -0.010 C 
ATOM     16  H   UNL     1       0.416   0.021   1.982  0.00  0.00    -0.084 HD
ATOM     17  H   UNL     1       0.341  -1.472   1.351  0.00  0.00    -0.084 HD
ENDBRANCH   4   9
ENDBRANCH   2   4
ENDBRANCH   1   2
BRANCH   1  18
ATOM     18  C   UNL     1       3.525  -1.853  -5.013  0.00  0.00    +0.142 C 
BRANCH  18  19
ATOM     19  C   UNL     1       2.552  -1.214  -5.969  0.00  0.00    -0.030 A 
ATOM     20  C   UNL     1       1.266  -0.920  -5.554  0.00  0.00    +0.005 A 
ATOM     21  C   UNL     1       0.373  -0.334  -6.431  0.00  0.00    +0.000 A 
ATOM     22  C   UNL     1       0.766  -0.040  -7.724  0.00  0.00    +0.000 A 
ATOM     23  C   UNL     1       2.052  -0.333  -8.139  0.00  0.00    +0.000 A 
ATOM     24  C   UNL     1       2.946  -0.915  -7.260  0.00  0.00    +0.005 A 
ENDBRANCH  18  19
ENDBRANCH   1  18
BRANCH   1  25
ATOM     25  C   UNL     1       5.510  -0.282  -4.829  0.00  0.00    +0.142 C 
BRANCH  25  26
ATOM     26  C   UNL     1       6.664  -1.099  -4.307  0.00  0.00    -0.026 A 
ATOM     27  C   UNL     1       7.284  -0.739  -3.125  0.00  0.00    +0.009 A 
ATOM     28  C   UNL     1       8.343  -1.485  -2.641  0.00  0.00    +0.050 A 
ATOM     29  C   UNL     1       8.785  -2.596  -3.342  0.00  0.00    +0.162 A 
ATOM     30  C   UNL     1       8.160  -2.958  -4.531  0.00  0.00    +0.162 A 
ATOM     31  C   UNL     1       7.096  -2.209  -5.008  0.00  0.00    +0.054 A 
BRANCH  30  32
ATOM     32  O   UNL     1       8.590  -4.048  -5.222  0.00  0.00    -0.491 OA
ATOM     33  C   UNL     1       7.901  -4.360  -6.435  0.00  0.00    +0.277 C 
ENDBRANCH  30  32
BRANCH  29  34
ATOM     34  O   UNL     1       9.827  -3.331  -2.868  0.00  0.00    -0.491 OA
ATOM     35  C   UNL     1      10.419  -2.900  -1.641  0.00  0.00    +0.277 C 
ENDBRANCH  29  34
ENDBRANCH  25  26
ENDBRANCH   1  25
TORSDOF 9
