REMARK  Name = ZINC02136039
REMARK  6 active torsions:
REMARK  status: ('A' for Active; 'I' for Inactive)
REMARK    1  A    between atoms: C_1  and  C_2
REMARK    2  A    between atoms: C_2  and  C_3
REMARK    3  A    between atoms: C_3  and  C_4
REMARK    4  A    between atoms: C_4  and  N_5
REMARK    5  A    between atoms: C_11  and  C_27
REMARK    6  A    between atoms: C_23  and  C_26
REMARK                            x       y       z     vdW  Elec       q    Type
REMARK                         _______ _______ _______ _____ _____    ______ ____
ROOT
ATOM      1  N   UNL     1       7.432   1.516  -1.948  0.00  0.00    -0.291 N 
ATOM      2  C   UNL     1       8.060   0.214  -2.097  0.00  0.00    +0.203 C 
ATOM      3  C   UNL     1       7.443  -0.815  -1.207  0.00  0.00    +0.234 C 
ATOM      4  O   UNL     1       7.860  -1.952  -1.280  0.00  0.00    -0.274 OA
ATOM      5  N   UNL     1       6.463  -0.565  -0.336  0.00  0.00    -0.280 N 
ATOM      6  C   UNL     1       5.816  -1.687   0.368  0.00  0.00    +0.122 C 
ATOM      7  C   UNL     1       4.345  -1.756  -0.058  0.00  0.00    +0.069 C 
ATOM      8  C   UNL     1       3.759  -0.368  -0.037  0.00  0.00    -0.008 A 
ATOM      9  C   UNL     1       2.363   0.020  -0.020  0.00  0.00    +0.004 A 
ATOM     10  C   UNL     1       1.175  -0.718  -0.013  0.00  0.00    +0.010 A 
ATOM     11  C   UNL     1       0.002  -0.004   0.002  0.00  0.00    +0.001 A 
ATOM     12  C   UNL     1      -0.017   1.381   0.010  0.00  0.00    +0.002 A 
ATOM     13  C   UNL     1       1.144   2.136   0.003  0.00  0.00    +0.026 A 
ATOM     14  C   UNL     1       2.350   1.438  -0.012  0.00  0.00    +0.047 A 
ATOM     15  N   UNL     1       3.649   1.857  -0.023  0.00  0.00    -0.356 N 
ATOM     16  H   UNL     1       3.937   2.783  -0.021  0.00  0.00    +0.166 HD
ATOM     17  C   UNL     1       4.484   0.772  -0.036  0.00  0.00    +0.054 A 
ATOM     18  C   UNL     1       5.995   0.790  -0.043  0.00  0.00    +0.151 C 
ATOM     19  C   UNL     1       6.502   1.787  -1.032  0.00  0.00    +0.245 C 
ATOM     20  O   UNL     1       6.042   2.908  -1.000  0.00  0.00    -0.273 OA
ATOM     21  C   UNL     1       6.491   1.196   1.345  0.00  0.00    +0.048 C 
ENDROOT
BRANCH   7  22
ATOM     22  C   UNL     1       3.584  -2.639   0.898  0.00  0.00    -0.038 A 
ATOM     23  C   UNL     1       3.538  -2.322   2.243  0.00  0.00    +0.005 A 
ATOM     24  C   UNL     1       2.837  -3.128   3.120  0.00  0.00    +0.015 A 
ATOM     25  C   UNL     1       2.189  -4.258   2.653  0.00  0.00    +0.018 A 
ATOM     26  C   UNL     1       2.240  -4.577   1.308  0.00  0.00    +0.015 A 
ATOM     27  C   UNL     1       2.938  -3.768   0.431  0.00  0.00    +0.005 A 
ATOM     28 BR   UNL     1       1.235  -5.365   3.853  0.00  0.00    -0.050 Br
ENDBRANCH   7  22
BRANCH   1  29
ATOM     29  C   UNL     1       7.843   2.591  -2.854  0.00  0.00    +0.108 C 
BRANCH  29  30
ATOM     30  C   UNL     1       6.956   2.575  -4.101  0.00  0.00    +0.019 C 
BRANCH  30  32
ATOM     31  C   UNL     1       6.498   3.681  -6.293  0.00  0.00    +0.004 C 
ATOM     32  C   UNL     1       7.385   3.697  -5.047  0.00  0.00    -0.002 C 
ENDBRANCH  30  32
ENDBRANCH  29  30
ENDBRANCH   1  29
TORSDOF 4
