REMARK  Name = ZINC21902855
REMARK  6 active torsions:
REMARK  status: ('A' for Active; 'I' for Inactive)
REMARK    1  A    between atoms: C_1  and  C_2
REMARK    2  A    between atoms: C_5  and  C_7
REMARK    3  A    between atoms: C_12  and  C_15
REMARK    4  A    between atoms: C_18  and  C_20
REMARK    5  A    between atoms: C_20  and  N_21
REMARK    6  A    between atoms: C_22  and  C_24
REMARK                            x       y       z     vdW  Elec       q    Type
REMARK                         _______ _______ _______ _____ _____    ______ ____
ROOT
ATOM      1  C   UNL     1       1.656  -3.216  -0.023  0.00  0.00    +0.285 C 
ATOM      2  O   UNL     1       1.211  -4.349  -0.027  0.00  0.00    -0.266 OA
ATOM      3  N   UNL     1       2.988  -3.015  -0.028  0.00  0.00    -0.258 N 
ATOM      4  C   UNL     1       3.853  -4.101  -0.038  0.00  0.00    +0.165 A 
ATOM      5  N   UNL     1       5.173  -4.116  -0.039  0.00  0.00    -0.224 NA
ATOM      6  C   UNL     1       5.849  -5.262  -0.049  0.00  0.00    +0.087 A 
ATOM      7  C   UNL     1       5.160  -6.444  -0.059  0.00  0.00    +0.077 A 
ATOM      8  S   UNL     1       3.474  -5.847  -0.045  0.00  0.00    -0.060 S 
ATOM      9  H   UNL     1       3.343  -2.112  -0.025  0.00  0.00    +0.157 HD
ENDROOT
BRANCH   1  14
ATOM     10  C   UNL     1      -0.018   1.503   0.010  0.00  0.00    +0.086 C 
ATOM     11  C   UNL     1       0.002  -0.004   0.002  0.00  0.00    +0.103 A 
ATOM     12  C   UNL     1      -1.086  -0.806   0.003  0.00  0.00    +0.045 A 
ATOM     13  C   UNL     1      -0.623  -2.131  -0.007  0.00  0.00    +0.055 A 
ATOM     14  C   UNL     1       0.742  -2.070  -0.013  0.00  0.00    +0.190 A 
ATOM     15  O   UNL     1       1.101  -0.769  -0.013  0.00  0.00    -0.455 OA
ENDBRANCH   1  14
BRANCH   6  16
ATOM     16  C   UNL     1       7.328  -5.258  -0.050  0.00  0.00    +0.038 A 
ATOM     17  C   UNL     1       8.188  -4.194  -0.036  0.00  0.00    +0.018 A 
ATOM     18  C   UNL     1       9.545  -4.438  -0.040  0.00  0.00    +0.013 A 
ATOM     19  C   UNL     1       9.986  -5.721  -0.058  0.00  0.00    +0.007 A 
ATOM     20  S   UNL     1       8.456  -6.642  -0.063  0.00  0.00    -0.090 S 
BRANCH  19  21
ATOM     21  C   UNL     1      11.402  -6.237  -0.065  0.00  0.00    +0.146 C 
BRANCH  21  22
ATOM     22  N   UNL     1      11.861  -6.423   1.313  0.00  0.00    -0.311 N 
ATOM     23  C   UNL     1      13.106  -6.880   1.553  0.00  0.00    +0.210 C 
ATOM     24  O   UNL     1      13.847  -7.136   0.627  0.00  0.00    -0.276 OA
ATOM     25  C   UNL     1      13.579  -7.071   2.971  0.00  0.00    +0.109 C 
ATOM     26  H   UNL     1      11.269  -6.218   2.054  0.00  0.00    +0.149 HD
ENDBRANCH  21  22
ENDBRANCH  19  21
ENDBRANCH   6  16
TORSDOF 4
