REMARK  Name = ZINC15604988
REMARK  11 active torsions:
REMARK  status: ('A' for Active; 'I' for Inactive)
REMARK    1  A    between atoms: C_1  and  C_2
REMARK    2  A    between atoms: C_2  and  C_3
REMARK    3  A    between atoms: C_3  and  C_4
REMARK    4  A    between atoms: C_4  and  N_5
REMARK    5  A    between atoms: C_6  and  N_34
REMARK    6  A    between atoms: C_7  and  N_14
REMARK    7  A    between atoms: N_14  and  C_15
REMARK    8  A    between atoms: C_15  and  C_16
REMARK    9  A    between atoms: C_21  and  C_23
REMARK   10  A    between atoms: C_26  and  S_29
REMARK   11  A    between atoms: S_29  and  C_30
REMARK                            x       y       z     vdW  Elec       q    Type
REMARK                         _______ _______ _______ _____ _____    ______ ____
ROOT
ATOM      1  N   UNL     1      -0.873  -4.792   2.514  0.00  0.00    -0.253 N 
ATOM      2  C   UNL     1      -1.441  -4.138   3.547  0.00  0.00    +0.251 C 
ATOM      3  O   UNL     1      -1.940  -4.764   4.463  0.00  0.00    -0.270 OA
ENDROOT
BRANCH   1   6
ATOM      4  N   UNL     1      -0.421  -3.511  -0.900  0.00  0.00    -0.280 N 
ATOM      5  C   UNL     1      -0.930  -4.229   0.157  0.00  0.00    +0.127 A 
ATOM      6  C   UNL     1      -0.374  -4.069   1.410  0.00  0.00    +0.140 A 
ATOM      7  C   UNL     1       0.699  -3.173   1.568  0.00  0.00    +0.277 A 
ATOM      8  O   UNL     1       1.209  -3.012   2.664  0.00  0.00    -0.266 OA
ATOM      9  N   UNL     1       1.160  -2.493   0.499  0.00  0.00    -0.273 N 
ATOM     10  H   UNL     1       1.920  -1.853   0.611  0.00  0.00    +0.173 HD
ATOM     11  C   UNL     1       0.609  -2.666  -0.715  0.00  0.00    +0.331 A 
ATOM     12  O   UNL     1       1.048  -2.044  -1.663  0.00  0.00    -0.246 OA
BRANCH   5  13
ATOM     13  N   UNL     1      -1.980  -5.096  -0.032  0.00  0.00    -0.343 N 
ATOM     14  H   UNL     1      -2.415  -5.149  -0.897  0.00  0.00    +0.144 HD
ATOM     15  H   UNL     1      -2.285  -5.655   0.699  0.00  0.00    +0.144 HD
ENDBRANCH   5  13
BRANCH   4  16
ATOM     16  C   UNL     1      -1.002  -3.671  -2.235  0.00  0.00    +0.128 C 
BRANCH  16  17
ATOM     17  C   UNL     1      -2.135  -2.660  -2.424  0.00  0.00    +0.021 C 
BRANCH  17  19
ATOM     18  C   UNL     1      -3.874  -1.816  -4.006  0.00  0.00    +0.004 C 
ATOM     19  C   UNL     1      -2.741  -2.827  -3.818  0.00  0.00    -0.002 C 
ENDBRANCH  17  19
ENDBRANCH  16  17
ENDBRANCH   4  16
ENDBRANCH   1   6
BRANCH   2  20
ATOM     20  C   UNL     1      -1.457  -2.664   3.567  0.00  0.00    +0.037 A 
ATOM     21  C   UNL     1      -1.473  -1.947   2.366  0.00  0.00    +0.014 A 
ATOM     22  C   UNL     1      -1.494  -0.576   2.388  0.00  0.00    +0.016 A 
ATOM     23  C   UNL     1      -1.486   0.102   3.604  0.00  0.00    +0.016 A 
ATOM     24  C   UNL     1      -1.464  -0.609   4.802  0.00  0.00    +0.016 A 
ATOM     25  C   UNL     1      -1.450  -1.980   4.786  0.00  0.00    +0.014 A 
BRANCH  23  26
ATOM     26  S   UNL     1      -1.506   1.864   3.628  0.00  0.00    -0.016 S 
BRANCH  26  27
ATOM     27  C   UNL     1      -1.532   2.326   1.874  0.00  0.00    +0.448 C 
ATOM     28  F   UNL     1      -2.675   1.795   1.269  0.00  0.00    -0.160 F 
ATOM     29  F   UNL     1      -1.549   3.721   1.760  0.00  0.00    -0.160 F 
ATOM     30  F   UNL     1      -0.391   1.821   1.242  0.00  0.00    -0.160 F 
ENDBRANCH  26  27
ENDBRANCH  23  26
ENDBRANCH   2  20
BRANCH   1  31
ATOM     31  C   UNL     1      -0.774  -6.254   2.538  0.00  0.00    +0.188 C 
BRANCH  31  32
ATOM     32  C   UNL     1       0.467  -6.661   3.288  0.00  0.00    +0.122 A 
ATOM     33  C   UNL     1       0.524  -7.002   4.588  0.00  0.00    +0.046 A 
ATOM     34  C   UNL     1       1.875  -7.310   4.872  0.00  0.00    +0.041 A 
ATOM     35  C   UNL     1       2.562  -7.138   3.729  0.00  0.00    +0.195 A 
ATOM     36  O   UNL     1       1.704  -6.751   2.771  0.00  0.00    -0.466 OA
ENDBRANCH  31  32
ENDBRANCH   1  31
TORSDOF 10
