REMARK  Name = ZINC39431099
REMARK  7 active torsions:
REMARK  status: ('A' for Active; 'I' for Inactive)
REMARK    1  A    between atoms: C_1  and  C_2
REMARK    2  A    between atoms: C_2  and  C_4
REMARK    3  A    between atoms: C_2  and  S_16
REMARK    4  A    between atoms: S_16  and  C_17
REMARK    5  A    between atoms: N_28  and  C_29
REMARK    6  A    between atoms: C_34  and  O_35
REMARK    7  A    between atoms: O_35  and  C_36
REMARK                            x       y       z     vdW  Elec       q    Type
REMARK                         _______ _______ _______ _____ _____    ______ ____
ROOT
ATOM      1  C   UNL     1      -2.286   0.038  -1.412  0.00  0.00    +0.227 C 
ATOM      2  N   UNL     1      -1.660  -0.601  -2.575  0.00  0.00    -0.316 N 
ATOM      3  C   UNL     1      -0.375  -0.214  -2.941  0.00  0.00    +0.041 A 
ATOM      4  C   UNL     1       0.493  -1.082  -3.581  0.00  0.00    +0.024 A 
ATOM      5  C   UNL     1       1.756  -0.648  -3.935  0.00  0.00    +0.002 A 
ATOM      6  C   UNL     1       2.160   0.648  -3.655  0.00  0.00    +0.001 A 
ATOM      7  C   UNL     1       1.308   1.524  -3.015  0.00  0.00    +0.015 A 
ATOM      8  C   UNL     1       0.034   1.099  -2.648  0.00  0.00    +0.058 A 
ATOM      9  C   UNL     1      -0.904   1.989  -1.942  0.00  0.00    +0.255 C 
ATOM     10  O   UNL     1      -0.651   3.172  -1.818  0.00  0.00    -0.269 OA
ATOM     11  N   UNL     1      -2.040   1.480  -1.435  0.00  0.00    -0.236 N 
ATOM     12  H   UNL     1      -2.133  -1.280  -3.080  0.00  0.00    +0.149 HD
ENDROOT
BRANCH  11  13
ATOM     13  C   UNL     1      -3.008   2.351  -0.918  0.00  0.00    +0.081 A 
ATOM     14  C   UNL     1      -2.970   2.717   0.419  0.00  0.00    +0.027 A 
ATOM     15  C   UNL     1      -3.925   3.577   0.927  0.00  0.00    +0.002 A 
ATOM     16  C   UNL     1      -4.921   4.073   0.105  0.00  0.00    +0.004 A 
ATOM     17  C   UNL     1      -4.965   3.712  -1.228  0.00  0.00    +0.047 A 
ATOM     18  C   UNL     1      -4.007   2.856  -1.747  0.00  0.00    +0.141 A 
BRANCH  18  19
ATOM     19  O   UNL     1      -4.046   2.504  -3.060  0.00  0.00    -0.493 OA
ATOM     20  C   UNL     1      -5.100   3.060  -3.849  0.00  0.00    +0.277 C 
ENDBRANCH  18  19
ENDBRANCH  11  13
BRANCH   1  21
ATOM     21  S   UNL     1      -1.588  -0.666   0.107  0.00  0.00    -0.108 S 
BRANCH  21  23
ATOM     22  C   UNL     1      -1.871  -3.200  -0.882  0.00  0.00    +0.027 C 
ATOM     23  C   UNL     1      -2.378  -2.293   0.241  0.00  0.00    +0.112 C 
BRANCH  23  24
ATOM     24  C   UNL     1      -2.040  -2.908   1.575  0.00  0.00    +0.123 A 
ATOM     25  N   UNL     1      -2.452  -4.178   1.822  0.00  0.00    -0.309 N 
ATOM     26  H   UNL     1      -2.950  -4.663   1.144  0.00  0.00    +0.170 HD
ATOM     27  C   UNL     1      -2.174  -4.776   3.004  0.00  0.00    +0.259 A 
ATOM     28  O   UNL     1      -2.535  -5.914   3.238  0.00  0.00    -0.267 OA
ATOM     29  C   UNL     1      -1.416  -3.996   3.994  0.00  0.00    +0.065 A 
ATOM     30  C   UNL     1      -1.079  -4.518   5.242  0.00  0.00    +0.015 A 
ATOM     31  C   UNL     1      -0.368  -3.743   6.132  0.00  0.00    +0.001 A 
ATOM     32  C   UNL     1       0.012  -2.450   5.796  0.00  0.00    +0.002 A 
ATOM     33  C   UNL     1      -0.312  -1.915   4.569  0.00  0.00    +0.028 A 
ATOM     34  C   UNL     1      -1.031  -2.682   3.649  0.00  0.00    +0.078 A 
ATOM     35  N   UNL     1      -1.366  -2.197   2.427  0.00  0.00    -0.233 NA
ENDBRANCH  23  24
ENDBRANCH  21  23
ENDBRANCH   1  21
TORSDOF 5
