REMARK  Name = ZINC35000863
REMARK  15 active torsions:
REMARK  status: ('A' for Active; 'I' for Inactive)
REMARK    1  A    between atoms: C_1  and  C_2
REMARK    2  A    between atoms: C_2  and  C_35
REMARK    3  A    between atoms: C_7  and  C_11
REMARK    4  A    between atoms: C_11  and  N_12
REMARK    5  A    between atoms: N_12  and  C_13
REMARK    6  A    between atoms: C_13  and  C_14
REMARK    7  A    between atoms: C_14  and  N_15
REMARK    8  A    between atoms: N_23  and  C_24
REMARK    9  A    between atoms: C_24  and  C_25
REMARK   10  A    between atoms: C_24  and  C_26
REMARK   11  A    between atoms: C_24  and  C_27
REMARK   12  A    between atoms: N_30  and  C_31
REMARK   13  A    between atoms: C_31  and  C_32
REMARK   14  A    between atoms: C_31  and  C_33
REMARK   15  A    between atoms: C_31  and  C_34
REMARK                            x       y       z     vdW  Elec       q    Type
REMARK                         _______ _______ _______ _____ _____    ______ ____
ROOT
ATOM      1  N   UNL     1       3.168  -2.643   0.146  0.00  0.00    -0.283 N 
ATOM      2  C   UNL     1       3.190  -3.580  -0.823  0.00  0.00    +0.303 C 
ATOM      3  O   UNL     1       3.941  -3.456  -1.772  0.00  0.00    -0.253 OA
ATOM      4  N   UNL     1       2.379  -4.653  -0.741  0.00  0.00    -0.294 N 
ATOM      5  H   UNL     1       1.780  -4.751   0.015  0.00  0.00    +0.151 HD
ENDROOT
BRANCH   4   6
ATOM      6  C   UNL     1       2.402  -5.671  -1.794  0.00  0.00    +0.028 C 
ATOM      7  C   UNL     1       3.805  -6.274  -1.890  0.00  0.00    +0.031 C 
ATOM      8  C   UNL     1       1.394  -6.773  -1.461  0.00  0.00    +0.031 C 
ATOM      9  C   UNL     1       2.031  -5.029  -3.133  0.00  0.00    +0.031 C 
ENDBRANCH   4   6
BRANCH   1  10
ATOM     10  C   UNL     1       2.264  -2.792   1.288  0.00  0.00    +0.140 C 
BRANCH  10  16
ATOM     11  C   UNL     1      -0.018   1.527   0.020  0.00  0.00    +0.012 C 
ATOM     12  C   UNL     1       0.002  -0.002   0.004  0.00  0.00    -0.025 C 
ATOM     13  C   UNL     1      -1.270  -0.649   0.589  0.00  0.00    -0.000 C 
ATOM     14  C   UNL     1      -1.366  -2.127   0.184  0.00  0.00    +0.031 C 
ATOM     15  C   UNL     1      -0.065  -2.825   0.494  0.00  0.00    -0.025 C 
ATOM     16  C   UNL     1       0.945  -2.134   0.973  0.00  0.00    -0.053 C 
ATOM     17  C   UNL     1       0.727  -0.629   1.210  0.00  0.00    +0.022 C 
ATOM     18  C   UNL     1      -0.612  -0.428   1.962  0.00  0.00    +0.012 C 
ATOM     19  C   UNL     1       0.431  -0.582  -1.345  0.00  0.00    +0.012 C 
ENDBRANCH  10  16
ENDBRANCH   1  10
BRANCH   1  20
ATOM     20  C   UNL     1       4.050  -1.476   0.056  0.00  0.00    +0.091 C 
BRANCH  20  21
ATOM     21  C   UNL     1       5.381  -1.789   0.743  0.00  0.00    -0.059 C 
BRANCH  21  22
ATOM     22  N   UNL     1       6.265  -0.620   0.653  0.00  0.00    +0.383 N 
ATOM     23  C   UNL     1       6.593  -0.363  -0.755  0.00  0.00    -0.059 C 
ATOM     24  C   UNL     1       7.421   0.922  -0.859  0.00  0.00    +0.091 C 
ATOM     25  N   UNL     1       8.591   0.797   0.024  0.00  0.00    -0.289 N 
ATOM     26  C   UNL     1       8.366   0.382   1.417  0.00  0.00    +0.091 C 
ATOM     27  C   UNL     1       7.494  -0.878   1.414  0.00  0.00    -0.059 C 
ATOM     28  C   UNL     1       9.833   1.055  -0.431  0.00  0.00    +0.302 C 
ATOM     29  O   UNL     1      10.010   1.304  -1.608  0.00  0.00    -0.253 OA
ATOM     30  N   UNL     1      10.879   1.037   0.419  0.00  0.00    -0.295 N 
ATOM     31  H   UNL     1      10.749   0.769   1.342  0.00  0.00    +0.151 HD
ATOM     32  H   UNL     1       5.795   0.186   1.038  0.00  0.00    -0.082 HD
BRANCH  30  33
ATOM     33  C   UNL     1      12.212   1.422  -0.052  0.00  0.00    +0.028 C 
ATOM     34  C   UNL     1      12.175   2.864  -0.563  0.00  0.00    +0.031 C 
ATOM     35  C   UNL     1      13.210   1.315   1.102  0.00  0.00    +0.031 C 
ATOM     36  C   UNL     1      12.641   0.489  -1.186  0.00  0.00    +0.031 C 
ENDBRANCH  30  33
ENDBRANCH  21  22
ENDBRANCH  20  21
ENDBRANCH   1  20
TORSDOF 7
