REMARK  Name = ZINC59459351
REMARK  8 active torsions:
REMARK  status: ('A' for Active; 'I' for Inactive)
REMARK    1  A    between atoms: C_1  and  O_2
REMARK    2  A    between atoms: O_2  and  C_3
REMARK    3  A    between atoms: C_7  and  C_10
REMARK    4  A    between atoms: C_8  and  O_9
REMARK    5  A    between atoms: N_11  and  N_12
REMARK    6  A    between atoms: C_13  and  C_15
REMARK    7  A    between atoms: C_15  and  O_16
REMARK    8  A    between atoms: O_16  and  C_17
REMARK                            x       y       z     vdW  Elec       q    Type
REMARK                         _______ _______ _______ _____ _____    ______ ____
ROOT
ATOM      1  N   UNL     1       0.934  -6.219   1.357  0.00  0.00    -0.204 N 
ATOM      2  C   UNL     1       0.377  -6.965   0.382  0.00  0.00    +0.270 C 
ATOM      3  O   UNL     1      -0.182  -6.425  -0.549  0.00  0.00    -0.270 OA
ATOM      4  H   UNL     1       1.381  -6.650   2.102  0.00  0.00    +0.177 HD
ENDROOT
BRANCH   1   6
ATOM      5  C   UNL     1       1.403  -4.103   2.234  0.00  0.00    +0.142 C 
ATOM      6  N   UNL     1       0.867  -4.821   1.295  0.00  0.00    -0.188 NA
BRANCH   5  11
ATOM      7  C   UNL     1       0.626  -0.619   1.042  0.00  0.00    +0.162 A 
ATOM      8  C   UNL     1       1.202   0.139   2.051  0.00  0.00    +0.049 A 
ATOM      9  C   UNL     1       1.839  -0.480   3.112  0.00  0.00    +0.004 A 
ATOM     10  C   UNL     1       1.908  -1.856   3.177  0.00  0.00    +0.013 A 
ATOM     11  C   UNL     1       1.332  -2.632   2.168  0.00  0.00    +0.040 A 
ATOM     12  C   UNL     1       0.682  -2.006   1.097  0.00  0.00    +0.167 A 
BRANCH   7  14
ATOM     13  C   UNL     1      -0.017   1.425   0.010  0.00  0.00    +0.277 C 
ATOM     14  O   UNL     1       0.002  -0.004   0.002  0.00  0.00    -0.491 OA
ENDBRANCH   7  14
BRANCH  12  15
ATOM     15  O   UNL     1       0.114  -2.752   0.113  0.00  0.00    -0.503 OA
ATOM     16  H   UNL     1       0.710  -2.955  -0.620  0.00  0.00    +0.292 HD
ENDBRANCH  12  15
ENDBRANCH   5  11
ENDBRANCH   1   6
BRANCH   2  17
ATOM     17  C   UNL     1       0.450  -8.468   0.449  0.00  0.00    +0.326 C 
BRANCH  17  18
ATOM     18  O   UNL     1      -0.207  -9.028  -0.690  0.00  0.00    -0.482 OA
BRANCH  18  19
ATOM     19  C   UNL     1      -0.232 -10.384  -0.783  0.00  0.00    +0.135 A 
ATOM     20  C   UNL     1       0.358 -11.162   0.202  0.00  0.00    +0.047 A 
ATOM     21  C   UNL     1       0.329 -12.536   0.097  0.00  0.00    +0.007 A 
ATOM     22  C   UNL     1      -0.287 -13.150  -0.986  0.00  0.00    -0.043 A 
ATOM     23  C   UNL     1      -0.878 -12.381  -1.964  0.00  0.00    -0.027 A 
ATOM     24  C   UNL     1      -0.852 -10.996  -1.860  0.00  0.00    +0.063 A 
ATOM     25 BR   UNL     1      -1.663  -9.939  -3.202  0.00  0.00    -0.046 Br
ATOM     26  C   UNL     1      -1.577 -12.981  -3.156  0.00  0.00    +0.036 C 
ATOM     27  C   UNL     1      -1.160 -14.438  -3.346  0.00  0.00    +0.005 C 
ATOM     28  C   UNL     1      -1.333 -15.170  -2.010  0.00  0.00    +0.005 C 
ATOM     29  C   UNL     1      -0.273 -14.656  -1.038  0.00  0.00    +0.035 C 
ENDBRANCH  18  19
ENDBRANCH  17  18
ENDBRANCH   2  17
TORSDOF 7
