REMARK  Name = ZINC64814605
REMARK  7 active torsions:
REMARK  status: ('A' for Active; 'I' for Inactive)
REMARK    1  A    between atoms: C_1  and  C_2
REMARK    2  A    between atoms: C_4  and  N_15
REMARK    3  A    between atoms: N_8  and  C_9
REMARK    4  A    between atoms: N_18  and  S_21
REMARK    5  A    between atoms: S_21  and  C_24
REMARK    6  A    between atoms: C_27  and  O_31
REMARK    7  A    between atoms: O_31  and  C_32
REMARK                            x       y       z     vdW  Elec       q    Type
REMARK                         _______ _______ _______ _____ _____    ______ ____
ROOT
ATOM      1  N   UNL     1       0.030  -2.826  -2.330  0.00  0.00    -0.312 N 
ATOM      2  C   UNL     1       0.044  -4.295  -2.293  0.00  0.00    +0.123 C 
ATOM      3  C   UNL     1      -1.147  -4.818  -3.106  0.00  0.00    +0.128 C 
ATOM      4  N   UNL     1      -1.157  -4.142  -4.411  0.00  0.00    -0.174 NA
ATOM      5  C   UNL     1      -1.172  -2.673  -4.448  0.00  0.00    +0.128 C 
ATOM      6  C   UNL     1       0.013  -2.151  -3.635  0.00  0.00    +0.123 C 
ENDROOT
BRANCH   1  10
ATOM      7  C   UNL     1       0.421   1.475   0.029  0.00  0.00    +0.066 C 
ATOM      8  C   UNL     1       0.211  -0.017   0.011  0.00  0.00    +0.045 A 
ATOM      9  C   UNL     1       0.224  -0.709  -1.184  0.00  0.00    +0.066 A 
ATOM     10  C   UNL     1       0.026  -2.091  -1.156  0.00  0.00    +0.127 A 
ATOM     11  N   UNL     1      -0.168  -2.691   0.014  0.00  0.00    -0.200 NA
ATOM     12  C   UNL     1      -0.173  -1.991   1.139  0.00  0.00    +0.217 A 
ATOM     13  N   UNL     1       0.018  -0.680   1.142  0.00  0.00    -0.220 NA
ATOM     14  N   UNL     1      -0.377  -2.646   2.340  0.00  0.00    -0.311 N 
ATOM     15  H   UNL     1      -0.514  -3.607   2.352  0.00  0.00    +0.149 HD
BRANCH  14  16
ATOM     16  C   UNL     1      -0.385  -1.890   3.595  0.00  0.00    +0.073 C 
ATOM     17  C   UNL     1       1.049  -1.721   4.099  0.00  0.00    +0.022 C 
ATOM     18  C   UNL     1       1.040  -0.930   5.409  0.00  0.00    +0.002 C 
ATOM     19  C   UNL     1       0.218  -1.686   6.455  0.00  0.00    +0.000 C 
ATOM     20  C   UNL     1      -1.217  -1.855   5.951  0.00  0.00    +0.002 C 
ATOM     21  C   UNL     1      -1.208  -2.646   4.641  0.00  0.00    +0.022 C 
ENDBRANCH  14  16
ENDBRANCH   1  10
BRANCH   4  22
ATOM     22  S   UNL     1      -1.153  -5.021  -5.815  0.00  0.00    +0.061 S 
ATOM     23  O   UNL     1      -0.613  -4.175  -6.821  0.00  0.00    -0.153 OA
ATOM     24  O   UNL     1      -0.588  -6.286  -5.500  0.00  0.00    -0.153 OA
BRANCH  22  25
ATOM     25  C   UNL     1      -2.834  -5.314  -6.252  0.00  0.00    +0.107 A 
ATOM     26  C   UNL     1      -3.482  -6.442  -5.783  0.00  0.00    +0.032 A 
ATOM     27  C   UNL     1      -4.801  -6.675  -6.124  0.00  0.00    +0.049 A 
ATOM     28  C   UNL     1      -5.475  -5.776  -6.938  0.00  0.00    +0.138 A 
ATOM     29  C   UNL     1      -4.822  -4.644  -7.407  0.00  0.00    +0.084 A 
ATOM     30  C   UNL     1      -3.505  -4.413  -7.058  0.00  0.00    +0.052 A 
ATOM     31 CL   UNL     1      -5.662  -3.517  -8.426  0.00  0.00    -0.080 Cl
BRANCH  28  32
ATOM     32  O   UNL     1      -6.772  -6.003  -7.275  0.00  0.00    -0.494 OA
ATOM     33  C   UNL     1      -7.379  -7.188  -6.756  0.00  0.00    +0.277 C 
ENDBRANCH  28  32
ENDBRANCH  22  25
ENDBRANCH   4  22
TORSDOF 5
