REMARK  Name = ZINC33250619
REMARK  8 active torsions:
REMARK  status: ('A' for Active; 'I' for Inactive)
REMARK    1  A    between atoms: C_1  and  C_2
REMARK    2  A    between atoms: C_5  and  C_8
REMARK    3  A    between atoms: C_9  and  C_10
REMARK    4  A    between atoms: C_11  and  S_16
REMARK    5  A    between atoms: C_12  and  C_15
REMARK    6  A    between atoms: S_16  and  N_19
REMARK    7  A    between atoms: C_23  and  C_26
REMARK    8  A    between atoms: C_32  and  C_35
REMARK                            x       y       z     vdW  Elec       q    Type
REMARK                         _______ _______ _______ _____ _____    ______ ____
ROOT
ATOM      1  S   UNL     1       6.604  -5.782   1.395  0.00  0.00    +0.066 S 
ATOM      2  O   UNL     1       5.402  -6.291   1.955  0.00  0.00    -0.153 OA
ATOM      3  O   UNL     1       7.597  -6.626   0.828  0.00  0.00    -0.153 OA
ENDROOT
BRANCH   1   5
ATOM      4  C   UNL     1       6.827  -4.261   3.765  0.00  0.00    +0.187 A 
ATOM      5  C   UNL     1       7.398  -4.853   2.664  0.00  0.00    +0.174 A 
ATOM      6  C   UNL     1       8.767  -4.550   2.792  0.00  0.00    +0.107 A 
ATOM      7  N   UNL     1       8.894  -3.841   3.878  0.00  0.00    -0.081 NA
ATOM      8  O   UNL     1       7.834  -3.672   4.435  0.00  0.00    -0.353 OA
ATOM      9  C   UNL     1       9.871  -4.961   1.852  0.00  0.00    +0.071 C 
BRANCH   4  11
ATOM     10  C   UNL     1       4.999  -3.640   5.251  0.00  0.00    +0.011 C 
ATOM     11  C   UNL     1       5.408  -4.270   4.134  0.00  0.00    +0.051 C 
BRANCH  10  16
ATOM     12  C   UNL     1      -0.565  -3.674   6.698  0.00  0.00    +0.044 C 
ATOM     13  C   UNL     1       0.893  -3.665   6.319  0.00  0.00    -0.050 A 
ATOM     14  C   UNL     1       1.809  -3.008   7.122  0.00  0.00    +0.004 A 
ATOM     15  C   UNL     1       3.145  -2.995   6.781  0.00  0.00    +0.008 A 
ATOM     16  C   UNL     1       3.574  -3.649   5.622  0.00  0.00    -0.025 A 
ATOM     17  C   UNL     1       2.642  -4.306   4.813  0.00  0.00    +0.008 A 
ATOM     18  C   UNL     1       1.310  -4.314   5.170  0.00  0.00    +0.004 A 
ENDBRANCH  10  16
ENDBRANCH   4  11
ENDBRANCH   1   5
BRANCH   1  19
ATOM     19  N   UNL     1       6.160  -4.713   0.211  0.00  0.00    -0.176 NA
ATOM     20  C   UNL     1       7.073  -4.400  -0.896  0.00  0.00    +0.109 C 
ATOM     21  C   UNL     1       7.247  -2.880  -0.976  0.00  0.00    +0.018 C 
ATOM     22  C   UNL     1       5.872  -2.217  -1.089  0.00  0.00    +0.015 C 
ATOM     23  C   UNL     1       5.044  -2.544   0.155  0.00  0.00    +0.091 C 
ATOM     24  C   UNL     1       4.844  -4.060   0.249  0.00  0.00    +0.122 C 
BRANCH  23  25
ATOM     25  C   UNL     1       3.702  -1.865   0.058  0.00  0.00    +0.223 C 
ATOM     26  O   UNL     1       2.686  -2.526   0.065  0.00  0.00    -0.275 OA
ATOM     27  N   UNL     1       3.631  -0.522  -0.035  0.00  0.00    -0.270 N 
ATOM     28  C   UNL     1       2.391   0.114  -0.018  0.00  0.00    +0.125 A 
ATOM     29  C   UNL     1       2.328   1.503  -0.008  0.00  0.00    +0.044 A 
ATOM     30  C   UNL     1       1.091   2.121   0.009  0.00  0.00    +0.008 A 
ATOM     31  C   UNL     1      -0.047   1.325   0.015  0.00  0.00    -0.032 A 
ATOM     32  C   UNL     1       0.089  -0.049   0.004  0.00  0.00    +0.116 A 
ATOM     33  N   UNL     1       1.283  -0.611  -0.013  0.00  0.00    -0.240 NA
ATOM     34  C   UNL     1      -1.416   1.954   0.040  0.00  0.00    +0.045 C 
ATOM     35  H   UNL     1       4.553   0.072  -0.125  0.00  0.00    +0.156 HD
ENDBRANCH  23  25
ENDBRANCH   1  19
TORSDOF 5
