REMARK  Name = ZINC08915377
REMARK  6 active torsions:
REMARK  status: ('A' for Active; 'I' for Inactive)
REMARK    1  A    between atoms: C_6  and  C_7
REMARK    2  A    between atoms: C_10  and  C_12
REMARK    3  A    between atoms: C_14  and  C_26
REMARK    4  A    between atoms: C_16  and  C_21
REMARK    5  A    between atoms: C_16  and  O_25
REMARK    6  A    between atoms: C_26  and  C_28
REMARK                            x       y       z     vdW  Elec       q    Type
REMARK                         _______ _______ _______ _____ _____    ______ ____
ROOT
ATOM      1  C   UNL     1       1.369   1.806   2.598  0.00  0.00    +0.156 C 
ATOM      2  C   UNL     1      -0.120   1.849   2.238  0.00  0.00    +0.147 C 
ATOM      3  C   UNL     1      -0.324   2.888   1.129  0.00  0.00    +0.243 C 
ATOM      4  N   UNL     1       0.213   4.175   1.572  0.00  0.00    -0.264 N 
ATOM      5  C   UNL     1       1.234   4.244   2.441  0.00  0.00    +0.302 C 
ATOM      6  O   UNL     1       1.649   5.339   2.768  0.00  0.00    -0.253 OA
ATOM      7  N   UNL     1       1.814   3.153   2.962  0.00  0.00    -0.289 N 
ATOM      8  H   UNL     1      -0.176   4.995   1.231  0.00  0.00    +0.153 HD
ATOM      9  H   UNL     1       2.543   3.258   3.592  0.00  0.00    +0.151 HD
ENDROOT
BRANCH   1  13
ATOM     10  C   UNL     1       2.773   0.121  -0.324  0.00  0.00    +0.135 A 
ATOM     11  C   UNL     1       3.705   1.098  -0.162  0.00  0.00    +0.050 A 
ATOM     12  C   UNL     1       3.304   1.860   0.954  0.00  0.00    +0.047 A 
ATOM     13  C   UNL     1       2.160   1.317   1.413  0.00  0.00    +0.127 A 
ATOM     14  O   UNL     1       1.845   0.263   0.642  0.00  0.00    -0.458 OA
BRANCH  10  20
ATOM     15  C   UNL     1       3.808  -0.955  -2.317  0.00  0.00    +0.013 A 
ATOM     16  C   UNL     1       3.812  -1.931  -3.292  0.00  0.00    +0.021 A 
ATOM     17  C   UNL     1       2.795  -2.869  -3.340  0.00  0.00    +0.041 A 
ATOM     18  C   UNL     1       1.770  -2.837  -2.408  0.00  0.00    +0.021 A 
ATOM     19  C   UNL     1       1.758  -1.868  -1.426  0.00  0.00    +0.013 A 
ATOM     20  C   UNL     1       2.781  -0.920  -1.373  0.00  0.00    +0.017 A 
ATOM     21 CL   UNL     1       2.804  -4.092  -4.572  0.00  0.00    -0.084 Cl
ENDBRANCH  10  20
ENDBRANCH   1  13
BRANCH   3  22
ATOM     22  C   UNL     1       0.409   2.436  -0.136  0.00  0.00    +0.436 C 
ATOM     23  F   UNL     1       0.308   1.046  -0.262  0.00  0.00    -0.166 F 
ATOM     24  F   UNL     1       1.758   2.799  -0.048  0.00  0.00    -0.166 F 
ATOM     25  F   UNL     1      -0.167   3.049  -1.253  0.00  0.00    -0.166 F 
ENDBRANCH   3  22
BRANCH   3  26
ATOM     26  O   UNL     1      -1.719   3.021   0.850  0.00  0.00    -0.364 OA
ATOM     27  H   UNL     1      -1.922   3.665   0.158  0.00  0.00    +0.212 HD
ENDBRANCH   3  26
BRANCH   2  28
ATOM     28  C   UNL     1      -0.924   2.241   3.451  0.00  0.00    +0.173 C 
ATOM     29  O   UNL     1      -1.217   3.403   3.636  0.00  0.00    -0.292 OA
BRANCH  28  30
ATOM     30  C   UNL     1      -1.352   1.213   4.412  0.00  0.00    +0.018 A 
ATOM     31  C   UNL     1      -1.021  -0.130   4.199  0.00  0.00    +0.014 A 
ATOM     32  C   UNL     1      -1.422  -1.087   5.105  0.00  0.00    +0.039 A 
ATOM     33  C   UNL     1      -2.162  -0.723   6.221  0.00  0.00    +0.123 A 
ATOM     34  C   UNL     1      -2.498   0.606   6.435  0.00  0.00    +0.039 A 
ATOM     35  C   UNL     1      -2.099   1.573   5.539  0.00  0.00    +0.014 A 
ATOM     36  F   UNL     1      -2.556  -1.667   7.103  0.00  0.00    -0.205 F 
ENDBRANCH  28  30
ENDBRANCH   2  28
TORSDOF 6
