REMARK  Name = ZINC39696167
REMARK  7 active torsions:
REMARK  status: ('A' for Active; 'I' for Inactive)
REMARK    1  A    between atoms: C_1  and  C_2
REMARK    2  A    between atoms: C_2  and  C_3
REMARK    3  A    between atoms: C_6  and  C_9
REMARK    4  A    between atoms: C_9  and  C_11
REMARK    5  A    between atoms: C_9  and  N_12
REMARK    6  A    between atoms: C_13  and  C_15
REMARK    7  A    between atoms: C_26  and  C_28
REMARK                            x       y       z     vdW  Elec       q    Type
REMARK                         _______ _______ _______ _____ _____    ______ ____
ROOT
ATOM      1  C   UNL     1      -8.573  -0.768  -2.487  0.00  0.00    +0.100 C 
ATOM      2  C   UNL     1      -8.118   0.702  -2.342  0.00  0.00    +0.121 C 
ATOM      3  N   UNL     1      -9.365   1.493  -2.466  0.00  0.00    -0.296 N 
ATOM      4  C   UNL     1     -10.380   0.701  -1.731  0.00  0.00    +0.115 C 
ATOM      5  C   UNL     1     -10.057  -0.764  -2.085  0.00  0.00    -0.004 C 
ATOM      6  C   UNL     1     -10.277  -1.661  -0.870  0.00  0.00    -0.010 C 
ATOM      7  C   UNL     1     -11.768  -1.688  -0.524  0.00  0.00    -0.082 C 
ATOM      8  N   UNL     1     -12.530  -2.191  -1.673  0.00  0.00    +0.379 N 
ATOM      9  C   UNL     1     -12.387  -1.273  -2.810  0.00  0.00    -0.082 C 
ATOM     10  C   UNL     1     -10.922  -1.229  -3.252  0.00  0.00    -0.010 C 
ATOM     11  C   UNL     1      -9.538   2.667  -3.105  0.00  0.00    +0.249 C 
ATOM     12  O   UNL     1     -10.607   3.243  -3.039  0.00  0.00    -0.270 OA
ATOM     13  H   UNL     1     -12.182  -3.102  -1.933  0.00  0.00    -0.086 HD
ATOM     14  H   UNL     1     -13.504  -2.266  -1.423  0.00  0.00    -0.086 HD
ENDROOT
BRANCH  11  15
ATOM     15  C   UNL     1      -8.430   3.254  -3.885  0.00  0.00    +0.073 A 
ATOM     16  C   UNL     1      -7.111   3.103  -3.451  0.00  0.00    +0.036 A 
ATOM     17  C   UNL     1      -6.080   3.654  -4.184  0.00  0.00    +0.042 A 
ATOM     18  C   UNL     1      -6.349   4.356  -5.348  0.00  0.00    +0.023 A 
ATOM     19  C   UNL     1      -7.652   4.510  -5.784  0.00  0.00    +0.040 A 
ATOM     20  C   UNL     1      -8.695   3.959  -5.062  0.00  0.00    +0.136 A 
ATOM     21  F   UNL     1      -9.968   4.105  -5.492  0.00  0.00    -0.205 F 
ATOM     22 CL   UNL     1      -4.439   3.467  -3.647  0.00  0.00    -0.084 Cl
ENDBRANCH  11  15
BRANCH   1  24
ATOM     23  N   UNL     1      -7.558  -2.944  -1.892  0.00  0.00    -0.308 N 
ATOM     24  C   UNL     1      -7.780  -1.656  -1.563  0.00  0.00    +0.219 C 
ATOM     25  O   UNL     1      -7.342  -1.211  -0.523  0.00  0.00    -0.275 OA
ATOM     26  H   UNL     1      -7.908  -3.299  -2.724  0.00  0.00    +0.149 HD
BRANCH  23  27
ATOM     27  C   UNL     1      -6.787  -3.807  -0.994  0.00  0.00    +0.100 C 
ATOM     28  C   UNL     1      -7.716  -4.392   0.072  0.00  0.00    +0.033 C 
BRANCH  27  32
ATOM     29  C   UNL     1      -5.019  -6.982  -3.238  0.00  0.00    -0.048 A 
ATOM     30  C   UNL     1      -4.303  -6.367  -2.228  0.00  0.00    +0.004 A 
ATOM     31  C   UNL     1      -4.875  -5.340  -1.502  0.00  0.00    +0.006 A 
ATOM     32  C   UNL     1      -6.163  -4.927  -1.786  0.00  0.00    -0.027 A 
ATOM     33  C   UNL     1      -6.879  -5.541  -2.796  0.00  0.00    +0.006 A 
ATOM     34  C   UNL     1      -6.305  -6.566  -3.525  0.00  0.00    +0.004 A 
BRANCH  29  36
ATOM     35  C   UNL     1      -3.663  -7.525  -5.242  0.00  0.00    +0.009 C 
ATOM     36  C   UNL     1      -4.395  -8.103  -4.029  0.00  0.00    +0.032 C 
ENDBRANCH  29  36
ENDBRANCH  27  32
ENDBRANCH  23  27
ENDBRANCH   1  24
TORSDOF 5
