REMARK  Name = ZINC34906208
REMARK  12 active torsions:
REMARK  status: ('A' for Active; 'I' for Inactive)
REMARK    1  A    between atoms: C_1  and  C_2
REMARK    2  A    between atoms: C_4  and  C_32
REMARK    3  A    between atoms: C_6  and  O_8
REMARK    4  A    between atoms: O_8  and  C_9
REMARK    5  A    between atoms: C_9  and  C_10
REMARK    6  A    between atoms: C_12  and  C_15
REMARK    7  A    between atoms: N_17  and  C_18
REMARK    8  A    between atoms: C_21  and  N_24
REMARK    9  A    between atoms: N_27  and  C_28
REMARK   10  A    between atoms: C_28  and  C_29
REMARK   11  A    between atoms: C_28  and  C_30
REMARK   12  A    between atoms: C_28  and  C_31
REMARK                            x       y       z     vdW  Elec       q    Type
REMARK                         _______ _______ _______ _____ _____    ______ ____
ROOT
ATOM      1  C   UNL     1       2.002  -4.804   7.195  0.00  0.00    +0.263 C 
ATOM      2  O   UNL     1       1.770  -5.541   8.135  0.00  0.00    -0.269 OA
ATOM      3  N   UNL     1       3.277  -4.522   6.859  0.00  0.00    -0.307 N 
ATOM      4  H   UNL     1       3.462  -3.935   6.110  0.00  0.00    +0.149 HD
ENDROOT
BRANCH   3   5
ATOM      5  C   UNL     1       4.382  -5.102   7.626  0.00  0.00    +0.073 C 
ATOM      6  C   UNL     1       4.703  -6.496   7.084  0.00  0.00    +0.024 C 
ATOM      7  C   UNL     1       5.857  -7.101   7.884  0.00  0.00    +0.024 C 
ATOM      8  C   UNL     1       7.092  -6.207   7.755  0.00  0.00    +0.075 C 
ATOM      9  C   UNL     1       6.772  -4.813   8.297  0.00  0.00    +0.024 C 
ATOM     10  C   UNL     1       5.617  -4.208   7.496  0.00  0.00    +0.024 C 
BRANCH   8  11
ATOM     11  N   UNL     1       7.476  -6.106   6.344  0.00  0.00    -0.297 N 
ATOM     12  C   UNL     1       8.752  -5.825   6.012  0.00  0.00    +0.300 C 
ATOM     13  O   UNL     1       9.583  -5.655   6.882  0.00  0.00    -0.253 OA
ATOM     14  N   UNL     1       9.105  -5.732   4.714  0.00  0.00    -0.295 N 
ATOM     15  H   UNL     1       6.812  -6.242   5.650  0.00  0.00    +0.151 HD
ATOM     16  H   UNL     1       8.441  -5.868   4.020  0.00  0.00    +0.151 HD
BRANCH  14  17
ATOM     17  C   UNL     1      10.491  -5.426   4.353  0.00  0.00    +0.028 C 
ATOM     18  C   UNL     1      11.415  -6.511   4.910  0.00  0.00    +0.031 C 
ATOM     19  C   UNL     1      10.622  -5.379   2.829  0.00  0.00    +0.031 C 
ATOM     20  C   UNL     1      10.884  -4.069   4.941  0.00  0.00    +0.031 C 
ENDBRANCH  14  17
ENDBRANCH   8  11
ENDBRANCH   3   5
BRANCH   1  23
ATOM     21  C   UNL     1       0.064  -2.932   4.751  0.00  0.00    +0.116 A 
ATOM     22  N   UNL     1       1.101  -3.408   5.385  0.00  0.00    -0.236 NA
ATOM     23  C   UNL     1       0.891  -4.221   6.425  0.00  0.00    +0.133 A 
ATOM     24  C   UNL     1      -0.418  -4.481   6.731  0.00  0.00    +0.080 A 
ATOM     25  S   UNL     1      -1.244  -3.586   5.574  0.00  0.00    -0.076 S 
BRANCH  21  26
ATOM     26  C   UNL     1       0.046  -2.005   3.563  0.00  0.00    +0.291 C 
BRANCH  26  27
ATOM     27  O   UNL     1       0.051  -2.775   2.359  0.00  0.00    -0.485 OA
BRANCH  27  33
ATOM     28  C   UNL     1      -0.018   1.503   0.010  0.00  0.00    +0.044 C 
ATOM     29  C   UNL     1       0.002  -0.004   0.002  0.00  0.00    -0.047 A 
ATOM     30  C   UNL     1       0.006  -0.688  -1.200  0.00  0.00    +0.007 A 
ATOM     31  C   UNL     1       0.025  -2.071  -1.210  0.00  0.00    -0.047 A 
ATOM     32  C   UNL     1       0.040  -2.772  -0.020  0.00  0.00    +0.049 A 
ATOM     33  C   UNL     1       0.036  -2.088   1.187  0.00  0.00    +0.122 A 
ATOM     34  C   UNL     1       0.023  -0.701   1.195  0.00  0.00    +0.049 A 
ATOM     35  C   UNL     1       0.029  -2.813  -2.522  0.00  0.00    +0.044 C 
ENDBRANCH  27  33
ENDBRANCH  26  27
ENDBRANCH  21  26
ENDBRANCH   1  23
TORSDOF 7
