REMARK  Name = ZINC39485722
REMARK  3 active torsions:
REMARK  status: ('A' for Active; 'I' for Inactive)
REMARK    1  A    between atoms: C_9  and  C_12
REMARK    2  A    between atoms: N_14  and  C_15
REMARK    3  A    between atoms: C_15  and  C_16
REMARK                            x       y       z     vdW  Elec       q    Type
REMARK                         _______ _______ _______ _____ _____    ______ ____
ROOT
ATOM      1  C   UNL     1       4.898  -2.639  -0.050  0.00  0.00    +0.257 C 
ATOM      2  O   UNL     1       5.739  -2.006   0.552  0.00  0.00    -0.272 OA
ATOM      3  N   UNL     1       5.136  -3.921  -0.391  0.00  0.00    -0.310 N 
ATOM      4  H   UNL     1       4.464  -4.428  -0.873  0.00  0.00    +0.149 HD
ENDROOT
BRANCH   1  13
ATOM      5  C   UNL     1      -0.017   1.378   0.010  0.00  0.00    +0.004 A 
ATOM      6  C   UNL     1       1.170   2.088   0.002  0.00  0.00    +0.004 A 
ATOM      7  C   UNL     1       2.378   1.418  -0.012  0.00  0.00    +0.049 A 
ATOM      8  C   UNL     1       2.404   0.031  -0.019  0.00  0.00    +0.163 A 
ATOM      9  C   UNL     1       1.212  -0.683  -0.014  0.00  0.00    +0.162 A 
ATOM     10  C   UNL     1       0.002  -0.004   0.002  0.00  0.00    +0.049 A 
ATOM     11  O   UNL     1       1.214  -2.043  -0.029  0.00  0.00    -0.484 OA
ATOM     12  C   UNL     1       2.441  -2.689   0.331  0.00  0.00    +0.283 C 
ATOM     13  C   UNL     1       3.587  -1.993  -0.416  0.00  0.00    +0.296 C 
ATOM     14  O   UNL     1       3.602  -0.615  -0.029  0.00  0.00    -0.473 OA
ENDBRANCH   1  13
BRANCH   3  15
ATOM     15  C   UNL     1       6.411  -4.550  -0.035  0.00  0.00    +0.137 C 
BRANCH  15  16
ATOM     16  C   UNL     1       6.424  -5.995  -0.536  0.00  0.00    +0.173 C 
ATOM     17  C   UNL     1       7.793  -6.616  -0.348  0.00  0.00    -0.019 C 
ATOM     18  C   UNL     1       8.201  -6.918  -1.579  0.00  0.00    +0.065 C 
ATOM     19  C   UNL     1       9.578  -7.556  -1.523  0.00  0.00    +0.057 C 
ATOM     20  C   UNL     1      10.127  -7.205  -0.124  0.00  0.00    +0.011 C 
ATOM     21  C   UNL     1       8.824  -7.000   0.682  0.00  0.00    +0.035 C 
ATOM     22  N   UNL     1       7.250  -6.557  -2.483  0.00  0.00    -0.158 NA
ATOM     23  N   UNL     1       6.237  -6.044  -1.996  0.00  0.00    -0.178 NA
ENDBRANCH  15  16
ENDBRANCH   3  15
TORSDOF 3
