REMARK  Name = ZINC20114638
REMARK  7 active torsions:
REMARK  status: ('A' for Active; 'I' for Inactive)
REMARK    1  A    between atoms: C_1  and  C_2
REMARK    2  A    between atoms: C_5  and  C_8
REMARK    3  A    between atoms: C_8  and  O_10
REMARK    4  A    between atoms: O_10  and  C_11
REMARK    5  A    between atoms: C_14  and  C_17
REMARK    6  A    between atoms: C_28  and  S_29
REMARK    7  A    between atoms: S_29  and  C_30
REMARK                            x       y       z     vdW  Elec       q    Type
REMARK                         _______ _______ _______ _____ _____    ______ ____
ROOT
ATOM      1  C   UNL     1      -0.149  -6.287   1.267  0.00  0.00    +0.132 A 
ATOM      2  C   UNL     1       0.178  -6.984   0.109  0.00  0.00    +0.047 A 
ATOM      3  C   UNL     1       0.230  -8.354   0.121  0.00  0.00    +0.011 A 
ATOM      4  C   UNL     1      -0.046  -9.053   1.305  0.00  0.00    -0.024 A 
ATOM      5  C   UNL     1      -0.374  -8.345   2.470  0.00  0.00    +0.011 A 
ATOM      6  C   UNL     1      -0.418  -6.974   2.446  0.00  0.00    +0.047 A 
ENDROOT
BRANCH   4   7
ATOM      7  C   UNL     1       0.007 -10.517   1.324  0.00  0.00    +0.024 C 
ATOM      8  C   UNL     1       0.454 -11.174   2.448  0.00  0.00    +0.079 C 
ATOM      9  C   UNL     1       0.359 -12.657   2.583  0.00  0.00    +0.137 C 
ATOM     10  N   UNL     1       0.456 -13.478   1.573  0.00  0.00    -0.284 NA
ATOM     11  N   UNL     1       0.154 -13.080   3.912  0.00  0.00    -0.211 N 
ATOM     12  C   UNL     1       0.541 -12.240   4.936  0.00  0.00    +0.183 C 
ATOM     13  N   UNL     1       1.001 -11.014   4.812  0.00  0.00    -0.152 NA
ATOM     14  C   UNL     1       1.062 -10.448   3.591  0.00  0.00    +0.273 C 
ATOM     15  O   UNL     1       1.599  -9.364   3.427  0.00  0.00    -0.268 OA
ATOM     16  S   UNL     1       0.262 -13.148   6.306  0.00  0.00    +0.048 S 
ATOM     17  N   UNL     1      -0.425 -14.505   5.601  0.00  0.00    -0.185 NA
ATOM     18  C   UNL     1      -0.387 -14.256   4.320  0.00  0.00    +0.175 C 
ATOM     19  H   UNL     1       0.597 -13.132   0.678  0.00  0.00    +0.188 HD
BRANCH  18  20
ATOM     20  S   UNL     1      -1.020 -15.415   3.154  0.00  0.00    -0.093 S 
ATOM     21  C   UNL     1      -1.616 -16.788   4.179  0.00  0.00    +0.093 C 
ENDBRANCH  18  20
ENDBRANCH   4   7
BRANCH   1  22
ATOM     22  O   UNL     1      -0.199  -4.931   1.249  0.00  0.00    -0.422 OA
BRANCH  22  23
ATOM     23  C   UNL     1      -1.279  -4.345   0.697  0.00  0.00    +0.344 C 
ATOM     24  O   UNL     1      -2.128  -5.025   0.155  0.00  0.00    -0.245 OA
BRANCH  23  29
ATOM     25  C   UNL     1      -1.874   1.374   0.907  0.00  0.00    +0.044 C 
ATOM     26  C   UNL     1      -1.718  -0.124   0.851  0.00  0.00    -0.050 A 
ATOM     27  C   UNL     1      -2.686  -0.895   0.233  0.00  0.00    +0.004 A 
ATOM     28  C   UNL     1      -2.550  -2.267   0.179  0.00  0.00    +0.015 A 
ATOM     29  C   UNL     1      -1.432  -2.877   0.750  0.00  0.00    +0.059 A 
ATOM     30  C   UNL     1      -0.458  -2.093   1.372  0.00  0.00    +0.015 A 
ATOM     31  C   UNL     1      -0.604  -0.722   1.414  0.00  0.00    +0.004 A 
ENDBRANCH  23  29
ENDBRANCH  22  23
ENDBRANCH   1  22
TORSDOF 5
