REMARK  Name = ZINC04038824
REMARK  3 active torsions:
REMARK  status: ('A' for Active; 'I' for Inactive)
REMARK    1  A    between atoms: C_1  and  C_2
REMARK    2  A    between atoms: C_2  and  C_4
REMARK    3  A    between atoms: C_2  and  N_16
REMARK                            x       y       z     vdW  Elec       q    Type
REMARK                         _______ _______ _______ _____ _____    ______ ____
ROOT
ATOM      1  C   UNL     1      -2.763   9.668  -1.173  0.00  0.00    +0.038 C 
ATOM      2  C   UNL     1      -3.334   9.000   0.079  0.00  0.00    +0.168 C 
ENDROOT
BRANCH   2   3
ATOM      3  C   UNL     1      -2.987   7.534   0.068  0.00  0.00    +0.239 C 
ATOM      4  O   UNL     1      -3.869   6.701   0.073  0.00  0.00    -0.273 OA
ATOM      5  N   UNL     1      -1.695   7.147   0.054  0.00  0.00    -0.263 N 
ATOM      6  C   UNL     1      -1.376   5.799   0.044  0.00  0.00    +0.165 A 
ATOM      7  N   UNL     1      -0.191   5.234   0.030  0.00  0.00    -0.225 NA
ATOM      8  C   UNL     1      -0.026   3.894   0.022  0.00  0.00    +0.080 A 
ATOM      9  C   UNL     1       1.185   3.163   0.007  0.00  0.00    +0.029 A 
ATOM     10  C   UNL     1       1.175   1.793   0.001  0.00  0.00    +0.002 A 
ATOM     11  C   UNL     1      -0.013   1.076   0.008  0.00  0.00    +0.001 A 
ATOM     12  C   UNL     1      -1.215   1.758   0.017  0.00  0.00    +0.017 A 
ATOM     13  C   UNL     1      -1.216   3.131   0.029  0.00  0.00    +0.041 A 
ATOM     14  S   UNL     1      -2.471   4.387   0.048  0.00  0.00    -0.052 S 
ATOM     15  H   UNL     1      -0.990   7.813   0.050  0.00  0.00    +0.157 HD
ENDBRANCH   2   3
BRANCH   2  16
ATOM     16  N   UNL     1      -4.791   9.156   0.094  0.00  0.00    -0.222 N 
ATOM     17  C   UNL     1      -5.616   8.695  -0.864  0.00  0.00    +0.254 C 
ATOM     18  O   UNL     1      -5.277   8.093  -1.862  0.00  0.00    -0.270 OA
ATOM     19  C   UNL     1      -7.005   9.043  -0.496  0.00  0.00    +0.049 A 
ATOM     20  C   UNL     1      -8.243   8.832  -1.082  0.00  0.00    +0.014 A 
ATOM     21  C   UNL     1      -9.387   9.306  -0.460  0.00  0.00    +0.001 A 
ATOM     22  C   UNL     1      -9.302   9.987   0.740  0.00  0.00    +0.001 A 
ATOM     23  C   UNL     1      -8.070  10.206   1.338  0.00  0.00    +0.014 A 
ATOM     24  C   UNL     1      -6.918   9.737   0.727  0.00  0.00    +0.049 A 
ATOM     25  C   UNL     1      -5.479   9.784   1.064  0.00  0.00    +0.254 C 
ATOM     26  O   UNL     1      -4.999  10.303   2.052  0.00  0.00    -0.270 OA
ENDBRANCH   2  16
TORSDOF 2
