REMARK  Name = ZINC18199017
REMARK  10 active torsions:
REMARK  status: ('A' for Active; 'I' for Inactive)
REMARK    1  A    between atoms: C_1  and  O_2
REMARK    2  A    between atoms: O_2  and  C_3
REMARK    3  A    between atoms: C_6  and  O_36
REMARK    4  A    between atoms: C_7  and  C_9
REMARK    5  A    between atoms: C_14  and  C_19
REMARK    6  A    between atoms: C_22  and  O_27
REMARK    7  A    between atoms: C_23  and  O_25
REMARK    8  A    between atoms: O_25  and  C_26
REMARK    9  A    between atoms: O_27  and  C_28
REMARK   10  A    between atoms: O_36  and  C_37
REMARK                            x       y       z     vdW  Elec       q    Type
REMARK                         _______ _______ _______ _____ _____    ______ ____
ROOT
ATOM      1  C   UNL     1       6.584  -0.262  -0.060  0.00  0.00    +0.179 C 
ATOM      2  C   UNL     1       5.241   0.431   0.011  0.00  0.00    +0.041 C 
ATOM      3  C   UNL     1       4.637   0.707   1.186  0.00  0.00    +0.020 C 
ATOM      4  C   UNL     1       3.303   1.415   1.225  0.00  0.00    +0.060 C 
ATOM      5  C   UNL     1       2.489   1.046  -0.017  0.00  0.00    +0.032 C 
ATOM      6  C   UNL     1       3.292   1.451  -1.258  0.00  0.00    +0.088 C 
ATOM      7  C   UNL     1       4.636   0.778  -1.211  0.00  0.00    +0.164 C 
ATOM      8  O   UNL     1       5.212   0.530  -2.251  0.00  0.00    -0.292 OA
ATOM      9  N   UNL     1       5.200   0.356   2.390  0.00  0.00    -0.287 N 
ATOM     10  C   UNL     1       6.256  -0.540   2.380  0.00  0.00    +0.220 A 
ATOM     11  N   UNL     1       6.914  -0.845   1.234  0.00  0.00    -0.219 N 
ATOM     12  N   UNL     1       7.898  -1.772   1.574  0.00  0.00    -0.132 NA
ATOM     13  C   UNL     1       7.796  -1.974   2.870  0.00  0.00    +0.233 A 
ATOM     14  N   UNL     1       6.797  -1.222   3.352  0.00  0.00    -0.180 NA
ATOM     15  N   UNL     1       8.599  -2.834   3.622  0.00  0.00    -0.326 N 
ATOM     16  H   UNL     1       4.867   0.726   3.223  0.00  0.00    +0.155 HD
ATOM     17  H   UNL     1       9.302  -3.344   3.189  0.00  0.00    +0.145 HD
ATOM     18  H   UNL     1       8.453  -2.922   4.577  0.00  0.00    +0.145 HD
ENDROOT
BRANCH   1  23
ATOM     19  C   UNL     1       8.852   2.760   0.010  0.00  0.00    +0.121 A 
ATOM     20  C   UNL     1       9.594   2.577  -1.147  0.00  0.00    +0.049 A 
ATOM     21  C   UNL     1       9.362   1.478  -1.950  0.00  0.00    +0.049 A 
ATOM     22  C   UNL     1       8.390   0.554  -1.596  0.00  0.00    +0.126 A 
ATOM     23  C   UNL     1       7.644   0.739  -0.442  0.00  0.00    +0.027 A 
ATOM     24  C   UNL     1       7.876   1.839   0.361  0.00  0.00    +0.055 A 
BRANCH  19  26
ATOM     25  C   UNL     1      10.100   4.750   0.379  0.00  0.00    +0.277 C 
ATOM     26  O   UNL     1       9.081   3.843   0.801  0.00  0.00    -0.495 OA
ENDBRANCH  19  26
BRANCH  22  27
ATOM     27  O   UNL     1       8.165  -0.532  -2.384  0.00  0.00    -0.495 OA
ATOM     28  C   UNL     1       8.970  -0.660  -3.557  0.00  0.00    +0.277 C 
ENDBRANCH  22  27
ENDBRANCH   1  23
BRANCH   5  29
ATOM     29  C   UNL     1       1.175   1.783   0.000  0.00  0.00    -0.040 A 
ATOM     30  C   UNL     1       1.160   3.166   0.008  0.00  0.00    +0.008 A 
ATOM     31  C   UNL     1      -0.043   3.847   0.023  0.00  0.00    +0.049 A 
ATOM     32  C   UNL     1      -1.237   3.144   0.030  0.00  0.00    +0.161 A 
ATOM     33  C   UNL     1      -1.222   1.752   0.017  0.00  0.00    +0.162 A 
ATOM     34  C   UNL     1      -0.013   1.076   0.008  0.00  0.00    +0.053 A 
BRANCH  33  35
ATOM     35  O   UNL     1      -2.391   1.058   0.019  0.00  0.00    -0.491 OA
ATOM     36  C   UNL     1      -2.299  -0.368   0.011  0.00  0.00    +0.277 C 
ENDBRANCH  33  35
BRANCH  32  37
ATOM     37  O   UNL     1      -2.421   3.812   0.044  0.00  0.00    -0.491 OA
ATOM     38  C   UNL     1      -2.361   5.240   0.051  0.00  0.00    +0.277 C 
ENDBRANCH  32  37
ENDBRANCH   5  29
TORSDOF 6
