REMARK  Name = ZINC00648999
REMARK  14 active torsions:
REMARK  status: ('A' for Active; 'I' for Inactive)
REMARK    1  A    between atoms: C_1  and  C_2
REMARK    2  A    between atoms: C_2  and  O_3
REMARK    3  A    between atoms: O_3  and  C_4
REMARK    4  A    between atoms: C_4  and  C_6
REMARK    5  A    between atoms: C_7  and  N_37
REMARK    6  A    between atoms: C_11  and  C_13
REMARK    7  A    between atoms: C_16  and  O_28
REMARK    8  A    between atoms: C_17  and  C_19
REMARK    9  A    between atoms: C_19  and  O_20
REMARK   10  A    between atoms: O_20  and  C_21
REMARK   11  A    between atoms: C_24  and  C_27
REMARK   12  A    between atoms: O_28  and  C_29
REMARK   13  A    between atoms: C_33  and  C_35
REMARK   14  A    between atoms: C_33  and  C_36
REMARK                            x       y       z     vdW  Elec       q    Type
REMARK                         _______ _______ _______ _____ _____    ______ ____
ROOT
ATOM      1  C   UNL     1      -0.434  -2.733  -0.057  0.00  0.00    +0.105 C 
ATOM      2  C   UNL     1      -1.316  -1.784   0.350  0.00  0.00    +0.195 C 
ATOM      3  O   UNL     1      -0.962  -0.493   0.434  0.00  0.00    -0.446 OA
ATOM      4  C   UNL     1       0.091  -0.040  -0.273  0.00  0.00    +0.115 C 
ATOM      5  C   UNL     1       1.053  -0.872  -0.710  0.00  0.00    +0.045 C 
ATOM      6  C   UNL     1       0.972  -2.354  -0.430  0.00  0.00    +0.097 C 
ATOM      7  C   UNL     1       2.163  -0.394  -1.433  0.00  0.00    +0.164 C 
ATOM      8  O   UNL     1       3.001  -1.179  -1.827  0.00  0.00    -0.292 OA
ATOM      9  C   UNL     1       2.329   1.073  -1.726  0.00  0.00    +0.086 C 
ATOM     10  C   UNL     1       1.629   1.880  -0.627  0.00  0.00    -0.021 C 
ATOM     11  C   UNL     1       0.165   1.442  -0.561  0.00  0.00    +0.081 C 
ATOM     12  C   UNL     1       1.705   3.372  -0.959  0.00  0.00    +0.012 C 
ATOM     13  C   UNL     1       2.307   1.613   0.718  0.00  0.00    +0.012 C 
ENDROOT
BRANCH   6  14
ATOM     14  C   UNL     1       1.899  -2.699   0.706  0.00  0.00    -0.034 A 
ATOM     15  C   UNL     1       1.719  -2.113   1.946  0.00  0.00    +0.008 A 
ATOM     16  C   UNL     1       2.568  -2.428   2.990  0.00  0.00    +0.046 A 
ATOM     17  C   UNL     1       3.601  -3.333   2.793  0.00  0.00    +0.126 A 
ATOM     18  C   UNL     1       3.779  -3.920   1.549  0.00  0.00    +0.032 A 
ATOM     19  C   UNL     1       2.924  -3.606   0.510  0.00  0.00    +0.015 A 
BRANCH  17  20
ATOM     20  O   UNL     1       4.436  -3.645   3.819  0.00  0.00    -0.495 OA
ATOM     21  C   UNL     1       4.194  -3.003   5.072  0.00  0.00    +0.277 C 
ENDBRANCH  17  20
BRANCH  18  22
ATOM     22  C   UNL     1       4.900  -4.904   1.332  0.00  0.00    +0.268 C 
BRANCH  22  23
ATOM     23  O   UNL     1       4.874  -5.364  -0.020  0.00  0.00    -0.487 OA
BRANCH  23  24
ATOM     24  C   UNL     1       5.827  -6.263  -0.384  0.00  0.00    +0.121 A 
ATOM     25  C   UNL     1       6.769  -6.689   0.541  0.00  0.00    +0.046 A 
ATOM     26  C   UNL     1       7.733  -7.607   0.171  0.00  0.00    +0.007 A 
ATOM     27  C   UNL     1       7.765  -8.093  -1.123  0.00  0.00    -0.050 A 
ATOM     28  C   UNL     1       6.830  -7.667  -2.048  0.00  0.00    +0.007 A 
ATOM     29  C   UNL     1       5.861  -6.753  -1.681  0.00  0.00    +0.046 A 
ATOM     30  C   UNL     1       8.821  -9.090  -1.526  0.00  0.00    +0.044 C 
ENDBRANCH  23  24
ENDBRANCH  22  23
ENDBRANCH  18  22
ENDBRANCH   6  14
BRANCH   2  31
ATOM     31  N   UNL     1      -2.592  -2.152   0.681  0.00  0.00    -0.329 N 
ATOM     32  H   UNL     1      -3.063  -1.685   1.389  0.00  0.00    +0.145 HD
ATOM     33  H   UNL     1      -3.025  -2.880   0.208  0.00  0.00    +0.145 HD
ENDBRANCH   2  31
BRANCH   1  34
ATOM     34  C   UNL     1      -0.837  -4.076  -0.130  0.00  0.00    +0.341 C 
ATOM     35  O   UNL     1      -1.937  -4.404   0.277  0.00  0.00    -0.245 OA
BRANCH  34  36
ATOM     36  O   UNL     1      -0.005  -5.003  -0.650  0.00  0.00    -0.462 OA
BRANCH  36  38
ATOM     37  C   UNL     1       0.591  -7.250  -1.311  0.00  0.00    +0.048 C 
ATOM     38  C   UNL     1      -0.481  -6.350  -0.693  0.00  0.00    +0.229 C 
ENDBRANCH  36  38
ENDBRANCH  34  36
ENDBRANCH   1  34
TORSDOF 9
