REMARK  Name = ZINC21228482
REMARK  11 active torsions:
REMARK  status: ('A' for Active; 'I' for Inactive)
REMARK    1  A    between atoms: C_1  and  C_2
REMARK    2  A    between atoms: C_2  and  C_3
REMARK    3  A    between atoms: C_3  and  C_4
REMARK    4  A    between atoms: C_4  and  O_5
REMARK    5  A    between atoms: O_5  and  C_6
REMARK    6  A    between atoms: C_11  and  C_12
REMARK    7  A    between atoms: C_17  and  C_22
REMARK    8  A    between atoms: C_24  and  O_30
REMARK    9  A    between atoms: C_27  and  O_28
REMARK   10  A    between atoms: O_28  and  C_29
REMARK   11  A    between atoms: O_30  and  C_31
REMARK                            x       y       z     vdW  Elec       q    Type
REMARK                         _______ _______ _______ _____ _____    ______ ____
ROOT
ATOM      1  C   UNL     1       2.449   3.948  -0.001  0.00  0.00    +0.139 C 
ATOM      2  C   UNL     1       3.037   3.883  -1.390  0.00  0.00    +0.037 C 
ATOM      3  C   UNL     1       3.117   4.904  -2.261  0.00  0.00    +0.017 C 
ATOM      4  C   UNL     1       3.748   4.703  -3.629  0.00  0.00    +0.060 C 
ATOM      5  C   UNL     1       3.503   3.276  -4.113  0.00  0.00    +0.036 C 
ATOM      6  C   UNL     1       4.129   2.321  -3.089  0.00  0.00    +0.088 C 
ATOM      7  C   UNL     1       3.527   2.605  -1.745  0.00  0.00    +0.163 C 
ATOM      8  O   UNL     1       3.459   1.704  -0.931  0.00  0.00    -0.292 OA
ATOM      9  N   UNL     1       2.679   6.165  -2.015  0.00  0.00    -0.316 N 
ATOM     10  C   UNL     1       1.449   6.486  -1.454  0.00  0.00    +0.052 A 
ATOM     11  C   UNL     1       0.497   7.228  -2.132  0.00  0.00    +0.025 A 
ATOM     12  C   UNL     1      -0.658   7.613  -1.473  0.00  0.00    +0.002 A 
ATOM     13  C   UNL     1      -0.859   7.259  -0.152  0.00  0.00    +0.002 A 
ATOM     14  C   UNL     1       0.081   6.497   0.520  0.00  0.00    +0.025 A 
ATOM     15  C   UNL     1       1.230   6.095  -0.141  0.00  0.00    +0.049 A 
ATOM     16  N   UNL     1       2.184   5.288   0.478  0.00  0.00    -0.331 N 
ATOM     17  H   UNL     1       3.316   7.027  -2.264  0.00  0.00    +0.152 HD
ATOM     18  H   UNL     1       2.737   5.683   1.342  0.00  0.00    +0.147 HD
ENDROOT
BRANCH   1  24
ATOM     19  C   UNL     1       0.648   2.686   1.202  0.00  0.00    +0.126 A 
ATOM     20  C   UNL     1      -0.542   1.972   1.207  0.00  0.00    +0.046 A 
ATOM     21  C   UNL     1      -1.214   1.745   0.022  0.00  0.00    +0.004 A 
ATOM     22  C   UNL     1      -0.707   2.236  -1.167  0.00  0.00    +0.001 A 
ATOM     23  C   UNL     1       0.478   2.947  -1.175  0.00  0.00    +0.009 A 
ATOM     24  C   UNL     1       1.157   3.173   0.008  0.00  0.00    +0.019 A 
BRANCH  19  25
ATOM     25  O   UNL     1       1.314   2.907   2.366  0.00  0.00    -0.492 OA
BRANCH  25  26
ATOM     26  C   UNL     1       0.731   2.375   3.558  0.00  0.00    +0.229 C 
BRANCH  26  27
ATOM     27  C   UNL     1       1.616   2.722   4.757  0.00  0.00    +0.041 C 
BRANCH  27  29
ATOM     28  C   UNL     1       1.877   2.499   7.232  0.00  0.00    +0.004 C 
ATOM     29  C   UNL     1       0.992   2.153   6.033  0.00  0.00    -0.000 C 
ENDBRANCH  27  29
ENDBRANCH  26  27
ENDBRANCH  25  26
ENDBRANCH  19  25
ENDBRANCH   1  24
BRANCH   5  30
ATOM     30  C   UNL     1       4.150   3.075  -5.459  0.00  0.00    +0.002 A 
ATOM     31  C   UNL     1       5.513   3.246  -5.603  0.00  0.00    +0.053 A 
ATOM     32  C   UNL     1       6.109   3.057  -6.841  0.00  0.00    +0.121 A 
ATOM     33  C   UNL     1       5.334   2.706  -7.937  0.00  0.00    +0.049 A 
ATOM     34  C   UNL     1       3.971   2.540  -7.794  0.00  0.00    +0.049 A 
ATOM     35  C   UNL     1       3.376   2.724  -6.555  0.00  0.00    +0.124 A 
BRANCH  35  36
ATOM     36  O   UNL     1       2.033   2.560  -6.414  0.00  0.00    -0.495 OA
ATOM     37  C   UNL     1       1.298   2.198  -7.585  0.00  0.00    +0.277 C 
ENDBRANCH  35  36
BRANCH  32  38
ATOM     38  O   UNL     1       7.452   3.221  -6.982  0.00  0.00    -0.495 OA
ATOM     39  C   UNL     1       7.997   3.016  -8.286  0.00  0.00    +0.277 C 
ENDBRANCH  32  38
ENDBRANCH   5  30
TORSDOF 8
