REMARK  Name = ZINC02147637
REMARK  4 active torsions:
REMARK  status: ('A' for Active; 'I' for Inactive)
REMARK    1  A    between atoms: C_4  and  S_11
REMARK    2  A    between atoms: C_5  and  N_7
REMARK    3  A    between atoms: N_9  and  O_10
REMARK    4  A    between atoms: S_11  and  C_12
REMARK                            x       y       z     vdW  Elec       q    Type
REMARK                         _______ _______ _______ _____ _____    ______ ____
ROOT
ATOM      1  C   UNL     1      -3.670   1.935   0.205  0.00  0.00    +0.002 A 
ATOM      2  C   UNL     1      -4.840   1.198   0.180  0.00  0.00    +0.001 A 
ATOM      3  C   UNL     1      -4.792  -0.183   0.183  0.00  0.00    +0.017 A 
ATOM      4  C   UNL     1      -3.567  -0.835   0.206  0.00  0.00    +0.036 A 
ATOM      5  C   UNL     1      -2.387  -0.092   0.237  0.00  0.00    +0.046 A 
ATOM      6  C   UNL     1      -2.445   1.294   0.234  0.00  0.00    +0.024 A 
ENDROOT
BRANCH   5   7
ATOM      7  N   UNL     1      -1.148  -0.743   0.267  0.00  0.00    -0.302 N 
ATOM      8  C   UNL     1      -0.054  -0.117   0.825  0.00  0.00    +0.228 C 
ATOM      9  N   UNL     1      -0.196   1.019   1.423  0.00  0.00    -0.080 NA
ATOM     10  H   UNL     1      -1.059  -1.634  -0.106  0.00  0.00    +0.153 HD
BRANCH   9  11
ATOM     11  O   UNL     1       0.928   1.662   1.997  0.00  0.00    -0.408 OA
ATOM     12  H   UNL     1       0.724   2.506   2.422  0.00  0.00    +0.328 HD
ENDBRANCH   9  11
ENDBRANCH   5   7
BRANCH   4  13
ATOM     13  S   UNL     1      -3.503  -2.596   0.203  0.00  0.00    -0.061 S 
BRANCH  13  14
ATOM     14  C   UNL     1      -3.035  -2.888   1.876  0.00  0.00    +0.140 A 
ATOM     15  N   UNL     1      -2.730  -2.017   2.811  0.00  0.00    -0.232 NA
ATOM     16  C   UNL     1      -2.391  -2.387   4.065  0.00  0.00    +0.081 A 
ATOM     17  C   UNL     1      -2.047  -1.557   5.157  0.00  0.00    +0.049 A 
ATOM     18  C   UNL     1      -1.720  -2.100   6.373  0.00  0.00    +0.043 A 
ATOM     19  C   UNL     1      -1.713  -3.473   6.576  0.00  0.00    +0.021 A 
ATOM     20  C   UNL     1      -2.044  -4.314   5.529  0.00  0.00    +0.018 A 
ATOM     21  C   UNL     1      -2.373  -3.779   4.309  0.00  0.00    +0.040 A 
ATOM     22  S   UNL     1      -2.849  -4.446   2.732  0.00  0.00    -0.061 S 
ATOM     23 CL   UNL     1      -1.304  -1.046   7.689  0.00  0.00    -0.083 Cl
ENDBRANCH  13  14
ENDBRANCH   4  13
TORSDOF 4
