REMARK  Name = ZINC41604931
REMARK  6 active torsions:
REMARK  status: ('A' for Active; 'I' for Inactive)
REMARK    1  A    between atoms: C_1  and  C_2
REMARK    2  A    between atoms: N_5  and  C_8
REMARK    3  A    between atoms: C_8  and  C_9
REMARK    4  A    between atoms: C_12  and  N_15
REMARK    5  A    between atoms: C_20  and  C_23
REMARK    6  A    between atoms: C_23  and  C_24
REMARK                            x       y       z     vdW  Elec       q    Type
REMARK                         _______ _______ _______ _____ _____    ______ ____
ROOT
ATOM      1  N   UNL     1       1.535  -5.565   6.353  0.00  0.00    -0.284 N 
ATOM      2  C   UNL     1       2.865  -5.337   6.601  0.00  0.00    +0.217 A 
ATOM      3  N   UNL     1       3.576  -4.649   5.730  0.00  0.00    -0.174 NA
ATOM      4  C   UNL     1       4.875  -4.413   5.948  0.00  0.00    +0.297 A 
ATOM      5  O   UNL     1       5.530  -3.775   5.138  0.00  0.00    -0.264 OA
ATOM      6  C   UNL     1       5.505  -4.925   7.168  0.00  0.00    +0.135 A 
ATOM      7  N   UNL     1       4.780  -5.603   8.016  0.00  0.00    -0.170 NA
ATOM      8  N   UNL     1       3.423  -5.818   7.741  0.00  0.00    -0.248 N 
ATOM      9  H   UNL     1       0.984  -5.998   7.024  0.00  0.00    +0.155 HD
ATOM     10  H   UNL     1       2.878  -6.318   8.369  0.00  0.00    +0.192 HD
ENDROOT
BRANCH   1  14
ATOM     11  C   UNL     1      -0.138  -4.401   2.720  0.00  0.00    -0.064 A 
ATOM     12  C   UNL     1       1.175  -4.833   2.769  0.00  0.00    +0.003 A 
ATOM     13  C   UNL     1       1.733  -5.220   3.971  0.00  0.00    +0.023 A 
ATOM     14  C   UNL     1       0.974  -5.174   5.134  0.00  0.00    +0.034 A 
ATOM     15  C   UNL     1      -0.345  -4.740   5.082  0.00  0.00    +0.023 A 
ATOM     16  C   UNL     1      -0.895  -4.350   3.877  0.00  0.00    +0.003 A 
BRANCH  11  17
ATOM     17  C   UNL     1      -0.743  -3.980   1.406  0.00  0.00    -0.043 C 
BRANCH  17  22
ATOM     18  C   UNL     1       0.631   1.250  -0.404  0.00  0.00    +0.007 C 
ATOM     19  C   UNL     1       0.452  -0.266  -0.307  0.00  0.00    -0.018 C 
ATOM     20  C   UNL     1      -1.039  -0.600  -0.197  0.00  0.00    -0.016 C 
ATOM     21  C   UNL     1      -1.206  -2.111  -0.021  0.00  0.00    -0.078 C 
ATOM     22  N   UNL     1      -0.515  -2.544   1.200  0.00  0.00    +0.382 N 
ATOM     23  C   UNL     1       0.926  -2.293   1.071  0.00  0.00    -0.078 C 
ATOM     24  C   UNL     1       1.175  -0.789   0.937  0.00  0.00    -0.016 C 
ATOM     25  H   UNL     1      -0.876  -2.031   1.990  0.00  0.00    -0.081 HD
ENDBRANCH  17  22
ENDBRANCH  11  17
ENDBRANCH   1  14
BRANCH   6  26
ATOM     26  C   UNL     1       6.966  -4.674   7.439  0.00  0.00    +0.137 C 
BRANCH  26  27
ATOM     27  C   UNL     1       7.349  -5.307   8.752  0.00  0.00    +0.111 A 
ATOM     28  C   UNL     1       7.810  -6.560   8.916  0.00  0.00    +0.045 A 
ATOM     29  C   UNL     1       8.040  -6.733  10.300  0.00  0.00    +0.041 A 
ATOM     30  C   UNL     1       7.707  -5.576  10.899  0.00  0.00    +0.195 A 
ATOM     31  O   UNL     1       7.294  -4.713   9.956  0.00  0.00    -0.467 OA
ENDBRANCH  26  27
ENDBRANCH   6  26
TORSDOF 5
