REMARK  Name = ZINC39672167
REMARK  8 active torsions:
REMARK  status: ('A' for Active; 'I' for Inactive)
REMARK    1  A    between atoms: C_1  and  C_2
REMARK    2  A    between atoms: C_2  and  O_3
REMARK    3  A    between atoms: O_3  and  C_4
REMARK    4  A    between atoms: C_7  and  C_10
REMARK    5  A    between atoms: C_14  and  C_23
REMARK    6  A    between atoms: N_25  and  C_26
REMARK    7  A    between atoms: C_26  and  C_27
REMARK    8  A    between atoms: N_36  and  C_37
REMARK                            x       y       z     vdW  Elec       q    Type
REMARK                         _______ _______ _______ _____ _____    ______ ____
ROOT
ATOM      1  C   UNL     1       1.133  -6.034   1.761  0.00  0.00    +0.247 C 
ATOM      2  O   UNL     1       0.565  -6.779   0.986  0.00  0.00    -0.270 OA
ATOM      3  N   UNL     1       1.856  -6.544   2.778  0.00  0.00    -0.296 N 
ATOM      4  C   UNL     1       2.506  -5.809   3.888  0.00  0.00    +0.121 C 
ATOM      5  C   UNL     1       2.280  -6.697   5.131  0.00  0.00    +0.100 C 
ATOM      6  C   UNL     1       2.068  -8.113   4.568  0.00  0.00    -0.004 C 
ATOM      7  C   UNL     1       2.174  -7.968   3.043  0.00  0.00    +0.115 C 
ATOM      8  C   UNL     1       3.149  -9.056   5.087  0.00  0.00    -0.010 C 
ATOM      9  C   UNL     1       2.883 -10.469   4.560  0.00  0.00    -0.082 C 
ATOM     10  N   UNL     1       1.559 -10.918   5.006  0.00  0.00    +0.379 N 
ATOM     11  C   UNL     1       0.518 -10.061   4.428  0.00  0.00    -0.082 C 
ATOM     12  C   UNL     1       0.684  -8.630   4.949  0.00  0.00    -0.010 C 
ATOM     13  H   UNL     1       1.411 -11.871   4.710  0.00  0.00    -0.086 HD
ATOM     14  H   UNL     1       1.511 -10.871   6.013  0.00  0.00    -0.086 HD
ENDROOT
BRANCH   1  18
ATOM     15  C   UNL     1       0.841  -1.827   1.262  0.00  0.00    +0.121 A 
ATOM     16  C   UNL     1       1.930  -2.372   1.933  0.00  0.00    +0.046 A 
ATOM     17  C   UNL     1       2.029  -3.736   2.096  0.00  0.00    +0.016 A 
ATOM     18  C   UNL     1       1.031  -4.572   1.588  0.00  0.00    +0.037 A 
ATOM     19  C   UNL     1      -0.062  -4.021   0.915  0.00  0.00    +0.016 A 
ATOM     20  C   UNL     1      -0.156  -2.656   0.760  0.00  0.00    +0.046 A 
BRANCH  15  21
ATOM     21  O   UNL     1       0.747  -0.483   1.103  0.00  0.00    -0.492 OA
BRANCH  21  23
ATOM     22  C   UNL     1       1.528   1.789   1.369  0.00  0.00    +0.048 C 
ATOM     23  C   UNL     1       1.806   0.310   1.644  0.00  0.00    +0.225 C 
ENDBRANCH  21  23
ENDBRANCH  15  21
ENDBRANCH   1  18
BRANCH   5  24
ATOM     24  C   UNL     1       1.058  -6.242   5.886  0.00  0.00    +0.218 C 
ATOM     25  O   UNL     1       0.101  -5.804   5.284  0.00  0.00    -0.275 OA
ATOM     26  N   UNL     1       1.029  -6.321   7.232  0.00  0.00    -0.311 N 
ATOM     27  H   UNL     1       1.794  -6.671   7.714  0.00  0.00    +0.149 HD
BRANCH  26  28
ATOM     28  C   UNL     1      -0.159  -5.878   7.966  0.00  0.00    +0.139 C 
BRANCH  28  29
ATOM     29  C   UNL     1       0.063  -6.070   9.444  0.00  0.00    -0.030 A 
ATOM     30  C   UNL     1      -0.288  -7.266  10.044  0.00  0.00    +0.007 A 
ATOM     31  C   UNL     1      -0.086  -7.441  11.398  0.00  0.00    +0.024 A 
ATOM     32  C   UNL     1       0.471  -6.418  12.157  0.00  0.00    +0.033 A 
ATOM     33  C   UNL     1       0.827  -5.221  11.554  0.00  0.00    -0.026 A 
ATOM     34  C   UNL     1       0.623  -5.055  10.194  0.00  0.00    +0.010 A 
ATOM     35  C   UNL     1       1.442  -4.095  12.342  0.00  0.00    +0.038 C 
ATOM     36  C   UNL     1       1.133  -4.252  13.831  0.00  0.00    +0.024 C 
ATOM     37  C   UNL     1       1.514  -5.672  14.270  0.00  0.00    +0.105 C 
ATOM     38  N   UNL     1       0.664  -6.614  13.529  0.00  0.00    -0.333 N 
ATOM     39  C   UNL     1       0.027  -7.740  14.217  0.00  0.00    +0.129 C 
ENDBRANCH  28  29
ENDBRANCH  26  28
ENDBRANCH   5  24
TORSDOF 6
