REMARK  Name = ZINC36549928
REMARK  8 active torsions:
REMARK  status: ('A' for Active; 'I' for Inactive)
REMARK    1  A    between atoms: C_5  and  N_7
REMARK    2  A    between atoms: N_7  and  C_8
REMARK    3  A    between atoms: C_8  and  C_10
REMARK    4  A    between atoms: C_8  and  C_17
REMARK    5  A    between atoms: C_14  and  O_16
REMARK    6  A    between atoms: N_19  and  C_20
REMARK    7  A    between atoms: C_26  and  C_28
REMARK    8  A    between atoms: C_31  and  N_34
REMARK                            x       y       z     vdW  Elec       q    Type
REMARK                         _______ _______ _______ _____ _____    ______ ____
ROOT
ATOM      1  N   UNL     1       1.003  -1.931  -0.138  0.00  0.00    -0.250 N 
ATOM      2  C   UNL     1       1.159  -0.592  -0.114  0.00  0.00    +0.252 C 
ATOM      3  O   UNL     1       1.385   0.011  -1.145  0.00  0.00    -0.270 OA
ENDROOT
BRANCH   1   8
ATOM      4  C   UNL     1       1.234  -3.960   2.920  0.00  0.00    +0.002 A 
ATOM      5  C   UNL     1      -0.086  -3.963   3.333  0.00  0.00    +0.002 A 
ATOM      6  C   UNL     1      -1.045  -3.293   2.598  0.00  0.00    +0.022 A 
ATOM      7  C   UNL     1      -0.688  -2.617   1.446  0.00  0.00    +0.062 A 
ATOM      8  C   UNL     1       0.638  -2.613   1.028  0.00  0.00    +0.056 A 
ATOM      9  C   UNL     1       1.598  -3.287   1.770  0.00  0.00    +0.025 A 
ATOM     10 CL   UNL     1      -1.893  -1.776   0.522  0.00  0.00    -0.082 Cl
ENDBRANCH   1   8
BRANCH   2  11
ATOM     11  C   UNL     1       1.058   0.141   1.165  0.00  0.00    +0.037 A 
ATOM     12  C   UNL     1       1.659  -0.369   2.316  0.00  0.00    +0.015 A 
ATOM     13  C   UNL     1       1.560   0.320   3.507  0.00  0.00    +0.033 A 
ATOM     14  C   UNL     1       0.866   1.516   3.562  0.00  0.00    +0.126 A 
ATOM     15  C   UNL     1       0.267   2.028   2.424  0.00  0.00    +0.033 A 
ATOM     16  C   UNL     1       0.364   1.351   1.226  0.00  0.00    +0.015 A 
BRANCH  14  17
ATOM     17  N   UNL     1       0.763   2.250   4.843  0.00  0.00    +0.056 N 
ATOM     18  O   UNL     1       1.285   1.805   5.838  0.00  0.00    -0.126 OA
ATOM     19  O   UNL     1       0.157   3.295   4.893  0.00  0.00    -0.126 OA
ENDBRANCH  14  17
ENDBRANCH   2  11
BRANCH   1  20
ATOM     20  C   UNL     1       1.216  -2.671  -1.383  0.00  0.00    +0.198 C 
BRANCH  20  21
ATOM     21  C   UNL     1       2.584  -2.354  -1.929  0.00  0.00    -0.014 A 
ATOM     22  C   UNL     1       2.714  -1.807  -3.193  0.00  0.00    +0.006 A 
ATOM     23  C   UNL     1       3.967  -1.514  -3.697  0.00  0.00    +0.004 A 
ATOM     24  C   UNL     1       5.094  -1.768  -2.939  0.00  0.00    +0.045 A 
ATOM     25  C   UNL     1       4.967  -2.317  -1.671  0.00  0.00    +0.117 A 
ATOM     26  C   UNL     1       3.707  -2.604  -1.165  0.00  0.00    +0.051 A 
BRANCH  25  27
ATOM     27  O   UNL     1       6.074  -2.568  -0.924  0.00  0.00    -0.507 OA
ATOM     28  H   UNL     1       6.344  -1.829  -0.361  0.00  0.00    +0.292 HD
ENDBRANCH  25  27
ENDBRANCH  20  21
BRANCH  20  29
ATOM     29  C   UNL     1       0.168  -2.272  -2.390  0.00  0.00    +0.239 C 
ATOM     30  O   UNL     1      -0.674  -1.450  -2.096  0.00  0.00    -0.273 OA
ATOM     31  N   UNL     1       0.166  -2.829  -3.618  0.00  0.00    -0.311 N 
ATOM     32  H   UNL     1       0.839  -3.486  -3.853  0.00  0.00    +0.149 HD
BRANCH  31  33
ATOM     33  C   UNL     1      -0.853  -2.440  -4.597  0.00  0.00    +0.073 C 
ATOM     34  C   UNL     1      -2.116  -3.275  -4.376  0.00  0.00    +0.022 C 
ATOM     35  C   UNL     1      -3.180  -2.870  -5.399  0.00  0.00    +0.002 C 
ATOM     36  C   UNL     1      -2.648  -3.113  -6.812  0.00  0.00    +0.000 C 
ATOM     37  C   UNL     1      -1.384  -2.278  -7.032  0.00  0.00    +0.002 C 
ATOM     38  C   UNL     1      -0.321  -2.684  -6.010  0.00  0.00    +0.022 C 
ENDBRANCH  31  33
ENDBRANCH  20  29
ENDBRANCH   1  20
TORSDOF 8
