REMARK  Name = ZINC08987175
REMARK  8 active torsions:
REMARK  status: ('A' for Active; 'I' for Inactive)
REMARK    1  A    between atoms: C_1  and  O_2
REMARK    2  A    between atoms: O_2  and  C_3
REMARK    3  A    between atoms: C_3  and  C_5
REMARK    4  A    between atoms: C_5  and  C_7
REMARK    5  A    between atoms: C_5  and  N_18
REMARK    6  A    between atoms: C_7  and  C_8
REMARK    7  A    between atoms: C_19  and  C_21
REMARK    8  A    between atoms: C_21  and  N_22
REMARK                            x       y       z     vdW  Elec       q    Type
REMARK                         _______ _______ _______ _____ _____    ______ ____
ROOT
ATOM      1  N   UNL     1       3.849   1.937   1.957  0.00  0.00    -0.301 N 
ATOM      2  C   UNL     1       3.742   2.099   3.291  0.00  0.00    +0.231 C 
ATOM      3  O   UNL     1       3.914   1.155   4.033  0.00  0.00    -0.274 OA
ATOM      4  H   UNL     1       3.712   2.692   1.364  0.00  0.00    +0.150 HD
ENDROOT
BRANCH   1   5
ATOM      5  C   UNL     1       4.174   0.620   1.404  0.00  0.00    +0.186 C 
BRANCH   5   6
ATOM      6  C   UNL     1       5.669   0.430   1.402  0.00  0.00    +0.328 C 
ATOM      7  O   UNL     1       6.389   1.305   1.820  0.00  0.00    -0.249 OA
BRANCH   6   9
ATOM      8  C   UNL     1       7.647  -0.824   0.964  0.00  0.00    +0.280 C 
ATOM      9  O   UNL     1       6.200  -0.711   0.936  0.00  0.00    -0.467 OA
ENDBRANCH   6   9
ENDBRANCH   5   6
BRANCH   5  10
ATOM     10  C   UNL     1       3.646   0.524  -0.029  0.00  0.00    +0.071 C 
BRANCH  10  11
ATOM     11  C   UNL     1       2.140   0.591  -0.015  0.00  0.00    -0.020 A 
ATOM     12  C   UNL     1       1.295  -0.452  -0.013  0.00  0.00    +0.087 A 
ATOM     13  N   UNL     1       0.002  -0.004   0.002  0.00  0.00    -0.360 N 
ATOM     14  H   UNL     1      -0.784  -0.572   0.006  0.00  0.00    +0.165 HD
ATOM     15  C   UNL     1      -0.017   1.373   0.010  0.00  0.00    +0.047 A 
ATOM     16  C   UNL     1       1.322   1.806  -0.001  0.00  0.00    +0.003 A 
ATOM     17  C   UNL     1       1.612   3.171   0.004  0.00  0.00    +0.010 A 
ATOM     18  C   UNL     1       0.593   4.082   0.019  0.00  0.00    +0.001 A 
ATOM     19  C   UNL     1      -0.729   3.659   0.029  0.00  0.00    +0.002 A 
ATOM     20  C   UNL     1      -1.038   2.317   0.029  0.00  0.00    +0.026 A 
ENDBRANCH  10  11
ENDBRANCH   5  10
ENDBRANCH   1   5
BRANCH   2  21
ATOM     21  C   UNL     1       3.408   3.454   3.860  0.00  0.00    +0.198 C 
BRANCH  21  22
ATOM     22  N   UNL     1       3.349   3.369   5.321  0.00  0.00    -0.319 N 
ATOM     23  C   UNL     1       3.058   4.491   6.066  0.00  0.00    +0.150 C 
ATOM     24  N   UNL     1       2.835   5.625   5.481  0.00  0.00    -0.113 NA
ATOM     25  S   UNL     1       2.525   6.719   6.709  0.00  0.00    +0.101 S 
ATOM     26  O   UNL     1       3.599   7.649   6.742  0.00  0.00    -0.146 OA
ATOM     27  O   UNL     1       1.160   7.102   6.613  0.00  0.00    -0.146 OA
ATOM     28  C   UNL     1       2.690   5.653   8.115  0.00  0.00    +0.123 A 
ATOM     29  C   UNL     1       2.992   4.414   7.533  0.00  0.00    +0.043 A 
ATOM     30  C   UNL     1       3.196   3.328   8.398  0.00  0.00    +0.013 A 
ATOM     31  C   UNL     1       3.087   3.494   9.761  0.00  0.00    +0.001 A 
ATOM     32  C   UNL     1       2.781   4.728  10.305  0.00  0.00    +0.002 A 
ATOM     33  C   UNL     1       2.582   5.815   9.465  0.00  0.00    +0.030 A 
ATOM     34  H   UNL     1       3.516   2.522   5.765  0.00  0.00    +0.148 HD
ENDBRANCH  21  22
ENDBRANCH   2  21
TORSDOF 7
