REMARK  Name = ZINC63514094
REMARK  9 active torsions:
REMARK  status: ('A' for Active; 'I' for Inactive)
REMARK    1  A    between atoms: C_1  and  C_2
REMARK    2  A    between atoms: C_6  and  C_35
REMARK    3  A    between atoms: C_7  and  N_8
REMARK    4  A    between atoms: C_9  and  C_13
REMARK    5  A    between atoms: C_13  and  N_19
REMARK    6  A    between atoms: N_19  and  C_20
REMARK    7  A    between atoms: C_20  and  C_21
REMARK    8  A    between atoms: C_21  and  C_22
REMARK    9  A    between atoms: C_30  and  C_32
REMARK                            x       y       z     vdW  Elec       q    Type
REMARK                         _______ _______ _______ _____ _____    ______ ____
ROOT
ATOM      1  C   UNL     1       0.729  -1.427   3.541  0.00  0.00    -0.005 C 
ATOM      2  C   UNL     1      -0.722  -1.735   3.162  0.00  0.00    -0.005 C 
ATOM      3  C   UNL     1      -0.938  -3.250   3.162  0.00  0.00    -0.001 C 
ATOM      4  C   UNL     1      -0.647  -3.806   4.557  0.00  0.00    -0.000 C 
ATOM      5  C   UNL     1       0.803  -3.499   4.936  0.00  0.00    -0.001 C 
ATOM      6  C   UNL     1       1.020  -1.984   4.936  0.00  0.00    -0.005 C 
ENDROOT
BRANCH   1   8
ATOM      7  N   UNL     1       0.042   1.002   3.175  0.00  0.00    -0.198 N 
ATOM      8  C   UNL     1       0.942   0.064   3.540  0.00  0.00    +0.146 A 
ATOM      9  N   UNL     1       2.034   0.691   3.893  0.00  0.00    -0.114 NA
ATOM     10  N   UNL     1       1.885   1.961   3.777  0.00  0.00    -0.023 NA
ATOM     11  N   UNL     1       0.702   2.232   3.340  0.00  0.00    -0.039 NA
BRANCH   7  18
ATOM     12  C   UNL     1      -0.444   1.069   0.371  0.00  0.00    +0.046 C 
ATOM     13  C   UNL     1      -1.549   0.818   1.364  0.00  0.00    -0.025 A 
ATOM     14  C   UNL     1      -2.841   0.606   0.922  0.00  0.00    +0.005 A 
ATOM     15  C   UNL     1      -3.855   0.375   1.832  0.00  0.00    +0.001 A 
ATOM     16  C   UNL     1      -3.581   0.356   3.187  0.00  0.00    +0.005 A 
ATOM     17  C   UNL     1      -2.292   0.568   3.635  0.00  0.00    -0.025 A 
ATOM     18  C   UNL     1      -1.270   0.793   2.724  0.00  0.00    +0.075 A 
ATOM     19  C   UNL     1      -1.994   0.547   5.112  0.00  0.00    +0.046 C 
ENDBRANCH   7  18
ENDBRANCH   1   8
BRANCH   1  20
ATOM     20  N   UNL     1       1.633  -2.052   2.565  0.00  0.00    +0.388 N 
ATOM     21  H   UNL     1       2.589  -1.858   2.821  0.00  0.00    -0.084 HD
ATOM     22  H   UNL     1       1.482  -3.050   2.558  0.00  0.00    -0.084 HD
BRANCH  20  23
ATOM     23  C   UNL     1       1.363  -1.506   1.228  0.00  0.00    -0.077 C 
BRANCH  23  24
ATOM     24  C   UNL     1       2.379  -2.069   0.233  0.00  0.00    +0.014 C 
BRANCH  24  25
ATOM     25  C   UNL     1       2.169  -1.430  -1.115  0.00  0.00    -0.039 C 
ATOM     26  C   UNL     1       2.807  -0.345  -1.609  0.00  0.00    +0.019 A 
ATOM     27  C   UNL     1       3.848   0.533  -1.058  0.00  0.00    +0.050 A 
ATOM     28  C   UNL     1       4.300   1.566  -1.808  0.00  0.00    +0.022 A 
ATOM     29  C   UNL     1       3.800   1.817  -3.093  0.00  0.00    +0.023 A 
ATOM     30  C   UNL     1       2.843   1.055  -3.666  0.00  0.00    +0.065 A 
ATOM     31  C   UNL     1       2.296  -0.058  -2.968  0.00  0.00    +0.063 A 
ATOM     32  N   UNL     1       1.378  -0.932  -3.302  0.00  0.00    -0.377 N 
ATOM     33  C   UNL     1       1.207  -1.877  -2.193  0.00  0.00    +0.103 C 
ATOM     34  C   UNL     1       1.547  -3.297  -2.649  0.00  0.00    +0.035 C 
ATOM     35 CL   UNL     1       2.278   1.435  -5.262  0.00  0.00    -0.081 Cl
ATOM     36 CL   UNL     1       4.489   0.251   0.530  0.00  0.00    -0.083 Cl
ATOM     37  H   UNL     1       0.895  -0.953  -4.144  0.00  0.00    +0.160 HD
ENDBRANCH  24  25
ENDBRANCH  23  24
ENDBRANCH  20  23
ENDBRANCH   1  20
TORSDOF 6
