REMARK  Name = ZINC23339826
REMARK  10 active torsions:
REMARK  status: ('A' for Active; 'I' for Inactive)
REMARK    1  A    between atoms: C_1  and  O_2
REMARK    2  A    between atoms: O_2  and  C_3
REMARK    3  A    between atoms: C_6  and  C_10
REMARK    4  A    between atoms: C_11  and  C_16
REMARK    5  A    between atoms: C_16  and  N_17
REMARK    6  A    between atoms: C_20  and  C_23
REMARK    7  A    between atoms: C_23  and  C_25
REMARK    8  A    between atoms: C_23  and  O_33
REMARK    9  A    between atoms: C_25  and  C_26
REMARK   10  A    between atoms: C_26  and  C_27
REMARK                            x       y       z     vdW  Elec       q    Type
REMARK                         _______ _______ _______ _____ _____    ______ ____
ROOT
ATOM      1  N   UNL     1       0.975  -4.075   5.119  0.00  0.00    +0.382 N 
ATOM      2  C   UNL     1      -0.170  -4.644   4.395  0.00  0.00    -0.078 C 
ATOM      3  C   UNL     1      -0.225  -4.056   2.983  0.00  0.00    -0.013 C 
ATOM      4  C   UNL     1      -0.360  -2.534   3.075  0.00  0.00    +0.014 C 
ATOM      5  C   UNL     1       0.817  -1.970   3.875  0.00  0.00    -0.013 C 
ATOM      6  C   UNL     1       0.844  -2.620   5.260  0.00  0.00    -0.078 C 
ATOM      7  H   UNL     1       1.879  -4.274   4.526  0.00  0.00    -0.081 HD
ENDROOT
BRANCH   1   8
ATOM      8  C   UNL     1       1.141  -4.719   6.429  0.00  0.00    -0.039 C 
BRANCH   8  10
ATOM      9  C   UNL     1       3.638  -4.189   6.921  0.00  0.00    +0.097 A 
ATOM     10  C   UNL     1       2.261  -4.046   7.180  0.00  0.00    -0.019 A 
ATOM     11  C   UNL     1       2.122  -3.193   8.219  0.00  0.00    +0.107 A 
ATOM     12  N   UNL     1       3.356  -2.813   8.614  0.00  0.00    -0.284 N 
ATOM     13  H   UNL     1       3.474  -2.118   9.458  0.00  0.00    +0.188 HD
ATOM     14  N   UNL     1       4.293  -3.445   7.787  0.00  0.00    -0.174 NA
BRANCH   9  18
ATOM     15  C   UNL     1       5.373  -6.604   3.876  0.00  0.00    +0.123 A 
ATOM     16  C   UNL     1       3.994  -6.450   3.939  0.00  0.00    +0.046 A 
ATOM     17  C   UNL     1       3.429  -5.673   4.928  0.00  0.00    +0.016 A 
ATOM     18  C   UNL     1       4.243  -5.031   5.859  0.00  0.00    +0.038 A 
ATOM     19  C   UNL     1       5.628  -5.186   5.794  0.00  0.00    +0.136 A 
ATOM     20  C   UNL     1       6.188  -5.971   4.803  0.00  0.00    +0.084 A 
ATOM     21  F   UNL     1       6.421  -4.569   6.697  0.00  0.00    -0.205 F 
BRANCH  15  23
ATOM     22  C   UNL     1       5.028  -7.997   1.981  0.00  0.00    +0.277 C 
ATOM     23  O   UNL     1       5.925  -7.375   2.903  0.00  0.00    -0.495 OA
ENDBRANCH  15  23
ENDBRANCH   9  18
ENDBRANCH   8  10
ENDBRANCH   1   8
BRANCH   4  24
ATOM     24  C   UNL     1      -0.355  -1.935   1.667  0.00  0.00    +0.118 C 
BRANCH  24  25
ATOM     25  O   UNL     1       0.871  -2.268   1.012  0.00  0.00    -0.392 OA
ATOM     26  H   UNL     1       1.057  -1.922  -0.015  0.00  0.00    +0.210 HD
ENDBRANCH  24  25
BRANCH  24  27
ATOM     27  C   UNL     1      -0.487  -0.413   1.759  0.00  0.00    +0.036 C 
BRANCH  27  28
ATOM     28  C   UNL     1      -0.607   0.175   0.352  0.00  0.00    +0.037 C 
BRANCH  28  29
ATOM     29  C   UNL     1      -0.737   1.673   0.443  0.00  0.00    -0.047 A 
ATOM     30  C   UNL     1      -1.988   2.254   0.536  0.00  0.00    +0.003 A 
ATOM     31  C   UNL     1      -2.107   3.628   0.625  0.00  0.00    +0.000 A 
ATOM     32  C   UNL     1      -0.976   4.423   0.610  0.00  0.00    +0.000 A 
ATOM     33  C   UNL     1       0.275   3.842   0.511  0.00  0.00    +0.000 A 
ATOM     34  C   UNL     1       0.394   2.467   0.428  0.00  0.00    +0.003 A 
ENDBRANCH  28  29
ENDBRANCH  27  28
ENDBRANCH  24  27
ENDBRANCH   4  24
TORSDOF 9
