REMARK  Name = ZINC40391390
REMARK  15 active torsions:
REMARK  status: ('A' for Active; 'I' for Inactive)
REMARK    1  A    between atoms: C_1  and  C_2
REMARK    2  A    between atoms: C_2  and  N_3
REMARK    3  A    between atoms: C_4  and  C_26
REMARK    4  A    between atoms: C_5  and  C_21
REMARK    5  A    between atoms: C_6  and  C_11
REMARK    6  A    between atoms: C_14  and  C_17
REMARK    7  A    between atoms: C_17  and  C_18
REMARK    8  A    between atoms: C_17  and  C_19
REMARK    9  A    between atoms: C_17  and  C_20
REMARK   10  A    between atoms: C_21  and  O_23
REMARK   11  A    between atoms: O_23  and  C_24
REMARK   12  A    between atoms: C_24  and  C_25
REMARK   13  A    between atoms: C_26  and  N_27
REMARK   14  A    between atoms: C_31  and  C_34
REMARK   15  A    between atoms: C_35  and  C_37
REMARK                            x       y       z     vdW  Elec       q    Type
REMARK                         _______ _______ _______ _____ _____    ______ ____
ROOT
ATOM      1  N   UNL     1      -1.392  -0.444  -0.094  0.00  0.00    -0.258 N 
ATOM      2  C   UNL     1      -2.284  -0.438   0.940  0.00  0.00    +0.041 C 
ATOM      3  C   UNL     1      -3.572  -0.796   0.751  0.00  0.00    +0.080 C 
ATOM      4  C   UNL     1      -3.994  -1.204  -0.646  0.00  0.00    +0.144 C 
ATOM      5  N   UNL     1      -2.956  -1.176  -1.690  0.00  0.00    -0.288 N 
ATOM      6  C   UNL     1      -1.711  -0.790  -1.347  0.00  0.00    +0.307 C 
ATOM      7  O   UNL     1      -0.848  -0.760  -2.203  0.00  0.00    -0.252 OA
ATOM      8  H   UNL     1      -3.164  -1.427  -2.604  0.00  0.00    +0.151 HD
ENDROOT
BRANCH   4   9
ATOM      9  C   UNL     1      -4.542  -2.606  -0.575  0.00  0.00    -0.022 A 
ATOM     10  C   UNL     1      -3.679  -3.685  -0.531  0.00  0.00    +0.006 A 
ATOM     11  C   UNL     1      -4.183  -4.971  -0.465  0.00  0.00    +0.004 A 
ATOM     12  C   UNL     1      -5.549  -5.177  -0.444  0.00  0.00    -0.042 A 
ATOM     13  C   UNL     1      -6.412  -4.098  -0.487  0.00  0.00    +0.004 A 
ATOM     14  C   UNL     1      -5.909  -2.812  -0.548  0.00  0.00    +0.006 A 
BRANCH  12  15
ATOM     15  C   UNL     1      -6.098  -6.579  -0.374  0.00  0.00    -0.013 C 
ATOM     16  C   UNL     1      -5.601  -7.258   0.904  0.00  0.00    +0.015 C 
ATOM     17  C   UNL     1      -7.627  -6.528  -0.363  0.00  0.00    +0.015 C 
ATOM     18  C   UNL     1      -5.623  -7.374  -1.592  0.00  0.00    +0.015 C 
ENDBRANCH  12  15
ENDBRANCH   4   9
BRANCH   1  20
ATOM     19  C   UNL     1       0.132   1.467  -0.014  0.00  0.00    +0.025 C 
ATOM     20  C   UNL     1      -0.010  -0.043   0.182  0.00  0.00    +0.111 C 
ENDBRANCH   1  20
BRANCH   3  21
ATOM     21  C   UNL     1      -4.497  -0.791   1.822  0.00  0.00    +0.339 C 
ATOM     22  O   UNL     1      -4.753  -1.826   2.409  0.00  0.00    -0.245 OA
BRANCH  21  23
ATOM     23  O   UNL     1      -5.095   0.361   2.192  0.00  0.00    -0.462 OA
BRANCH  23  24
ATOM     24  C   UNL     1      -6.017   0.292   3.281  0.00  0.00    +0.229 C 
ATOM     25  C   UNL     1      -6.589   1.685   3.554  0.00  0.00    +0.048 C 
ENDBRANCH  23  24
ENDBRANCH  21  23
ENDBRANCH   3  21
BRANCH   2  26
ATOM     26  C   UNL     1      -1.823  -0.025   2.314  0.00  0.00    +0.136 C 
BRANCH  26  27
ATOM     27  N   UNL     1      -0.877  -1.022   2.833  0.00  0.00    -0.294 NA
ATOM     28  C   UNL     1      -1.541  -2.313   3.053  0.00  0.00    +0.104 C 
ATOM     29  C   UNL     1      -0.491  -3.368   3.419  0.00  0.00    +0.124 C 
ATOM     30  N   UNL     1       0.294  -2.870   4.559  0.00  0.00    -0.290 N 
ATOM     31  C   UNL     1       0.877  -1.523   4.467  0.00  0.00    +0.087 C 
ATOM     32  C   UNL     1      -0.226  -0.541   4.060  0.00  0.00    +0.107 C 
ATOM     33  C   UNL     1       1.455  -1.120   5.825  0.00  0.00    +0.029 C 
ATOM     34  C   UNL     1       0.474  -3.628   5.658  0.00  0.00    +0.282 C 
ATOM     35  O   UNL     1       1.032  -3.163   6.634  0.00  0.00    -0.267 OA
BRANCH  34  36
ATOM     36  C   UNL     1      -0.003  -5.015   5.679  0.00  0.00    +0.189 A 
ATOM     37  C   UNL     1      -0.005  -5.847   6.762  0.00  0.00    +0.054 A 
ATOM     38  C   UNL     1      -0.546  -7.069   6.332  0.00  0.00    +0.042 A 
ATOM     39  C   UNL     1      -0.846  -6.931   5.021  0.00  0.00    +0.196 A 
ATOM     40  O   UNL     1      -0.523  -5.691   4.633  0.00  0.00    -0.458 OA
ENDBRANCH  34  36
ENDBRANCH  26  27
ENDBRANCH   2  26
TORSDOF 9
