REMARK  Name = ZINC06860636
REMARK  12 active torsions:
REMARK  status: ('A' for Active; 'I' for Inactive)
REMARK    1  A    between atoms: C_1  and  C_2
REMARK    2  A    between atoms: C_2  and  C_3
REMARK    3  A    between atoms: C_8  and  N_9
REMARK    4  A    between atoms: N_9  and  C_10
REMARK    5  A    between atoms: C_10  and  C_12
REMARK    6  A    between atoms: C_10  and  C_18
REMARK    7  A    between atoms: C_15  and  C_17
REMARK    8  A    between atoms: N_20  and  C_21
REMARK    9  A    between atoms: C_21  and  C_22
REMARK   10  A    between atoms: C_28  and  C_30
REMARK   11  A    between atoms: C_31  and  N_38
REMARK   12  A    between atoms: C_32  and  C_35
REMARK                            x       y       z     vdW  Elec       q    Type
REMARK                         _______ _______ _______ _____ _____    ______ ____
ROOT
ATOM      1  N   UNL     1      -1.387  -0.331  -2.483  0.00  0.00    -0.248 N 
ATOM      2  C   UNL     1      -0.207  -0.908  -2.782  0.00  0.00    +0.262 C 
ATOM      3  O   UNL     1       0.660  -0.265  -3.345  0.00  0.00    -0.269 OA
ENDROOT
BRANCH   1   9
ATOM      4  C   UNL     1      -3.335  -1.754  -2.579  0.00  0.00    -0.026 A 
ATOM      5  C   UNL     1      -4.314  -2.488  -1.937  0.00  0.00    +0.005 A 
ATOM      6  C   UNL     1      -4.349  -2.535  -0.555  0.00  0.00    +0.000 A 
ATOM      7  C   UNL     1      -3.406  -1.850   0.188  0.00  0.00    +0.002 A 
ATOM      8  C   UNL     1      -2.425  -1.115  -0.448  0.00  0.00    +0.024 A 
ATOM      9  C   UNL     1      -2.383  -1.069  -1.836  0.00  0.00    +0.041 A 
BRANCH   4  11
ATOM     10  C   UNL     1      -2.458  -2.868  -4.614  0.00  0.00    +0.009 C 
ATOM     11  C   UNL     1      -3.297  -1.703  -4.085  0.00  0.00    +0.033 C 
ENDBRANCH   4  11
ENDBRANCH   1   9
BRANCH   2  12
ATOM     12  C   UNL     1       0.033  -2.309  -2.430  0.00  0.00    +0.116 A 
ATOM     13  C   UNL     1       1.170  -3.091  -2.639  0.00  0.00    +0.076 A 
ATOM     14  C   UNL     1       1.040  -4.395  -2.167  0.00  0.00    +0.155 A 
ATOM     15  N   UNL     1      -0.084  -4.768  -1.592  0.00  0.00    -0.203 NA
ATOM     16  S   UNL     1      -1.045  -3.468  -1.612  0.00  0.00    +0.019 S 
BRANCH  14  17
ATOM     17  C   UNL     1       2.154  -5.351  -2.311  0.00  0.00    +0.262 C 
ATOM     18  O   UNL     1       3.226  -4.975  -2.744  0.00  0.00    -0.269 OA
ATOM     19  N   UNL     1       1.983  -6.642  -1.961  0.00  0.00    -0.324 N 
ATOM     20  H   UNL     1       1.128  -6.942  -1.615  0.00  0.00    +0.145 HD
ATOM     21  H   UNL     1       2.716  -7.271  -2.056  0.00  0.00    +0.145 HD
ENDBRANCH  14  17
BRANCH  13  22
ATOM     22  N   UNL     1       2.319  -2.615  -3.257  0.00  0.00    -0.355 N 
ATOM     23  H   UNL     1       2.403  -1.671  -3.463  0.00  0.00    +0.142 HD
ATOM     24  H   UNL     1       3.037  -3.227  -3.482  0.00  0.00    +0.142 HD
ENDBRANCH  13  22
ENDBRANCH   2  12
BRANCH   1  25
ATOM     25  C   UNL     1      -1.627   1.071  -2.836  0.00  0.00    +0.233 C 
BRANCH  25  26
ATOM     26  C   UNL     1      -2.903   1.177  -3.630  0.00  0.00    +0.135 A 
ATOM     27  C   UNL     1      -3.024   1.716  -4.857  0.00  0.00    +0.047 A 
ATOM     28  C   UNL     1      -4.386   1.607  -5.221  0.00  0.00    +0.045 A 
ATOM     29  C   UNL     1      -5.016   1.008  -4.194  0.00  0.00    +0.102 A 
ATOM     30  O   UNL     1      -4.112   0.745  -3.236  0.00  0.00    -0.462 OA
ATOM     31  C   UNL     1      -6.486   0.683  -4.132  0.00  0.00    +0.086 C 
ENDBRANCH  25  26
BRANCH  25  32
ATOM     32  C   UNL     1      -1.749   1.892  -1.578  0.00  0.00    +0.242 C 
ATOM     33  O   UNL     1      -1.615   1.364  -0.494  0.00  0.00    -0.273 OA
ATOM     34  N   UNL     1      -2.007   3.212  -1.657  0.00  0.00    -0.311 N 
ATOM     35  H   UNL     1      -2.114   3.634  -2.524  0.00  0.00    +0.149 HD
BRANCH  34  36
ATOM     36  C   UNL     1      -2.125   4.010  -0.434  0.00  0.00    +0.135 C 
BRANCH  36  37
ATOM     37  C   UNL     1      -2.417   5.466  -0.802  0.00  0.00    +0.135 C 
ATOM     38  C   UNL     1      -2.424   6.337   0.473  0.00  0.00    +0.035 C 
ATOM     39  C   UNL     1      -3.600   7.313   0.200  0.00  0.00    +0.031 C 
ATOM     40  C   UNL     1      -4.565   6.396  -0.594  0.00  0.00    +0.160 C 
ATOM     41  O   UNL     1      -3.714   5.565  -1.402  0.00  0.00    -0.375 OA
ENDBRANCH  36  37
ENDBRANCH  34  36
ENDBRANCH  25  32
ENDBRANCH   1  25
TORSDOF 10
