REMARK  Name = ZINC14086685
REMARK  4 active torsions:
REMARK  status: ('A' for Active; 'I' for Inactive)
REMARK    1  A    between atoms: C_1  and  C_2
REMARK    2  A    between atoms: C_3  and  C_8
REMARK    3  A    between atoms: C_4  and  C_7
REMARK    4  A    between atoms: C_17  and  C_21
REMARK                            x       y       z     vdW  Elec       q    Type
REMARK                         _______ _______ _______ _____ _____    ______ ____
ROOT
ATOM      1  C   UNL     1       3.766   3.166  -0.017  0.00  0.00    +0.255 C 
ATOM      2  O   UNL     1       4.353   2.101  -0.028  0.00  0.00    -0.270 OA
ATOM      3  N   UNL     1       2.419   3.193  -0.004  0.00  0.00    -0.261 N 
ATOM      4  C   UNL     1       1.700   2.004  -0.003  0.00  0.00    +0.165 A 
ATOM      5  N   UNL     1       2.149   0.766  -0.014  0.00  0.00    -0.229 NA
ATOM      6  C   UNL     1       1.331  -0.284  -0.012  0.00  0.00    +0.054 A 
ATOM      7  C   UNL     1       0.002  -0.004   0.002  0.00  0.00    +0.015 A 
ATOM      8  S   UNL     1      -0.022   1.768   0.012  0.00  0.00    -0.057 S 
ATOM      9  C   UNL     1      -1.136  -0.967   0.009  0.00  0.00    +0.047 C 
ATOM     10  C   UNL     1      -0.587  -2.358   0.364  0.00  0.00    -0.009 C 
ATOM     11  C   UNL     1       0.659  -2.627  -0.484  0.00  0.00    +0.010 C 
ATOM     12  C   UNL     1       1.811  -1.731  -0.026  0.00  0.00    +0.056 C 
ATOM     13  C   UNL     1      -1.648  -3.420   0.068  0.00  0.00    +0.008 C 
ATOM     14  H   UNL     1       1.951   4.043   0.006  0.00  0.00    +0.157 HD
ENDROOT
BRANCH   1  17
ATOM     15  C   UNL     1       4.789   4.912  -2.628  0.00  0.00    +0.070 C 
ATOM     16  C   UNL     1       4.992   5.219  -1.167  0.00  0.00    +0.093 A 
ATOM     17  C   UNL     1       4.529   4.427  -0.017  0.00  0.00    +0.101 A 
ATOM     18  C   UNL     1       4.977   5.157   1.057  0.00  0.00    +0.147 A 
ATOM     19  O   UNL     1       5.615   6.215   0.552  0.00  0.00    -0.359 OA
ATOM     20  N   UNL     1       5.614   6.239  -0.654  0.00  0.00    -0.083 NA
ATOM     21  C   UNL     1       4.788   4.828   2.516  0.00  0.00    +0.090 C 
ENDBRANCH   1  17
TORSDOF 1
