REMARK  Name = ZINC20203547
REMARK  10 active torsions:
REMARK  status: ('A' for Active; 'I' for Inactive)
REMARK    1  A    between atoms: C_1  and  C_2
REMARK    2  A    between atoms: C_5  and  C_8
REMARK    3  A    between atoms: C_8  and  N_9
REMARK    4  A    between atoms: C_20  and  N_24
REMARK    5  A    between atoms: N_24  and  C_25
REMARK    6  A    between atoms: C_25  and  C_26
REMARK    7  A    between atoms: C_26  and  C_27
REMARK    8  A    between atoms: C_26  and  C_28
REMARK    9  A    between atoms: C_26  and  C_29
REMARK   10  A    between atoms: C_29  and  O_30
REMARK                            x       y       z     vdW  Elec       q    Type
REMARK                         _______ _______ _______ _____ _____    ______ ____
ROOT
ATOM      1  N   UNL     1       3.547  -1.814  -4.363  0.00  0.00    -0.294 N 
ATOM      2  C   UNL     1       4.655  -1.045  -4.484  0.00  0.00    +0.203 A 
ATOM      3  N   UNL     1       4.856   0.041  -3.770  0.00  0.00    -0.230 NA
ATOM      4  C   UNL     1       3.913   0.380  -2.896  0.00  0.00    +0.116 A 
ATOM      5  C   UNL     1       2.724  -0.356  -2.696  0.00  0.00    +0.076 A 
ATOM      6  C   UNL     1       2.545  -1.535  -3.495  0.00  0.00    +0.263 A 
ATOM      7  O   UNL     1       1.555  -2.239  -3.400  0.00  0.00    -0.267 OA
ATOM      8  C   UNL     1       1.808   0.165  -1.697  0.00  0.00    -0.023 A 
ATOM      9  C   UNL     1       2.185   1.300  -1.062  0.00  0.00    -0.006 A 
ATOM     10  S   UNL     1       3.762   1.721  -1.758  0.00  0.00    -0.073 S 
ATOM     11  C   UNL     1       1.429   2.038  -0.001  0.00  0.00    +0.027 C 
ATOM     12  C   UNL     1      -0.019   1.527   0.010  0.00  0.00    -0.067 C 
ATOM     13  C   UNL     1       0.002  -0.004   0.002  0.00  0.00    -0.011 C 
ATOM     14  C   UNL     1       0.481  -0.509  -1.359  0.00  0.00    +0.035 C 
ENDROOT
BRANCH  12  15
ATOM     15  N   UNL     1      -0.701   2.004   1.221  0.00  0.00    +0.382 N 
ATOM     16  H   UNL     1      -1.518   1.315   1.477  0.00  0.00    -0.085 HD
ATOM     17  H   UNL     1       0.017   2.047   2.053  0.00  0.00    -0.085 HD
BRANCH  15  18
ATOM     18  C   UNL     1      -1.263   3.345   1.014  0.00  0.00    -0.074 C 
BRANCH  18  19
ATOM     19  C   UNL     1      -1.964   3.807   2.294  0.00  0.00    -0.027 C 
ATOM     20  C   UNL     1      -3.089   2.830   2.641  0.00  0.00    +0.011 C 
ATOM     21  C   UNL     1      -0.953   3.850   3.442  0.00  0.00    +0.011 C 
BRANCH  19  22
ATOM     22  C   UNL     1      -2.550   5.204   2.079  0.00  0.00    +0.160 C 
BRANCH  22  23
ATOM     23  O   UNL     1      -3.204   5.636   3.274  0.00  0.00    -0.395 OA
ATOM     24  H   UNL     1      -3.688   6.622   3.310  0.00  0.00    +0.209 HD
ENDBRANCH  22  23
ENDBRANCH  19  22
ENDBRANCH  18  19
ENDBRANCH  15  18
ENDBRANCH  12  15
BRANCH   1  25
ATOM     25  C   UNL     1       3.426  -3.003  -5.209  0.00  0.00    +0.161 C 
BRANCH  25  30
ATOM     26  C   UNL     1       0.783  -1.591 -10.150  0.00  0.00    +0.044 C 
ATOM     27  C   UNL     1       1.472  -1.960  -8.862  0.00  0.00    -0.050 A 
ATOM     28  C   UNL     1       2.849  -1.882  -8.768  0.00  0.00    +0.004 A 
ATOM     29  C   UNL     1       3.482  -2.220  -7.586  0.00  0.00    +0.005 A 
ATOM     30  C   UNL     1       2.737  -2.635  -6.498  0.00  0.00    -0.028 A 
ATOM     31  C   UNL     1       1.360  -2.718  -6.593  0.00  0.00    +0.005 A 
ATOM     32  C   UNL     1       0.728  -2.376  -7.774  0.00  0.00    +0.004 A 
ENDBRANCH  25  30
ENDBRANCH   1  25
TORSDOF 7
