REMARK  Name = ZINC30750379
REMARK  11 active torsions:
REMARK  status: ('A' for Active; 'I' for Inactive)
REMARK    1  A    between atoms: C_1  and  C_2
REMARK    2  A    between atoms: C_2  and  N_3
REMARK    3  A    between atoms: C_4  and  C_23
REMARK    4  A    between atoms: C_7  and  S_8
REMARK    5  A    between atoms: S_8  and  C_9
REMARK    6  A    between atoms: C_9  and  C_10
REMARK    7  A    between atoms: N_12  and  N_13
REMARK    8  A    between atoms: C_14  and  C_15
REMARK    9  A    between atoms: C_18  and  O_22
REMARK   10  A    between atoms: C_19  and  O_21
REMARK   11  A    between atoms: C_26  and  C_29
REMARK                            x       y       z     vdW  Elec       q    Type
REMARK                         _______ _______ _______ _____ _____    ______ ____
ROOT
ATOM      1  C   UNL     1       0.043   0.414   1.858  0.00  0.00    +0.174 C 
ENDROOT
BRANCH   1   2
ATOM      2  C   UNL     1      -0.206   1.635   1.011  0.00  0.00    +0.242 C 
ATOM      3  O   UNL     1      -1.340   1.945   0.711  0.00  0.00    -0.273 OA
ATOM      4  N   UNL     1       0.832   2.381   0.583  0.00  0.00    -0.206 N 
ATOM      5  H   UNL     1       1.860   2.098   0.851  0.00  0.00    +0.177 HD
BRANCH   4   6
ATOM      6  N   UNL     1       0.601   3.517  -0.204  0.00  0.00    -0.188 NA
ATOM      7  C   UNL     1       1.600   4.154  -0.734  0.00  0.00    +0.138 C 
BRANCH   7   8
ATOM      8  C   UNL     1       2.917   3.501  -0.840  0.00  0.00    -0.002 A 
ATOM      9  C   UNL     1       4.070   4.273  -1.002  0.00  0.00    +0.013 A 
ATOM     10  C   UNL     1       5.303   3.661  -1.094  0.00  0.00    +0.050 A 
ATOM     11  C   UNL     1       5.400   2.278  -1.038  0.00  0.00    +0.158 A 
ATOM     12  C   UNL     1       4.254   1.502  -0.883  0.00  0.00    +0.159 A 
ATOM     13  C   UNL     1       3.016   2.108  -0.783  0.00  0.00    +0.058 A 
BRANCH  12  14
ATOM     14  O   UNL     1       4.353   0.146  -0.828  0.00  0.00    -0.503 OA
ATOM     15  H   UNL     1       3.448  -0.467  -0.706  0.00  0.00    +0.292 HD
ENDBRANCH  12  14
BRANCH  11  16
ATOM     16  O   UNL     1       6.616   1.680  -1.135  0.00  0.00    -0.503 OA
ATOM     17  H   UNL     1       6.695   0.584  -1.091  0.00  0.00    +0.292 HD
ENDBRANCH  11  16
ENDBRANCH   7   8
ENDBRANCH   4   6
ENDBRANCH   1   2
BRANCH   1  18
ATOM     18  S   UNL     1      -1.538  -0.367   2.270  0.00  0.00    -0.077 S 
BRANCH  18  23
ATOM     19  N   UNL     1      -1.740  -2.680   3.830  0.00  0.00    -0.302 N 
ATOM     20  C   UNL     1      -0.862  -3.529   4.463  0.00  0.00    +0.165 A 
ATOM     21  N   UNL     1       0.347  -3.068   4.242  0.00  0.00    -0.128 NA
ATOM     22  N   UNL     1       0.287  -2.008   3.518  0.00  0.00    -0.122 NA
ATOM     23  C   UNL     1      -0.965  -1.726   3.234  0.00  0.00    +0.192 A 
BRANCH  20  24
ATOM     24  C   UNL     1      -1.215  -4.729   5.251  0.00  0.00    +0.019 A 
ATOM     25  C   UNL     1      -0.265  -5.326   6.082  0.00  0.00    +0.012 A 
ATOM     26  C   UNL     1      -0.602  -6.443   6.819  0.00  0.00    +0.004 A 
ATOM     27  C   UNL     1      -1.875  -6.978   6.726  0.00  0.00    -0.050 A 
ATOM     28  C   UNL     1      -2.819  -6.395   5.899  0.00  0.00    +0.004 A 
ATOM     29  C   UNL     1      -2.496  -5.275   5.162  0.00  0.00    +0.012 A 
ATOM     30  C   UNL     1      -2.234  -8.202   7.529  0.00  0.00    +0.044 C 
ENDBRANCH  20  24
BRANCH  19  32
ATOM     31  C   UNL     1      -3.629  -3.618   2.591  0.00  0.00    +0.027 C 
ATOM     32  C   UNL     1      -3.201  -2.780   3.798  0.00  0.00    +0.122 C 
ENDBRANCH  19  32
ENDBRANCH  18  23
ENDBRANCH   1  18
TORSDOF 9
