REMARK  Name = ZINC10157206
REMARK  4 active torsions:
REMARK  status: ('A' for Active; 'I' for Inactive)
REMARK    1  A    between atoms: C_1  and  C_2
REMARK    2  A    between atoms: C_4  and  C_22
REMARK    3  A    between atoms: N_13  and  C_14
REMARK    4  A    between atoms: C_18  and  C_21
REMARK                            x       y       z     vdW  Elec       q    Type
REMARK                         _______ _______ _______ _____ _____    ______ ____
ROOT
ATOM      1  C   UNL     1       3.732  -0.579  -0.036  0.00  0.00    +0.066 C 
ATOM      2  C   UNL     1       2.383   0.093  -0.020  0.00  0.00    +0.044 A 
ATOM      3  C   UNL     1       1.222  -0.663  -0.013  0.00  0.00    +0.046 A 
ATOM      4  C   UNL     1       0.002  -0.004   0.002  0.00  0.00    +0.044 A 
ATOM      5  N   UNL     1      -0.016   1.318   0.009  0.00  0.00    -0.216 NA
ATOM      6  C   UNL     1       1.112   2.011   0.002  0.00  0.00    +0.252 A 
ATOM      7  N   UNL     1       2.293   1.413  -0.012  0.00  0.00    -0.216 NA
ATOM      8  N   UNL     1       1.055   3.403   0.010  0.00  0.00    -0.200 N 
ATOM      9  C   UNL     1       2.113   4.216   0.010  0.00  0.00    +0.061 A 
ATOM     10  C   UNL     1       1.632   5.523   0.019  0.00  0.00    +0.080 A 
ATOM     11  C   UNL     1       0.184   5.442   0.032  0.00  0.00    +0.152 A 
ATOM     12  N   UNL     1      -0.122   4.163   0.026  0.00  0.00    -0.148 NA
ATOM     13  N   UNL     1      -0.709   6.511   0.047  0.00  0.00    -0.330 N 
ATOM     14  C   UNL     1      -2.152   6.261   0.059  0.00  0.00    +0.127 C 
ATOM     15  C   UNL     1       2.535   6.679   0.023  0.00  0.00    +0.168 C 
ATOM     16  O   UNL     1       2.143   7.812  -0.165  0.00  0.00    -0.292 OA
ATOM     17  C   UNL     1       3.999   6.354   0.280  0.00  0.00    +0.083 C 
ATOM     18  C   UNL     1       4.365   5.102  -0.524  0.00  0.00    -0.001 C 
ATOM     19  C   UNL     1       3.583   3.885  -0.019  0.00  0.00    +0.060 C 
ATOM     20  C   UNL     1       5.864   4.831  -0.380  0.00  0.00    +0.008 C 
ATOM     21  C   UNL     1      -1.287  -0.785   0.011  0.00  0.00    +0.066 C 
ATOM     22  H   UNL     1      -0.375   7.422   0.051  0.00  0.00    +0.147 HD
ENDROOT
TORSDOF 0
