REMARK  Name = ZINC39932373
REMARK  11 active torsions:
REMARK  status: ('A' for Active; 'I' for Inactive)
REMARK    1  A    between atoms: C_1  and  C_2
REMARK    2  A    between atoms: C_5  and  C_7
REMARK    3  A    between atoms: C_8  and  C_9
REMARK    4  A    between atoms: N_11  and  C_15
REMARK    5  A    between atoms: C_15  and  N_16
REMARK    6  A    between atoms: N_16  and  C_17
REMARK    7  A    between atoms: N_16  and  C_30
REMARK    8  A    between atoms: C_17  and  C_18
REMARK    9  A    between atoms: C_22  and  C_24
REMARK   10  A    between atoms: C_30  and  C_31
REMARK   11  A    between atoms: C_30  and  C_32
REMARK                            x       y       z     vdW  Elec       q    Type
REMARK                         _______ _______ _______ _____ _____    ______ ____
ROOT
ATOM      1  N   UNL     1       4.013  -8.290  -1.909  0.00  0.00    +0.398 N 
ATOM      2  H   UNL     1       3.176  -8.089  -2.437  0.00  0.00    -0.078 HD
ENDROOT
BRANCH   1   3
ATOM      3  C   UNL     1       5.194  -7.976  -2.724  0.00  0.00    -0.072 C 
ATOM      4  C   UNL     1       6.457  -8.423  -1.985  0.00  0.00    -0.013 C 
ATOM      5  C   UNL     1       5.099  -8.711  -4.063  0.00  0.00    -0.013 C 
ENDBRANCH   1   3
BRANCH   1   6
ATOM      6  C   UNL     1       4.030  -7.474  -0.688  0.00  0.00    +0.072 C 
BRANCH   6   9
ATOM      7  C   UNL     1       3.036  -4.156  -1.698  0.00  0.00    +0.153 A 
ATOM      8  N   UNL     1       2.744  -5.413  -1.482  0.00  0.00    -0.153 NA
ATOM      9  N   UNL     1       3.908  -6.059  -1.044  0.00  0.00    -0.257 N 
ATOM     10  C   UNL     1       4.895  -5.141  -1.010  0.00  0.00    +0.174 A 
ATOM     11  S   UNL     1       6.518  -5.421  -0.541  0.00  0.00    -0.012 S 
ATOM     12  N   UNL     1       4.377  -3.964  -1.414  0.00  0.00    -0.318 N 
ATOM     13  H   UNL     1       4.861  -3.127  -1.491  0.00  0.00    +0.169 HD
BRANCH   7  15
ATOM     14  C   UNL     1       0.814  -3.444  -2.410  0.00  0.00    +0.050 C 
ATOM     15  C   UNL     1       2.104  -3.127  -2.168  0.00  0.00    +0.051 C 
BRANCH  14  20
ATOM     16  C   UNL     1      -0.998   0.982  -3.889  0.00  0.00    +0.086 C 
ATOM     17  C   UNL     1      -0.920  -0.479  -3.528  0.00  0.00    +0.103 A 
ATOM     18  C   UNL     1      -1.944  -1.355  -3.574  0.00  0.00    +0.045 A 
ATOM     19  C   UNL     1      -1.442  -2.602  -3.160  0.00  0.00    +0.049 A 
ATOM     20  C   UNL     1      -0.117  -2.417  -2.878  0.00  0.00    +0.128 A 
ATOM     21  O   UNL     1       0.183  -1.124  -3.113  0.00  0.00    -0.461 OA
ENDBRANCH  14  20
ENDBRANCH   7  15
ENDBRANCH   6   9
ENDBRANCH   1   6
BRANCH   1  22
ATOM     22  C   UNL     1       4.032  -9.714  -1.547  0.00  0.00    -0.008 C 
BRANCH  22  23
ATOM     23  C   UNL     1       2.682 -10.105  -0.943  0.00  0.00    +0.261 C 
ATOM     24  N   UNL     1       1.578  -9.630  -1.796  0.00  0.00    -0.229 N 
ATOM     25  N   UNL     1       0.844  -8.743  -0.994  0.00  0.00    -0.146 NA
ATOM     26  C   UNL     1       1.374  -8.654   0.180  0.00  0.00    +0.239 C 
ATOM     27  O   UNL     1       2.478  -9.433   0.309  0.00  0.00    -0.454 OA
ATOM     28  H   UNL     1       1.398  -9.877  -2.716  0.00  0.00    +0.172 HD
BRANCH  26  29
ATOM     29  C   UNL     1       0.840  -7.801   1.262  0.00  0.00    +0.038 A 
ATOM     30  C   UNL     1       1.480  -7.758   2.502  0.00  0.00    +0.013 A 
ATOM     31  C   UNL     1       0.975  -6.960   3.507  0.00  0.00    +0.001 A 
ATOM     32  C   UNL     1      -0.162  -6.203   3.289  0.00  0.00    +0.000 A 
ATOM     33  C   UNL     1      -0.801  -6.241   2.062  0.00  0.00    +0.001 A 
ATOM     34  C   UNL     1      -0.304  -7.030   1.046  0.00  0.00    +0.013 A 
ENDBRANCH  26  29
ENDBRANCH  22  23
ENDBRANCH   1  22
TORSDOF 8
