REMARK  Name = ZINC13881946
REMARK  7 active torsions:
REMARK  status: ('A' for Active; 'I' for Inactive)
REMARK    1  A    between atoms: C_1  and  O_2
REMARK    2  A    between atoms: O_2  and  C_3
REMARK    3  A    between atoms: C_6  and  C_22
REMARK    4  A    between atoms: C_8  and  C_9
REMARK    5  A    between atoms: C_9  and  O_10
REMARK    6  A    between atoms: O_10  and  C_11
REMARK    7  A    between atoms: N_33  and  O_34
REMARK                            x       y       z     vdW  Elec       q    Type
REMARK                         _______ _______ _______ _____ _____    ______ ____
ROOT
ATOM      1  C   UNL     1      -4.952  -0.216   2.198  0.00  0.00    +0.126 A 
ATOM      2  C   UNL     1      -6.137  -0.914   2.014  0.00  0.00    +0.046 A 
ATOM      3  C   UNL     1      -6.593  -1.173   0.737  0.00  0.00    +0.011 A 
ATOM      4  C   UNL     1      -5.872  -0.735  -0.359  0.00  0.00    -0.007 A 
ATOM      5  C   UNL     1      -4.694  -0.035  -0.178  0.00  0.00    +0.017 A 
ATOM      6  C   UNL     1      -4.234   0.228   1.098  0.00  0.00    +0.032 A 
ENDROOT
BRANCH   4   7
ATOM      7  C   UNL     1      -6.372  -1.020  -1.752  0.00  0.00    +0.220 C 
ATOM      8  N   UNL     1      -7.130  -2.277  -1.748  0.00  0.00    -0.320 N 
ATOM      9  C   UNL     1      -6.429  -3.475  -1.688  0.00  0.00    +0.041 A 
ATOM     10  C   UNL     1      -6.960  -4.607  -1.094  0.00  0.00    +0.024 A 
ATOM     11  C   UNL     1      -6.218  -5.772  -1.058  0.00  0.00    +0.002 A 
ATOM     12  C   UNL     1      -4.948  -5.817  -1.612  0.00  0.00    +0.001 A 
ATOM     13  C   UNL     1      -4.405  -4.698  -2.210  0.00  0.00    +0.015 A 
ATOM     14  C   UNL     1      -5.142  -3.518  -2.254  0.00  0.00    +0.060 A 
ATOM     15  C   UNL     1      -4.612  -2.295  -2.883  0.00  0.00    +0.273 C 
ATOM     16  O   UNL     1      -3.626  -2.347  -3.593  0.00  0.00    -0.268 OA
ATOM     17  N   UNL     1      -5.233  -1.118  -2.664  0.00  0.00    -0.154 N 
ATOM     18  H   UNL     1      -8.100  -2.271  -1.786  0.00  0.00    +0.148 HD
BRANCH  17  19
ATOM     19  O   UNL     1      -4.774   0.045  -3.329  0.00  0.00    -0.290 OA
ATOM     20  H   UNL     1      -4.019  -0.108  -3.913  0.00  0.00    +0.242 HD
ENDBRANCH  17  19
ENDBRANCH   4   7
BRANCH   1  22
ATOM     21  C   UNL     1      -5.290  -0.450   4.540  0.00  0.00    +0.277 C 
ATOM     22  O   UNL     1      -4.499   0.036   3.454  0.00  0.00    -0.495 OA
ENDBRANCH   1  22
BRANCH   6  23
ATOM     23  C   UNL     1      -2.949   0.990   1.294  0.00  0.00    +0.268 C 
BRANCH  23  24
ATOM     24  O   UNL     1      -2.397   1.329   0.020  0.00  0.00    -0.481 OA
BRANCH  24  25
ATOM     25  C   UNL     1      -1.227   2.025   0.019  0.00  0.00    +0.197 A 
ATOM     26  C   UNL     1      -1.245   3.412   0.032  0.00  0.00    +0.206 A 
ATOM     27  C   UNL     1      -0.053   4.120   0.024  0.00  0.00    +0.200 A 
ATOM     28  C   UNL     1       1.155   3.442   0.009  0.00  0.00    +0.199 A 
ATOM     29  C   UNL     1       1.174   2.056   0.002  0.00  0.00    +0.200 A 
ATOM     30  C   UNL     1      -0.016   1.347   0.009  0.00  0.00    +0.206 A 
ATOM     31  F   UNL     1       0.002  -0.004   0.002  0.00  0.00    -0.198 F 
ATOM     32  F   UNL     1       2.353   1.397  -0.013  0.00  0.00    -0.199 F 
ATOM     33  F   UNL     1       2.316   4.132   0.001  0.00  0.00    -0.199 F 
ATOM     34  F   UNL     1      -0.070   5.470   0.031  0.00  0.00    -0.199 F 
ATOM     35  F   UNL     1      -2.423   4.073   0.046  0.00  0.00    -0.198 F 
ENDBRANCH  24  25
ENDBRANCH  23  24
ENDBRANCH   6  23
TORSDOF 6
