REMARK  Name = ZINC20680947
REMARK  6 active torsions:
REMARK  status: ('A' for Active; 'I' for Inactive)
REMARK    1  A    between atoms: C_1  and  C_2
REMARK    2  A    between atoms: C_5  and  C_29
REMARK    3  A    between atoms: N_8  and  C_10
REMARK    4  A    between atoms: C_10  and  C_12
REMARK    5  A    between atoms: C_10  and  C_13
REMARK    6  A    between atoms: N_18  and  C_19
REMARK                            x       y       z     vdW  Elec       q    Type
REMARK                         _______ _______ _______ _____ _____    ______ ____
ROOT
ATOM      1  C   UNL     1      -1.286  -2.048  -0.256  0.00  0.00    +0.207 C 
ATOM      2  O   UNL     1      -0.221  -2.617  -0.150  0.00  0.00    -0.277 OA
ATOM      3  N   UNL     1      -2.409  -2.758  -0.488  0.00  0.00    -0.242 N 
ATOM      4  C   UNL     1      -2.346  -4.099  -0.602  0.00  0.00    +0.306 C 
ATOM      5  O   UNL     1      -1.278  -4.669  -0.496  0.00  0.00    -0.252 OA
ATOM      6  N   UNL     1      -3.468  -4.809  -0.834  0.00  0.00    -0.294 N 
ATOM      7  H   UNL     1      -3.375  -2.242  -0.584  0.00  0.00    +0.159 HD
ATOM      8  H   UNL     1      -4.435  -4.293  -0.930  0.00  0.00    +0.151 HD
ENDROOT
BRANCH   6   9
ATOM      9  C   UNL     1      -3.400  -6.267  -0.959  0.00  0.00    +0.037 C 
ATOM     10  C   UNL     1      -2.847  -6.864   0.337  0.00  0.00    +0.029 C 
ATOM     11  C   UNL     1      -2.776  -8.387   0.206  0.00  0.00    -0.008 C 
ATOM     12  C   UNL     1      -4.177  -8.942  -0.053  0.00  0.00    +0.007 C 
ATOM     13  C   UNL     1      -4.731  -8.345  -1.348  0.00  0.00    -0.008 C 
ATOM     14  C   UNL     1      -4.802  -6.822  -1.218  0.00  0.00    +0.029 C 
ATOM     15  C   UNL     1      -3.812  -8.715  -2.514  0.00  0.00    +0.007 C 
ATOM     16  C   UNL     1      -2.410  -8.160  -2.255  0.00  0.00    -0.008 C 
ATOM     17  C   UNL     1      -1.857  -8.757  -0.959  0.00  0.00    +0.007 C 
ATOM     18  C   UNL     1      -2.481  -6.637  -2.125  0.00  0.00    +0.029 C 
ENDBRANCH   6   9
BRANCH   1  19
ATOM     19  C   UNL     1      -1.356  -0.548  -0.128  0.00  0.00    +0.017 C 
ATOM     20  C   UNL     1      -1.583   0.071  -1.508  0.00  0.00    -0.004 C 
BRANCH  19  26
ATOM     21  C   UNL     1       0.877   3.199   2.144  0.00  0.00    +0.005 C 
ATOM     22  C   UNL     1       1.034   1.762   1.641  0.00  0.00    -0.031 C 
ATOM     23  C   UNL     1       2.201   1.691   0.653  0.00  0.00    +0.003 C 
ATOM     24  C   UNL     1       2.313   0.264   0.109  0.00  0.00    -0.031 C 
ATOM     25  C   UNL     1       0.990  -0.129  -0.552  0.00  0.00    -0.075 C 
ATOM     26  N   UNL     1      -0.095  -0.045   0.434  0.00  0.00    +0.387 N 
ATOM     27  C   UNL     1      -0.252   1.326   0.936  0.00  0.00    -0.075 C 
ATOM     28  C   UNL     1       2.615  -0.699   1.259  0.00  0.00    +0.005 C 
ATOM     29  H   UNL     1       0.176  -0.685   1.286  0.00  0.00    -0.081 HD
ENDBRANCH  19  26
ENDBRANCH   1  19
TORSDOF 3
