REMARK  Name = ZINC38850148
REMARK  12 active torsions:
REMARK  status: ('A' for Active; 'I' for Inactive)
REMARK    1  A    between atoms: C_1  and  C_2
REMARK    2  A    between atoms: C_2  and  N_3
REMARK    3  A    between atoms: N_3  and  C_4
REMARK    4  A    between atoms: N_3  and  C_6
REMARK    5  A    between atoms: C_4  and  C_5
REMARK    6  A    between atoms: C_6  and  C_7
REMARK    7  A    between atoms: C_7  and  N_8
REMARK    8  A    between atoms: C_19  and  C_21
REMARK    9  A    between atoms: C_24  and  S_27
REMARK   10  A    between atoms: S_27  and  N_30
REMARK   11  A    between atoms: N_30  and  C_31
REMARK   12  A    between atoms: N_30  and  C_32
REMARK                            x       y       z     vdW  Elec       q    Type
REMARK                         _______ _______ _______ _____ _____    ______ ____
ROOT
ATOM      1  N   UNL     1      -3.196  -4.543   0.504  0.00  0.00    -0.248 N 
ATOM      2  C   UNL     1      -3.599  -5.202   1.653  0.00  0.00    +0.168 A 
ATOM      3  N   UNL     1      -4.359  -4.764   2.629  0.00  0.00    -0.224 NA
ATOM      4  C   UNL     1      -4.674  -5.525   3.700  0.00  0.00    +0.080 A 
ATOM      5  C   UNL     1      -5.475  -5.176   4.812  0.00  0.00    +0.030 A 
ATOM      6  C   UNL     1      -5.698  -6.074   5.824  0.00  0.00    +0.022 A 
ATOM      7  C   UNL     1      -5.149  -7.349   5.796  0.00  0.00    +0.042 A 
ATOM      8  C   UNL     1      -4.360  -7.723   4.723  0.00  0.00    +0.037 A 
ATOM      9  C   UNL     1      -4.132  -6.830   3.705  0.00  0.00    +0.042 A 
ATOM     10  S   UNL     1      -3.224  -6.869   2.179  0.00  0.00    -0.052 S 
ATOM     11 CL   UNL     1      -5.450  -8.462   7.094  0.00  0.00    -0.084 Cl
ATOM     12  C   UNL     1      -2.411  -5.172  -0.394  0.00  0.00    +0.252 C 
ATOM     13  O   UNL     1      -2.103  -6.335  -0.222  0.00  0.00    -0.270 OA
ENDROOT
BRANCH  12  14
ATOM     14  C   UNL     1      -1.926  -4.448  -1.587  0.00  0.00    +0.037 A 
ATOM     15  C   UNL     1      -1.712  -3.069  -1.532  0.00  0.00    +0.015 A 
ATOM     16  C   UNL     1      -1.259  -2.399  -2.649  0.00  0.00    +0.029 A 
ATOM     17  C   UNL     1      -1.018  -3.090  -3.823  0.00  0.00    +0.106 A 
ATOM     18  C   UNL     1      -1.228  -4.456  -3.885  0.00  0.00    +0.029 A 
ATOM     19  C   UNL     1      -1.675  -5.139  -2.773  0.00  0.00    +0.015 A 
BRANCH  17  20
ATOM     20  S   UNL     1      -0.441  -2.226  -5.246  0.00  0.00    +0.061 S 
ATOM     21  O   UNL     1      -0.920  -2.940  -6.377  0.00  0.00    -0.153 OA
ATOM     22  O   UNL     1      -0.733  -0.852  -5.033  0.00  0.00    -0.153 OA
BRANCH  20  23
ATOM     23  N   UNL     1       1.210  -2.361  -5.265  0.00  0.00    -0.177 NA
ATOM     24  C   UNL     1       1.849  -3.424  -6.046  0.00  0.00    +0.132 C 
BRANCH  23  25
ATOM     25  C   UNL     1       2.031  -1.419  -4.501  0.00  0.00    +0.080 C 
ATOM     26  C   UNL     1       3.530  -1.379  -4.806  0.00  0.00    +0.022 C 
ATOM     27  C   UNL     1       3.031  -2.002  -3.501  0.00  0.00    +0.022 C 
ENDBRANCH  23  25
ENDBRANCH  20  23
ENDBRANCH  17  20
ENDBRANCH  12  14
BRANCH   1  28
ATOM     28  C   UNL     1      -3.621  -3.162   0.264  0.00  0.00    +0.097 C 
BRANCH  28  29
ATOM     29  C   UNL     1      -2.780  -2.213   1.120  0.00  0.00    -0.059 C 
BRANCH  29  30
ATOM     30  N   UNL     1      -3.120  -0.823   0.789  0.00  0.00    +0.380 N 
ATOM     31  H   UNL     1      -2.995  -0.673  -0.200  0.00  0.00    -0.082 HD
BRANCH  30  33
ATOM     32  C   UNL     1      -4.912   0.844   0.693  0.00  0.00    -0.017 C 
ATOM     33  C   UNL     1      -4.520  -0.562   1.151  0.00  0.00    -0.082 C 
ENDBRANCH  30  33
BRANCH  30  34
ATOM     34  C   UNL     1      -2.244   0.087   1.538  0.00  0.00    -0.082 C 
ATOM     35  C   UNL     1      -0.805  -0.064   1.039  0.00  0.00    -0.017 C 
ENDBRANCH  30  34
ENDBRANCH  29  30
ENDBRANCH  28  29
ENDBRANCH   1  28
TORSDOF 9
