REMARK  Name = ZINC04355134
REMARK  8 active torsions:
REMARK  status: ('A' for Active; 'I' for Inactive)
REMARK    1  A    between atoms: C_5  and  C_7
REMARK    2  A    between atoms: N_9  and  C_10
REMARK    3  A    between atoms: C_10  and  C_11
REMARK    4  A    between atoms: N_13  and  N_14
REMARK    5  A    between atoms: C_15  and  C_16
REMARK    6  A    between atoms: C_20  and  O_22
REMARK    7  A    between atoms: O_22  and  C_23
REMARK    8  A    between atoms: C_23  and  C_25
REMARK                            x       y       z     vdW  Elec       q    Type
REMARK                         _______ _______ _______ _____ _____    ______ ____
ROOT
ATOM      1  N   UNL     1       4.754   0.383  -0.258  0.00  0.00    -0.188 NA
ATOM      2  C   UNL     1       5.976   0.818  -0.262  0.00  0.00    +0.138 C 
ENDROOT
BRANCH   2   3
ATOM      3  C   UNL     1       7.099  -0.134  -0.176  0.00  0.00    -0.002 A 
ATOM      4  C   UNL     1       6.850  -1.506  -0.085  0.00  0.00    +0.010 A 
ATOM      5  C   UNL     1       7.903  -2.394  -0.010  0.00  0.00    +0.004 A 
ATOM      6  C   UNL     1       9.206  -1.931  -0.014  0.00  0.00    +0.046 A 
ATOM      7  C   UNL     1       9.464  -0.569  -0.098  0.00  0.00    +0.133 A 
ATOM      8  C   UNL     1       8.415   0.332  -0.179  0.00  0.00    +0.055 A 
BRANCH   7   9
ATOM      9  O   UNL     1      10.746  -0.120  -0.101  0.00  0.00    -0.422 OA
BRANCH   9  10
ATOM     10  C   UNL     1      11.159   0.560   0.987  0.00  0.00    +0.346 C 
ATOM     11  O   UNL     1      10.431   0.656   1.955  0.00  0.00    -0.244 OA
BRANCH  10  12
ATOM     12  C   UNL     1      12.495   1.187   1.002  0.00  0.00    +0.078 A 
ATOM     13  C   UNL     1      13.334   1.078  -0.110  0.00  0.00    +0.018 A 
ATOM     14  C   UNL     1      14.580   1.666  -0.089  0.00  0.00    +0.021 A 
ATOM     15  C   UNL     1      15.002   2.365   1.031  0.00  0.00    +0.042 A 
ATOM     16  C   UNL     1      14.177   2.478   2.136  0.00  0.00    +0.040 A 
ATOM     17  C   UNL     1      12.924   1.898   2.127  0.00  0.00    +0.056 A 
ATOM     18 CL   UNL     1      11.886   2.045   3.511  0.00  0.00    -0.083 Cl
ATOM     19 CL   UNL     1      16.574   3.102   1.048  0.00  0.00    -0.083 Cl
ENDBRANCH  10  12
ENDBRANCH   9  10
ENDBRANCH   7   9
ENDBRANCH   2   3
BRANCH   1  22
ATOM     20  C   UNL     1       2.418   0.835  -0.336  0.00  0.00    +0.249 C 
ATOM     21  O   UNL     1       2.199  -0.356  -0.263  0.00  0.00    -0.272 OA
ATOM     22  N   UNL     1       3.688   1.287  -0.340  0.00  0.00    -0.206 N 
ATOM     23  H   UNL     1       3.863   2.240  -0.399  0.00  0.00    +0.177 HD
BRANCH  20  24
ATOM     24  C   UNL     1       1.271   1.808  -0.424  0.00  0.00    +0.202 C 
BRANCH  24  27
ATOM     25  C   UNL     1      -1.164   1.741  -0.476  0.00  0.00    +0.246 C 
ATOM     26  O   UNL     1      -1.167   2.954  -0.555  0.00  0.00    -0.270 OA
ATOM     27  N   UNL     1       0.004   1.073  -0.402  0.00  0.00    -0.303 N 
ATOM     28  H   UNL     1       0.006   0.105  -0.339  0.00  0.00    +0.150 HD
BRANCH  25  33
ATOM     29  C   UNL     1      -3.639  -1.081  -0.354  0.00  0.00    +0.001 A 
ATOM     30  C   UNL     1      -4.837  -0.393  -0.429  0.00  0.00    +0.001 A 
ATOM     31  C   UNL     1      -4.845   0.987  -0.520  0.00  0.00    +0.021 A 
ATOM     32  C   UNL     1      -3.655   1.688  -0.536  0.00  0.00    +0.053 A 
ATOM     33  C   UNL     1      -2.442   0.999  -0.460  0.00  0.00    +0.055 A 
ATOM     34  C   UNL     1      -2.443  -0.395  -0.374  0.00  0.00    +0.014 A 
ATOM     35 CL   UNL     1      -3.666   3.420  -0.650  0.00  0.00    -0.083 Cl
ENDBRANCH  25  33
ENDBRANCH  24  27
ENDBRANCH  20  24
ENDBRANCH   1  22
TORSDOF 8
