REMARK  Name = ZINC38847427
REMARK  12 active torsions:
REMARK  status: ('A' for Active; 'I' for Inactive)
REMARK    1  A    between atoms: C_1  and  C_2
REMARK    2  A    between atoms: C_2  and  N_3
REMARK    3  A    between atoms: N_3  and  C_4
REMARK    4  A    between atoms: N_3  and  C_6
REMARK    5  A    between atoms: C_4  and  C_5
REMARK    6  A    between atoms: C_6  and  C_7
REMARK    7  A    between atoms: C_7  and  N_8
REMARK    8  A    between atoms: C_18  and  C_20
REMARK    9  A    between atoms: N_23  and  S_26
REMARK   10  A    between atoms: S_26  and  C_29
REMARK   11  A    between atoms: C_32  and  O_35
REMARK   12  A    between atoms: O_35  and  C_36
REMARK                            x       y       z     vdW  Elec       q    Type
REMARK                         _______ _______ _______ _____ _____    ______ ____
ROOT
ATOM      1  N   UNL     1       2.139  -3.627   2.985  0.00  0.00    -0.252 N 
ATOM      2  C   UNL     1       3.433  -4.047   2.724  0.00  0.00    +0.168 A 
ATOM      3  N   UNL     1       4.505  -3.323   2.498  0.00  0.00    -0.224 NA
ATOM      4  C   UNL     1       5.714  -3.873   2.255  0.00  0.00    +0.080 A 
ATOM      5  C   UNL     1       6.938  -3.212   1.998  0.00  0.00    +0.029 A 
ATOM      6  C   UNL     1       8.085  -3.926   1.770  0.00  0.00    +0.002 A 
ATOM      7  C   UNL     1       8.089  -5.313   1.782  0.00  0.00    +0.001 A 
ATOM      8  C   UNL     1       6.911  -5.992   2.030  0.00  0.00    +0.017 A 
ATOM      9  C   UNL     1       5.757  -5.285   2.260  0.00  0.00    +0.041 A 
ATOM     10  S   UNL     1       4.070  -5.714   2.617  0.00  0.00    -0.052 S 
ATOM     11  C   UNL     1       1.140  -4.528   3.062  0.00  0.00    +0.224 C 
ATOM     12  O   UNL     1      -0.006  -4.153   3.190  0.00  0.00    -0.275 OA
ENDROOT
BRANCH  11  13
ATOM     13  C   UNL     1       1.448  -6.001   2.988  0.00  0.00    +0.078 C 
ATOM     14  C   UNL     1       1.765  -6.384   1.540  0.00  0.00    +0.030 C 
ATOM     15  C   UNL     1       2.111  -7.875   1.475  0.00  0.00    +0.110 C 
ATOM     16  N   UNL     1       1.010  -8.642   2.074  0.00  0.00    -0.177 NA
ATOM     17  C   UNL     1       0.564  -8.295   3.430  0.00  0.00    +0.110 C 
ATOM     18  C   UNL     1       0.236  -6.800   3.474  0.00  0.00    +0.030 C 
BRANCH  16  19
ATOM     19  S   UNL     1       0.287  -9.874   1.237  0.00  0.00    +0.061 S 
ATOM     20  O   UNL     1      -1.016 -10.027   1.784  0.00  0.00    -0.153 OA
ATOM     21  O   UNL     1       0.507  -9.613  -0.142  0.00  0.00    -0.153 OA
BRANCH  19  22
ATOM     22  C   UNL     1       1.169 -11.351   1.617  0.00  0.00    +0.106 A 
ATOM     23  C   UNL     1       2.251 -11.727   0.843  0.00  0.00    +0.032 A 
ATOM     24  C   UNL     1       2.944 -12.885   1.138  0.00  0.00    +0.047 A 
ATOM     25  C   UNL     1       2.554 -13.671   2.214  0.00  0.00    +0.120 A 
ATOM     26  C   UNL     1       1.468 -13.290   2.989  0.00  0.00    +0.047 A 
ATOM     27  C   UNL     1       0.782 -12.129   2.693  0.00  0.00    +0.032 A 
BRANCH  25  28
ATOM     28  O   UNL     1       3.234 -14.810   2.506  0.00  0.00    -0.495 OA
ATOM     29  C   UNL     1       2.776 -15.569   3.627  0.00  0.00    +0.277 C 
ENDBRANCH  25  28
ENDBRANCH  19  22
ENDBRANCH  16  19
ENDBRANCH  11  13
BRANCH   1  30
ATOM     30  C   UNL     1       1.857  -2.202   3.177  0.00  0.00    +0.097 C 
BRANCH  30  31
ATOM     31  C   UNL     1       1.520  -1.562   1.829  0.00  0.00    -0.059 C 
BRANCH  31  32
ATOM     32  N   UNL     1       1.110  -0.167   2.038  0.00  0.00    +0.380 N 
ATOM     33  H   UNL     1       0.349  -0.136   2.700  0.00  0.00    -0.082 HD
BRANCH  32  35
ATOM     34  C   UNL     1       1.786   2.025   2.896  0.00  0.00    -0.017 C 
ATOM     35  C   UNL     1       2.245   0.604   2.561  0.00  0.00    -0.082 C 
ENDBRANCH  32  35
BRANCH  32  36
ATOM     36  C   UNL     1       0.672   0.411   0.761  0.00  0.00    -0.082 C 
ATOM     37  C   UNL     1      -0.597  -0.300   0.287  0.00  0.00    -0.017 C 
ENDBRANCH  32  36
ENDBRANCH  31  32
ENDBRANCH  30  31
ENDBRANCH   1  30
TORSDOF 9
