REMARK  Name = ZINC39669500
REMARK  9 active torsions:
REMARK  status: ('A' for Active; 'I' for Inactive)
REMARK    1  A    between atoms: C_1  and  C_2
REMARK    2  A    between atoms: C_2  and  C_3
REMARK    3  A    between atoms: C_3  and  C_4
REMARK    4  A    between atoms: C_4  and  C_5
REMARK    5  A    between atoms: C_5  and  C_7
REMARK    6  A    between atoms: C_5  and  C_8
REMARK    7  A    between atoms: C_12  and  C_21
REMARK    8  A    between atoms: N_23  and  C_24
REMARK    9  A    between atoms: C_24  and  C_25
REMARK                            x       y       z     vdW  Elec       q    Type
REMARK                         _______ _______ _______ _____ _____    ______ ____
ROOT
ATOM      1  C   UNL     1       1.301  -4.261  -2.827  0.00  0.00    +0.218 C 
ATOM      2  O   UNL     1       0.628  -4.948  -2.089  0.00  0.00    -0.275 OA
ATOM      3  N   UNL     1       2.061  -4.839  -3.779  0.00  0.00    -0.300 N 
ATOM      4  C   UNL     1       3.024  -4.183  -4.694  0.00  0.00    +0.121 C 
ATOM      5  C   UNL     1       4.212  -5.167  -4.782  0.00  0.00    +0.100 C 
ATOM      6  C   UNL     1       3.613  -6.537  -4.423  0.00  0.00    -0.004 C 
ATOM      7  C   UNL     1       2.126  -6.275  -4.142  0.00  0.00    +0.115 C 
ATOM      8  C   UNL     1       3.768  -7.505  -5.593  0.00  0.00    -0.010 C 
ATOM      9  C   UNL     1       3.217  -8.876  -5.191  0.00  0.00    -0.082 C 
ATOM     10  N   UNL     1       3.946  -9.374  -4.019  0.00  0.00    +0.379 N 
ATOM     11  C   UNL     1       3.717  -8.487  -2.872  0.00  0.00    -0.082 C 
ATOM     12  C   UNL     1       4.288  -7.099  -3.175  0.00  0.00    -0.010 C 
ATOM     13  H   UNL     1       3.624 -10.303  -3.794  0.00  0.00    -0.086 HD
ATOM     14  H   UNL     1       4.934  -9.405  -4.226  0.00  0.00    -0.086 HD
ENDROOT
BRANCH   5  15
ATOM     15  C   UNL     1       4.775  -5.188  -6.179  0.00  0.00    +0.218 C 
ATOM     16  O   UNL     1       4.054  -4.955  -7.127  0.00  0.00    -0.275 OA
ATOM     17  N   UNL     1       6.079  -5.465  -6.376  0.00  0.00    -0.315 N 
ATOM     18  H   UNL     1       6.655  -5.651  -5.619  0.00  0.00    +0.149 HD
BRANCH  17  19
ATOM     19  C   UNL     1       6.626  -5.485  -7.735  0.00  0.00    +0.109 C 
BRANCH  19  20
ATOM     20  C   UNL     1       8.117  -5.823  -7.679  0.00  0.00    +0.024 C 
ATOM     21  C   UNL     1       8.717  -5.723  -9.084  0.00  0.00    +0.008 C 
ATOM     22  C   UNL     1      10.215  -6.029  -9.024  0.00  0.00    +0.019 C 
ATOM     23  C   UNL     1      10.420  -7.458  -8.511  0.00  0.00    +0.108 C 
ATOM     24  N   UNL     1       9.723  -7.604  -7.226  0.00  0.00    -0.299 N 
ATOM     25  C   UNL     1       8.299  -7.249  -7.150  0.00  0.00    +0.113 C 
ATOM     26  C   UNL     1      10.394  -8.066  -6.108  0.00  0.00    +0.218 A 
ATOM     27  N   UNL     1       9.737  -8.192  -4.965  0.00  0.00    -0.223 NA
ATOM     28  C   UNL     1      10.349  -8.632  -3.877  0.00  0.00    +0.116 A 
ATOM     29  C   UNL     1      11.693  -8.963  -3.945  0.00  0.00    +0.039 A 
ATOM     30  C   UNL     1      12.350  -8.819  -5.157  0.00  0.00    +0.116 A 
ATOM     31  N   UNL     1      11.678  -8.378  -6.207  0.00  0.00    -0.223 NA
ENDBRANCH  19  20
ENDBRANCH  17  19
ENDBRANCH   5  15
BRANCH   1  32
ATOM     32  C   UNL     1       1.288  -2.761  -2.681  0.00  0.00    +0.072 C 
ATOM     33  C   UNL     1       2.371  -2.336  -1.688  0.00  0.00    +0.017 C 
BRANCH  32  34
ATOM     34  C   UNL     1      -0.081  -2.311  -2.167  0.00  0.00    +0.012 C 
BRANCH  34  35
ATOM     35  C   UNL     1      -0.137  -0.782  -2.137  0.00  0.00    +0.000 C 
BRANCH  35  37
ATOM     36  C   UNL     1      -1.562   1.197  -1.592  0.00  0.00    +0.004 C 
ATOM     37  C   UNL     1      -1.506  -0.332  -1.622  0.00  0.00    -0.003 C 
ENDBRANCH  35  37
ENDBRANCH  34  35
ENDBRANCH  32  34
ENDBRANCH   1  32
TORSDOF 7
