REMARK  Name = ZINC08964156
REMARK  10 active torsions:
REMARK  status: ('A' for Active; 'I' for Inactive)
REMARK    1  A    between atoms: C_1  and  C_2
REMARK    2  A    between atoms: C_2  and  C_3
REMARK    3  A    between atoms: C_2  and  C_4
REMARK    4  A    between atoms: C_2  and  N_5
REMARK    5  A    between atoms: C_6  and  C_8
REMARK    6  A    between atoms: N_10  and  C_11
REMARK    7  A    between atoms: C_11  and  C_12
REMARK    8  A    between atoms: C_12  and  C_14
REMARK    9  A    between atoms: C_12  and  N_59
REMARK   10  A    between atoms: N_22  and  C_23
REMARK                            x       y       z     vdW  Elec       q    Type
REMARK                         _______ _______ _______ _____ _____    ______ ____
ROOT
ATOM      1  C   UNL     1      -3.317   6.102  -1.090  0.00  0.00    -0.020 C 
ENDROOT
BRANCH   1   2
ATOM      2  C   UNL     1      -2.588   4.892  -0.565  0.00  0.00    -0.059 A 
ATOM      3  C   UNL     1      -2.458   4.700   0.799  0.00  0.00    +0.004 A 
ATOM      4  C   UNL     1      -1.793   3.594   1.284  0.00  0.00    +0.023 A 
ATOM      5  C   UNL     1      -1.247   2.661   0.403  0.00  0.00    +0.033 A 
ATOM      6  C   UNL     1      -1.379   2.866  -0.965  0.00  0.00    -0.025 A 
ATOM      7  C   UNL     1      -2.047   3.973  -1.445  0.00  0.00    +0.007 A 
ATOM      8  C   UNL     1      -0.695   1.716  -1.677  0.00  0.00    +0.056 C 
ATOM      9  C   UNL     1       0.177   1.093  -0.563  0.00  0.00    +0.109 C 
ATOM     10  N   UNL     1      -0.543   1.477   0.670  0.00  0.00    -0.332 N 
ATOM     11  C   UNL     1       0.390   1.655   1.791  0.00  0.00    +0.129 C 
ENDBRANCH   1   2
BRANCH   1  16
ATOM     12  C   UNL     1      -1.511   7.540  -0.317  0.00  0.00    -0.078 C 
ATOM     13  C   UNL     1      -1.409   9.025   0.114  0.00  0.00    -0.020 C 
ATOM     14  C   UNL     1      -2.649   9.664  -0.553  0.00  0.00    -0.020 C 
ATOM     15  C   UNL     1      -3.620   8.495  -0.801  0.00  0.00    -0.078 C 
ATOM     16  N   UNL     1      -2.962   7.300  -0.271  0.00  0.00    +0.385 N 
ATOM     17  H   UNL     1      -3.257   7.144   0.700  0.00  0.00    -0.081 HD
ENDBRANCH   1  16
BRANCH   1  18
ATOM     18  C   UNL     1      -4.826   5.858  -1.020  0.00  0.00    +0.094 C 
BRANCH  18  21
ATOM     19  C   UNL     1      -6.484   4.446  -2.112  0.00  0.00    +0.299 C 
ATOM     20  O   UNL     1      -7.350   5.050  -1.514  0.00  0.00    -0.265 OA
ATOM     21  N   UNL     1      -5.188   4.773  -1.935  0.00  0.00    -0.309 N 
ATOM     22  H   UNL     1      -4.496   4.290  -2.412  0.00  0.00    +0.149 HD
BRANCH  19  24
ATOM     23  N   UNL     1      -8.149   3.011  -3.223  0.00  0.00    -0.303 N 
ATOM     24  C   UNL     1      -6.854   3.338  -3.046  0.00  0.00    +0.299 C 
ATOM     25  O   UNL     1      -5.987   2.734  -3.643  0.00  0.00    -0.265 OA
ATOM     26  H   UNL     1      -8.841   3.494  -2.745  0.00  0.00    +0.150 HD
BRANCH  23  28
ATOM     27  C   UNL     1      -7.862   0.623  -3.667  0.00  0.00    +0.031 C 
ATOM     28  C   UNL     1      -8.511   1.926  -4.138  0.00  0.00    +0.027 C 
ATOM     29  C   UNL     1     -10.032   1.761  -4.156  0.00  0.00    +0.031 C 
ATOM     30  C   UNL     1      -8.018   2.260  -5.547  0.00  0.00    +0.031 C 
ENDBRANCH  23  28
ENDBRANCH  19  24
ENDBRANCH  18  21
ENDBRANCH   1  18
TORSDOF 6
