REMARK  Name = ZINC51675705
REMARK  7 active torsions:
REMARK  status: ('A' for Active; 'I' for Inactive)
REMARK    1  A    between atoms: C_1  and  C_2
REMARK    2  A    between atoms: C_2  and  C_3
REMARK    3  A    between atoms: C_3  and  N_4
REMARK    4  A    between atoms: C_5  and  C_7
REMARK    5  A    between atoms: N_16  and  C_17
REMARK    6  A    between atoms: C_22  and  C_27
REMARK    7  A    between atoms: C_24  and  C_26
REMARK                            x       y       z     vdW  Elec       q    Type
REMARK                         _______ _______ _______ _____ _____    ______ ____
ROOT
ATOM      1  C   UNL     1       1.387  -4.150   2.222  0.00  0.00    +0.092 C 
ATOM      2  C   UNL     1       2.123  -4.658   3.464  0.00  0.00    +0.016 C 
ATOM      3  C   UNL     1       2.112  -6.189   3.475  0.00  0.00    +0.020 C 
ATOM      4  C   UNL     1       2.841  -6.710   2.233  0.00  0.00    +0.109 C 
ATOM      5  N   UNL     1       2.229  -6.111   1.039  0.00  0.00    -0.285 N 
ATOM      6  C   UNL     1       2.107  -4.648   0.965  0.00  0.00    +0.122 C 
ATOM      7  C   UNL     1       1.788  -6.888   0.030  0.00  0.00    +0.302 C 
ATOM      8  O   UNL     1       1.199  -6.388  -0.909  0.00  0.00    -0.253 OA
ATOM      9  N   UNL     1       2.000  -8.218   0.061  0.00  0.00    -0.296 N 
ATOM     10  H   UNL     1       2.406  -8.626   0.843  0.00  0.00    +0.151 HD
ENDROOT
BRANCH   9  11
ATOM     11  C   UNL     1       1.619  -9.048  -1.084  0.00  0.00    +0.078 C 
ATOM     12  C   UNL     1       0.142  -9.429  -0.968  0.00  0.00    +0.022 C 
ATOM     13  C   UNL     1      -0.257 -10.296  -2.164  0.00  0.00    +0.002 C 
ATOM     14  C   UNL     1       0.597 -11.566  -2.181  0.00  0.00    +0.003 C 
ATOM     15  C   UNL     1       2.075 -11.184  -2.297  0.00  0.00    -0.009 C 
ATOM     16  C   UNL     1       2.473 -10.318  -1.101  0.00  0.00    +0.009 C 
ATOM     17  C   UNL     1       2.248 -11.101   0.194  0.00  0.00    +0.009 C 
ATOM     18  C   UNL     1       2.929 -12.454  -2.314  0.00  0.00    +0.008 C 
ENDBRANCH   9  11
BRANCH   1  20
ATOM     19  N   UNL     1       0.773  -1.971   1.225  0.00  0.00    -0.315 N 
ATOM     20  C   UNL     1       1.371  -2.643   2.229  0.00  0.00    +0.218 C 
ATOM     21  O   UNL     1       1.896  -2.035   3.137  0.00  0.00    -0.275 OA
ATOM     22  H   UNL     1       0.353  -2.458   0.498  0.00  0.00    +0.149 HD
BRANCH  19  23
ATOM     23  C   UNL     1       0.758  -0.506   1.231  0.00  0.00    +0.104 C 
BRANCH  23  25
ATOM     24  C   UNL     1       0.006   1.531  -0.005  0.00  0.00    +0.005 C 
ATOM     25  C   UNL     1       0.023   0.001  -0.011  0.00  0.00    +0.015 C 
ENDBRANCH  23  25
ENDBRANCH  19  23
ENDBRANCH   1  20
TORSDOF 4
