REMARK  Name = ZINC02275830
REMARK  8 active torsions:
REMARK  status: ('A' for Active; 'I' for Inactive)
REMARK    1  A    between atoms: C_1  and  C_2
REMARK    2  A    between atoms: C_5  and  C_8
REMARK    3  A    between atoms: C_8  and  C_10
REMARK    4  A    between atoms: C_11  and  N_33
REMARK    5  A    between atoms: C_13  and  C_25
REMARK    6  A    between atoms: C_15  and  C_19
REMARK    7  A    between atoms: C_30  and  O_31
REMARK    8  A    between atoms: O_31  and  C_32
REMARK                            x       y       z     vdW  Elec       q    Type
REMARK                         _______ _______ _______ _____ _____    ______ ____
ROOT
ATOM      1  C   UNL     1       1.899   5.589  -0.388  0.00  0.00    +0.083 A 
ATOM      2  C   UNL     1       2.206   4.285  -0.739  0.00  0.00    +0.053 A 
ATOM      3  C   UNL     1       1.162   3.393  -1.044  0.00  0.00    +0.037 A 
ATOM      4  C   UNL     1       1.259   2.017  -1.425  0.00  0.00    -0.001 A 
ATOM      5  C   UNL     1       0.097   1.310  -1.684  0.00  0.00    +0.037 A 
ATOM      6  C   UNL     1      -1.144   1.937  -1.577  0.00  0.00    +0.073 A 
ATOM      7  N   UNL     1      -1.221   3.213  -1.217  0.00  0.00    -0.239 NA
ATOM      8  C   UNL     1      -0.147   3.924  -0.962  0.00  0.00    +0.112 A 
ATOM      9  S   UNL     1       0.117   5.612  -0.473  0.00  0.00    -0.064 S 
ENDROOT
BRANCH   6  10
ATOM     10  C   UNL     1      -2.383   1.175  -1.862  0.00  0.00    +0.000 A 
ATOM     11  C   UNL     1      -2.309  -0.165  -2.241  0.00  0.00    +0.010 A 
ATOM     12  C   UNL     1      -3.466  -0.871  -2.500  0.00  0.00    +0.001 A 
ATOM     13  C   UNL     1      -4.698  -0.249  -2.394  0.00  0.00    +0.000 A 
ATOM     14  C   UNL     1      -4.777   1.081  -2.023  0.00  0.00    +0.001 A 
ATOM     15  C   UNL     1      -3.627   1.796  -1.757  0.00  0.00    +0.010 A 
ENDBRANCH   6  10
BRANCH   4  16
ATOM     16  C   UNL     1       2.581   1.361  -1.542  0.00  0.00    +0.025 A 
ATOM     17  C   UNL     1       3.057   0.961  -2.791  0.00  0.00    +0.012 A 
ATOM     18  C   UNL     1       4.291   0.354  -2.894  0.00  0.00    +0.001 A 
ATOM     19  C   UNL     1       5.056   0.131  -1.762  0.00  0.00    +0.004 A 
ATOM     20  C   UNL     1       4.593   0.519  -0.519  0.00  0.00    +0.046 A 
ATOM     21  C   UNL     1       3.357   1.134  -0.400  0.00  0.00    +0.128 A 
BRANCH  21  22
ATOM     22  O   UNL     1       2.900   1.514   0.821  0.00  0.00    -0.495 OA
ATOM     23  C   UNL     1       3.747   1.250   1.942  0.00  0.00    +0.277 C 
ENDBRANCH  21  22
ENDBRANCH   4  16
BRANCH   2  24
ATOM     24  N   UNL     1       3.526   3.865  -0.788  0.00  0.00    -0.356 N 
ATOM     25  H   UNL     1       3.773   3.106  -1.339  0.00  0.00    +0.142 HD
ATOM     26  H   UNL     1       4.203   4.330  -0.272  0.00  0.00    +0.142 HD
ENDBRANCH   2  24
BRANCH   1  27
ATOM     27  C   UNL     1       2.778   6.641  -0.046  0.00  0.00    +0.202 C 
ATOM     28  O   UNL     1       3.971   6.423   0.074  0.00  0.00    -0.286 OA
BRANCH  27  33
ATOM     29  C   UNL     1       0.727  11.956   0.775  0.00  0.00    +0.044 C 
ATOM     30  C   UNL     1       1.264  10.565   0.559  0.00  0.00    -0.050 A 
ATOM     31  C   UNL     1       2.468  10.195   1.132  0.00  0.00    +0.004 A 
ATOM     32  C   UNL     1       2.965   8.922   0.939  0.00  0.00    +0.012 A 
ATOM     33  C   UNL     1       2.251   8.007   0.165  0.00  0.00    +0.023 A 
ATOM     34  C   UNL     1       1.040   8.388  -0.415  0.00  0.00    +0.012 A 
ATOM     35  C   UNL     1       0.551   9.662  -0.209  0.00  0.00    +0.004 A 
ENDBRANCH  27  33
ENDBRANCH   1  27
TORSDOF 6
