REMARK  Name = ZINC32916620
REMARK  3 active torsions:
REMARK  status: ('A' for Active; 'I' for Inactive)
REMARK    1  A    between atoms: C_7  and  N_12
REMARK    2  A    between atoms: N_12  and  S_13
REMARK    3  A    between atoms: S_13  and  C_16
REMARK                            x       y       z     vdW  Elec       q    Type
REMARK                         _______ _______ _______ _____ _____    ______ ____
ROOT
ATOM      1  S   UNL     1      -0.024   1.416   0.014  0.00  0.00    +0.059 S 
ATOM      2  O   UNL     1       0.100   0.002  -0.061  0.00  0.00    -0.153 OA
ATOM      3  O   UNL     1       1.104   2.277   0.084  0.00  0.00    -0.153 OA
ENDROOT
BRANCH   1   4
ATOM      4  C   UNL     1      -1.009   1.760   1.434  0.00  0.00    +0.106 A 
ATOM      5  C   UNL     1      -0.913   2.985   2.070  0.00  0.00    +0.030 A 
ATOM      6  C   UNL     1      -1.688   3.237   3.175  0.00  0.00    +0.025 A 
ATOM      7  C   UNL     1      -2.571   2.271   3.688  0.00  0.00    +0.037 A 
ATOM      8  C   UNL     1      -2.664   1.053   3.050  0.00  0.00    -0.024 A 
ATOM      9  C   UNL     1      -1.875   0.810   1.924  0.00  0.00    +0.034 A 
ATOM     10  C   UNL     1      -3.566  -0.067   3.456  0.00  0.00    +0.037 C 
ATOM     11  C   UNL     1      -4.900   0.337   4.002  0.00  0.00    +0.014 C 
ATOM     12  C   UNL     1      -4.844   0.824   5.430  0.00  0.00    +0.096 C 
ATOM     13  C   UNL     1      -4.236   2.177   5.532  0.00  0.00    +0.217 C 
ATOM     14  O   UNL     1      -4.698   2.914   6.377  0.00  0.00    -0.275 OA
ATOM     15  N   UNL     1      -3.262   2.658   4.813  0.00  0.00    -0.285 N 
ATOM     16  H   UNL     1      -3.008   3.603   5.316  0.00  0.00    +0.155 HD
ENDBRANCH   1   4
BRANCH   1  17
ATOM     17  N   UNL     1      -0.897   1.885  -1.312  0.00  0.00    -0.182 NA
ATOM     18  H   UNL     1      -1.370   1.119  -1.944  0.00  0.00    +0.149 HD
BRANCH  17  25
ATOM     19  C   UNL     1       0.970   3.682  -4.559  0.00  0.00    +0.001 A 
ATOM     20  C   UNL     1       0.201   4.496  -5.370  0.00  0.00    +0.004 A 
ATOM     21  C   UNL     1      -1.037   4.927  -4.938  0.00  0.00    +0.046 A 
ATOM     22  C   UNL     1      -1.514   4.546  -3.688  0.00  0.00    +0.125 A 
ATOM     23  C   UNL     1      -0.741   3.733  -2.878  0.00  0.00    +0.013 A 
ATOM     24  C   UNL     1       0.500   3.302  -3.318  0.00  0.00    +0.009 A 
ATOM     25  C   UNL     1      -1.218   3.301  -1.515  0.00  0.00    +0.113 C 
ATOM     26  C   UNL     1      -2.732   3.500  -1.411  0.00  0.00    +0.066 C 
ATOM     27  C   UNL     1      -3.068   4.910  -1.913  0.00  0.00    +0.231 C 
ATOM     28  O   UNL     1      -2.740   4.984  -3.301  0.00  0.00    -0.492 OA
ENDBRANCH  17  25
ENDBRANCH   1  17
TORSDOF 3
