REMARK  Name = ZINC35781249
REMARK  11 active torsions:
REMARK  status: ('A' for Active; 'I' for Inactive)
REMARK    1  A    between atoms: C_1  and  C_2
REMARK    2  A    between atoms: C_7  and  O_8
REMARK    3  A    between atoms: O_8  and  C_9
REMARK    4  A    between atoms: C_9  and  C_10
REMARK    5  A    between atoms: C_10  and  C_12
REMARK    6  A    between atoms: C_10  and  O_37
REMARK    7  A    between atoms: C_12  and  N_13
REMARK    8  A    between atoms: N_13  and  C_14
REMARK    9  A    between atoms: N_13  and  C_20
REMARK   10  A    between atoms: C_14  and  C_15
REMARK   11  A    between atoms: C_20  and  C_21
REMARK                            x       y       z     vdW  Elec       q    Type
REMARK                         _______ _______ _______ _____ _____    ______ ____
ROOT
ATOM      1  N   UNL     1       0.142   0.243   7.171  0.00  0.00    +0.391 N 
ATOM      2  H   UNL     1      -0.692   0.803   7.272  0.00  0.00    -0.080 HD
ENDROOT
BRANCH   1   3
ATOM      3  C   UNL     1      -0.030  -0.695   6.054  0.00  0.00    -0.043 C 
BRANCH   3   4
ATOM      4  C   UNL     1      -1.336  -1.471   6.236  0.00  0.00    +0.135 C 
BRANCH   4   5
ATOM      5  O   UNL     1      -1.216  -2.349   7.358  0.00  0.00    -0.390 OA
ATOM      6  H   UNL     1      -0.506  -3.000   7.273  0.00  0.00    +0.210 HD
ENDBRANCH   4   5
BRANCH   4   7
ATOM      7  C   UNL     1      -1.623  -2.290   4.976  0.00  0.00    +0.258 C 
BRANCH   7   8
ATOM      8  O   UNL     1      -2.898  -2.923   5.100  0.00  0.00    -0.489 OA
BRANCH   8  15
ATOM      9  C   UNL     1      -5.416  -4.184   5.324  0.00  0.00    +0.047 C 
ATOM     10  C   UNL     1      -4.535  -4.338   4.111  0.00  0.00    -0.009 A 
ATOM     11  C   UNL     1      -4.952  -5.117   3.048  0.00  0.00    +0.007 A 
ATOM     12  C   UNL     1      -4.144  -5.259   1.936  0.00  0.00    +0.000 A 
ATOM     13  C   UNL     1      -2.917  -4.623   1.883  0.00  0.00    +0.004 A 
ATOM     14  C   UNL     1      -2.496  -3.843   2.943  0.00  0.00    +0.046 A 
ATOM     15  C   UNL     1      -3.308  -3.694   4.058  0.00  0.00    +0.124 A 
ENDBRANCH   8  15
ENDBRANCH   7   8
ENDBRANCH   4   7
ENDBRANCH   3   4
ENDBRANCH   1   3
BRANCH   1  16
ATOM     16  C   UNL     1       1.290   1.119   6.902  0.00  0.00    -0.002 C 
BRANCH  16  17
ATOM     17  C   UNL     1       0.987   1.995   5.714  0.00  0.00    +0.089 A 
ATOM     18  C   UNL     1       0.495   3.246   5.764  0.00  0.00    +0.042 A 
ATOM     19  C   UNL     1       0.366   3.689   4.428  0.00  0.00    +0.041 A 
ATOM     20  C   UNL     1       0.787   2.682   3.641  0.00  0.00    +0.195 A 
ATOM     21  O   UNL     1       1.168   1.661   4.426  0.00  0.00    -0.470 OA
ENDBRANCH  16  17
ENDBRANCH   1  16
BRANCH   1  22
ATOM     22  C   UNL     1       0.379  -0.509   8.410  0.00  0.00    -0.003 C 
BRANCH  22  23
ATOM     23  C   UNL     1       0.412   0.443   9.578  0.00  0.00    +0.094 A 
ATOM     24  N   UNL     1       0.626  -0.042  10.828  0.00  0.00    -0.312 N 
ATOM     25  H   UNL     1       0.755  -0.995  10.952  0.00  0.00    +0.170 HD
ATOM     26  C   UNL     1       0.662   0.774  11.898  0.00  0.00    +0.260 A 
ATOM     27  O   UNL     1       0.856   0.324  13.014  0.00  0.00    -0.267 OA
ATOM     28  C   UNL     1       0.471   2.181  11.703  0.00  0.00    +0.075 A 
ATOM     29  C   UNL     1       0.471   3.243  12.713  0.00  0.00    -0.023 A 
ATOM     30  C   UNL     1       0.261   4.500  12.270  0.00  0.00    -0.004 A 
ATOM     31  S   UNL     1       0.067   4.346  10.513  0.00  0.00    -0.073 S 
ATOM     32  C   UNL     1       0.258   2.587  10.378  0.00  0.00    +0.116 A 
ATOM     33  N   UNL     1       0.240   1.721   9.368  0.00  0.00    -0.229 NA
ATOM     34  C   UNL     1       0.192   5.759  13.077  0.00  0.00    +0.043 C 
ATOM     35  C   UNL     1       1.399   5.823  14.021  0.00  0.00    +0.005 C 
ATOM     36  C   UNL     1       1.023   5.138  15.331  0.00  0.00    +0.001 C 
ATOM     37  C   UNL     1       0.052   3.990  15.061  0.00  0.00    +0.005 C 
ATOM     38  C   UNL     1       0.709   2.928  14.187  0.00  0.00    +0.037 C 
ENDBRANCH  22  23
ENDBRANCH   1  22
TORSDOF 10
