REMARK  Name = ZINC39713849
REMARK  5 active torsions:
REMARK  status: ('A' for Active; 'I' for Inactive)
REMARK    1  A    between atoms: C_1  and  C_2
REMARK    2  A    between atoms: C_6  and  C_8
REMARK    3  A    between atoms: N_10  and  N_21
REMARK    4  A    between atoms: C_22  and  C_23
REMARK    5  A    between atoms: C_26  and  N_28
REMARK                            x       y       z     vdW  Elec       q    Type
REMARK                         _______ _______ _______ _____ _____    ______ ____
ROOT
ATOM      1  C   UNL     1      -0.097  -2.847   2.458  0.00  0.00    +0.272 C 
ATOM      2  O   UNL     1      -0.494  -2.269   1.466  0.00  0.00    -0.268 OA
ATOM      3  N   UNL     1       0.021  -4.189   2.453  0.00  0.00    -0.132 N 
ATOM      4  C   UNL     1       0.299  -4.859   3.620  0.00  0.00    +0.189 A 
ATOM      5  N   UNL     1       0.037  -4.501   4.862  0.00  0.00    -0.223 NA
ATOM      6  C   UNL     1       0.365  -5.253   5.915  0.00  0.00    +0.080 A 
ATOM      7  C   UNL     1       0.140  -4.982   7.292  0.00  0.00    +0.030 A 
ATOM      8  C   UNL     1       0.541  -5.860   8.246  0.00  0.00    +0.017 A 
ATOM      9  C   UNL     1       1.183  -7.052   7.922  0.00  0.00    +0.019 A 
ATOM     10  C   UNL     1       1.422  -7.356   6.593  0.00  0.00    +0.032 A 
ATOM     11  C   UNL     1       1.022  -6.478   5.618  0.00  0.00    +0.042 A 
ATOM     12  S   UNL     1       1.102  -6.440   3.843  0.00  0.00    -0.050 S 
ATOM     13 BR   UNL     1       1.724  -8.245   9.286  0.00  0.00    -0.050 Br
ENDROOT
BRANCH   1  19
ATOM     14  C   UNL     1      -0.811   1.099   5.426  0.00  0.00    +0.044 C 
ATOM     15  C   UNL     1      -0.085  -0.181   5.100  0.00  0.00    -0.050 A 
ATOM     16  C   UNL     1       0.917  -0.638   5.939  0.00  0.00    +0.003 A 
ATOM     17  C   UNL     1       1.590  -1.812   5.647  0.00  0.00    +0.001 A 
ATOM     18  C   UNL     1       1.266  -2.535   4.518  0.00  0.00    +0.013 A 
ATOM     19  C   UNL     1       0.256  -2.079   3.668  0.00  0.00    +0.039 A 
ATOM     20  C   UNL     1      -0.424  -0.896   3.971  0.00  0.00    +0.016 A 
ENDBRANCH   1  19
BRANCH   3  21
ATOM     21  N   UNL     1      -0.127  -4.846   1.353  0.00  0.00    -0.178 NA
ATOM     22  C   UNL     1      -0.233  -4.192   0.194  0.00  0.00    +0.146 C 
BRANCH  22  23
ATOM     23  C   UNL     1      -0.649  -4.863  -0.945  0.00  0.00    +0.034 A 
ATOM     24  C   UNL     1      -0.739  -4.374  -2.333  0.00  0.00    +0.019 A 
ATOM     25  C   UNL     1      -1.184  -5.282  -3.212  0.00  0.00    +0.041 A 
ATOM     26  C   UNL     1      -1.514  -6.562  -2.770  0.00  0.00    +0.164 A 
ATOM     27  S   UNL     1      -1.209  -6.547  -1.118  0.00  0.00    -0.064 S 
BRANCH  26  28
ATOM     28  N   UNL     1      -2.018  -7.694  -3.582  0.00  0.00    +0.063 N 
ATOM     29  O   UNL     1      -2.200  -7.545  -4.878  0.00  0.00    -0.126 OA
ATOM     30  O   UNL     1      -2.284  -8.849  -3.009  0.00  0.00    -0.126 OA
ENDBRANCH  26  28
ENDBRANCH  22  23
ENDBRANCH   3  21
TORSDOF 4
