REMARK  Name = ZINC26781436
REMARK  16 active torsions:
REMARK  status: ('A' for Active; 'I' for Inactive)
REMARK    1  A    between atoms: C_1  and  O_2
REMARK    2  A    between atoms: O_2  and  C_3
REMARK    3  A    between atoms: C_5  and  C_13
REMARK    4  A    between atoms: C_7  and  O_11
REMARK    5  A    between atoms: C_8  and  O_9
REMARK    6  A    between atoms: O_9  and  C_10
REMARK    7  A    between atoms: O_11  and  C_12
REMARK    8  A    between atoms: C_13  and  O_14
REMARK    9  A    between atoms: O_14  and  C_15
REMARK   10  A    between atoms: C_15  and  C_16
REMARK   11  A    between atoms: C_16  and  C_18
REMARK   12  A    between atoms: C_16  and  O_38
REMARK   13  A    between atoms: C_18  and  N_19
REMARK   14  A    between atoms: N_22  and  C_25
REMARK   15  A    between atoms: C_25  and  C_26
REMARK   16  A    between atoms: C_25  and  C_32
REMARK                            x       y       z     vdW  Elec       q    Type
REMARK                         _______ _______ _______ _____ _____    ______ ____
ROOT
ATOM      1  N   UNL     1       5.974  -0.579  -4.837  0.00  0.00    -0.303 NA
ATOM      2  C   UNL     1       4.896  -1.294  -5.534  0.00  0.00    +0.066 C 
ATOM      3  C   UNL     1       5.333  -1.597  -6.970  0.00  0.00    -0.062 C 
ATOM      4  N   UNL     1       6.563  -2.401  -6.944  0.00  0.00    +0.389 N 
ATOM      5  C   UNL     1       7.641  -1.687  -6.247  0.00  0.00    -0.062 C 
ATOM      6  C   UNL     1       7.204  -1.383  -4.812  0.00  0.00    +0.066 C 
ATOM      7  H   UNL     1       6.353  -3.326  -6.388  0.00  0.00    -0.080 HD
ENDROOT
BRANCH   1   8
ATOM      8  C   UNL     1       5.564  -0.203  -3.478  0.00  0.00    +0.117 C 
BRANCH   8   9
ATOM      9  C   UNL     1       4.437   0.829  -3.553  0.00  0.00    +0.154 C 
BRANCH   9  10
ATOM     10  O   UNL     1       4.899   1.989  -4.249  0.00  0.00    -0.388 OA
ATOM     11  H   UNL     1       5.250   1.903  -5.288  0.00  0.00    +0.210 HD
ENDBRANCH   9  10
BRANCH   9  12
ATOM     12  C   UNL     1       4.010   1.222  -2.137  0.00  0.00    +0.192 C 
BRANCH  12  13
ATOM     13  O   UNL     1       2.881   2.096  -2.205  0.00  0.00    -0.373 OA
BRANCH  13  14
ATOM     14  C   UNL     1       2.400   2.524  -0.930  0.00  0.00    +0.195 C 
BRANCH  14  17
ATOM     15  C   UNL     1      -1.152   3.745  -1.348  0.00  0.00    +0.166 A 
ATOM     16  C   UNL     1      -0.061   2.909  -1.168  0.00  0.00    +0.055 A 
ATOM     17  C   UNL     1       1.216   3.437  -1.120  0.00  0.00    -0.015 A 
ATOM     18  C   UNL     1       1.410   4.800  -1.247  0.00  0.00    +0.055 A 
ATOM     19  C   UNL     1       0.323   5.643  -1.423  0.00  0.00    +0.166 A 
ATOM     20  C   UNL     1      -0.962   5.116  -1.471  0.00  0.00    +0.204 A 
BRANCH  15  22
ATOM     21  C   UNL     1      -2.528   1.807  -1.262  0.00  0.00    +0.277 C 
ATOM     22  O   UNL     1      -2.407   3.224  -1.400  0.00  0.00    -0.491 OA
ENDBRANCH  15  22
BRANCH  20  23
ATOM     23  O   UNL     1      -2.031   5.940  -1.643  0.00  0.00    -0.488 OA
ATOM     24  C   UNL     1      -2.439   6.201  -2.988  0.00  0.00    +0.277 C 
ENDBRANCH  20  23
BRANCH  19  25
ATOM     25  O   UNL     1       0.514   6.983  -1.548  0.00  0.00    -0.491 OA
ATOM     26  C   UNL     1       1.862   7.454  -1.489  0.00  0.00    +0.277 C 
ENDBRANCH  19  25
ENDBRANCH  14  17
ENDBRANCH  13  14
ENDBRANCH  12  13
ENDBRANCH   9  12
ENDBRANCH   8   9
ENDBRANCH   1   8
BRANCH   4  27
ATOM     27  C   UNL     1       6.973  -2.778  -8.304  0.00  0.00    -0.007 C 
BRANCH  27  28
ATOM     28  C   UNL     1       8.137  -3.733  -8.231  0.00  0.00    -0.057 A 
ATOM     29  C   UNL     1       8.125  -4.767  -7.314  0.00  0.00    +0.002 A 
ATOM     30  C   UNL     1       9.190  -5.646  -7.250  0.00  0.00    +0.000 A 
ATOM     31  C   UNL     1      10.271  -5.485  -8.097  0.00  0.00    +0.000 A 
ATOM     32  C   UNL     1      10.285  -4.447  -9.010  0.00  0.00    +0.000 A 
ATOM     33  C   UNL     1       9.218  -3.571  -9.077  0.00  0.00    +0.002 A 
ENDBRANCH  27  28
BRANCH  27  34
ATOM     34  C   UNL     1       5.821  -3.443  -9.011  0.00  0.00    -0.057 A 
ATOM     35  C   UNL     1       5.077  -4.411  -8.361  0.00  0.00    +0.002 A 
ATOM     36  C   UNL     1       4.017  -5.018  -9.008  0.00  0.00    +0.000 A 
ATOM     37  C   UNL     1       3.706  -4.664 -10.307  0.00  0.00    +0.000 A 
ATOM     38  C   UNL     1       4.453  -3.700 -10.959  0.00  0.00    +0.000 A 
ATOM     39  C   UNL     1       5.510  -3.090 -10.310  0.00  0.00    +0.002 A 
ENDBRANCH  27  34
ENDBRANCH   4  27
TORSDOF 13
