REMARK  Name = ZINC15953424
REMARK  12 active torsions:
REMARK  status: ('A' for Active; 'I' for Inactive)
REMARK    1  A    between atoms: C_1  and  O_2
REMARK    2  A    between atoms: O_2  and  C_3
REMARK    3  A    between atoms: C_5  and  C_13
REMARK    4  A    between atoms: C_7  and  O_11
REMARK    5  A    between atoms: C_8  and  O_9
REMARK    6  A    between atoms: O_9  and  C_10
REMARK    7  A    between atoms: O_11  and  C_12
REMARK    8  A    between atoms: C_21  and  O_34
REMARK    9  A    between atoms: C_24  and  C_25
REMARK   10  A    between atoms: C_24  and  N_67
REMARK   11  A    between atoms: N_27  and  C_28
REMARK   12  A    between atoms: C_28  and  C_29
REMARK                            x       y       z     vdW  Elec       q    Type
REMARK                         _______ _______ _______ _____ _____    ______ ____
ROOT
ATOM      1  C   UNL     1       2.892  -0.473   2.502  0.00  0.00    -0.031 C 
ATOM      2  C   UNL     1       2.175   0.015   1.240  0.00  0.00    +0.011 C 
ATOM      3  C   UNL     1       0.737  -0.509   1.245  0.00  0.00    +0.005 C 
ATOM      4  C   UNL     1       0.002  -0.004   0.002  0.00  0.00    +0.000 C 
ATOM      5  C   UNL     1      -0.019   1.526   0.010  0.00  0.00    +0.003 C 
ATOM      6  C   UNL     1       1.418   2.053  -0.001  0.00  0.00    +0.035 C 
ATOM      7  C   UNL     1       2.160   1.546   1.235  0.00  0.00    +0.066 C 
ATOM      8  C   UNL     1       1.459   2.045   2.501  0.00  0.00    +0.016 C 
ATOM      9  C   UNL     1       2.188   1.496   3.730  0.00  0.00    -0.075 C 
ATOM     10  N   UNL     1       2.156   0.018   3.688  0.00  0.00    +0.390 N 
ATOM     11  H   UNL     1       1.179  -0.292   3.625  0.00  0.00    -0.080 HD
ENDROOT
BRANCH   1  14
ATOM     12  C   UNL     1       4.051  -4.053   2.149  0.00  0.00    +0.165 A 
ATOM     13  C   UNL     1       4.037  -2.667   2.131  0.00  0.00    +0.051 A 
ATOM     14  C   UNL     1       2.903  -1.980   2.523  0.00  0.00    -0.053 A 
ATOM     15  C   UNL     1       1.781  -2.672   2.940  0.00  0.00    +0.051 A 
ATOM     16  C   UNL     1       1.785  -4.059   2.955  0.00  0.00    +0.165 A 
ATOM     17  C   UNL     1       2.923  -4.753   2.562  0.00  0.00    +0.204 A 
BRANCH  12  19
ATOM     18  C   UNL     1       6.288  -3.944   1.350  0.00  0.00    +0.277 C 
ATOM     19  O   UNL     1       5.167  -4.727   1.763  0.00  0.00    -0.491 OA
ENDBRANCH  12  19
BRANCH  17  20
ATOM     20  O   UNL     1       2.934  -6.113   2.582  0.00  0.00    -0.488 OA
ATOM     21  C   UNL     1       3.365  -6.741   3.791  0.00  0.00    +0.277 C 
ENDBRANCH  17  20
BRANCH  16  22
ATOM     22  O   UNL     1       0.679  -4.739   3.360  0.00  0.00    -0.491 OA
ATOM     23  C   UNL     1      -0.454  -3.960   3.750  0.00  0.00    +0.277 C 
ENDBRANCH  16  22
ENDBRANCH   1  14
BRANCH   7  24
ATOM     24  O   UNL     1       3.503   2.034   1.216  0.00  0.00    -0.388 OA
ATOM     25  H   UNL     1       3.571   2.998   1.213  0.00  0.00    +0.210 HD
ENDBRANCH   7  24
BRANCH  10  26
ATOM     26  C   UNL     1       2.757  -0.535   4.919  0.00  0.00    +0.019 C 
BRANCH  26  27
ATOM     27  C   UNL     1       4.220  -0.181   5.000  0.00  0.00    +0.197 C 
ATOM     28  O   UNL     1       4.735   0.475   4.120  0.00  0.00    -0.278 OA
ATOM     29  N   UNL     1       4.955  -0.594   6.051  0.00  0.00    -0.310 N 
ATOM     30  H   UNL     1       4.543  -1.119   6.755  0.00  0.00    +0.149 HD
BRANCH  29  31
ATOM     31  C   UNL     1       6.377  -0.250   6.131  0.00  0.00    +0.178 C 
BRANCH  31  32
ATOM     32  C   UNL     1       6.964  -0.827   7.393  0.00  0.00    +0.122 A 
ATOM     33  C   UNL     1       7.521  -2.045   7.516  0.00  0.00    +0.046 A 
ATOM     34  C   UNL     1       7.936  -2.172   8.862  0.00  0.00    +0.041 A 
ATOM     35  C   UNL     1       7.607  -1.024   9.481  0.00  0.00    +0.195 A 
ATOM     36  O   UNL     1       7.023  -0.211   8.585  0.00  0.00    -0.466 OA
ENDBRANCH  31  32
ENDBRANCH  29  31
ENDBRANCH  26  27
ENDBRANCH  10  26
TORSDOF 9
