REMARK  Name = ZINC39359798
REMARK  6 active torsions:
REMARK  status: ('A' for Active; 'I' for Inactive)
REMARK    1  A    between atoms: C_1  and  C_2
REMARK    2  A    between atoms: C_4  and  C_8
REMARK    3  A    between atoms: N_10  and  C_11
REMARK    4  A    between atoms: C_14  and  C_29
REMARK    5  A    between atoms: C_14  and  C_30
REMARK    6  A    between atoms: N_21  and  C_22
REMARK                            x       y       z     vdW  Elec       q    Type
REMARK                         _______ _______ _______ _____ _____    ______ ____
ROOT
ATOM      1  C   UNL     1      -3.261   0.135  -3.638  0.00  0.00    +0.103 C 
ATOM      2  C   UNL     1      -3.143   0.869  -4.984  0.00  0.00    +0.033 C 
ATOM      3  C   UNL     1      -2.825   2.345  -4.750  0.00  0.00    -0.031 C 
ATOM      4  C   UNL     1      -3.967   3.046  -4.007  0.00  0.00    +0.035 C 
ATOM      5  C   UNL     1      -4.079   2.439  -2.606  0.00  0.00    +0.124 C 
ATOM      6  C   UNL     1      -4.222   0.934  -2.789  0.00  0.00    -0.013 C 
ATOM      7  C   UNL     1      -5.276   0.548  -2.125  0.00  0.00    +0.091 C 
ATOM      8  N   UNL     1      -5.935   1.622  -1.546  0.00  0.00    -0.271 N 
ATOM      9  N   UNL     1      -5.312   2.846  -1.928  0.00  0.00    -0.246 N 
ATOM     10  C   UNL     1      -2.609   3.031  -6.100  0.00  0.00    +0.011 C 
ATOM     11  C   UNL     1      -1.544   2.456  -3.921  0.00  0.00    +0.011 C 
ATOM     12  H   UNL     1      -6.706   1.551  -0.962  0.00  0.00    +0.169 HD
ENDROOT
BRANCH   9  13
ATOM     13  C   UNL     1      -5.770   4.150  -1.712  0.00  0.00    +0.048 A 
ATOM     14  C   UNL     1      -7.042   4.364  -1.197  0.00  0.00    +0.027 A 
ATOM     15  C   UNL     1      -7.492   5.652  -0.984  0.00  0.00    +0.040 A 
ATOM     16  C   UNL     1      -6.677   6.730  -1.284  0.00  0.00    +0.124 A 
ATOM     17  C   UNL     1      -5.408   6.519  -1.798  0.00  0.00    +0.040 A 
ATOM     18  C   UNL     1      -4.952   5.232  -2.007  0.00  0.00    +0.027 A 
ATOM     19  F   UNL     1      -7.119   7.989  -1.075  0.00  0.00    -0.205 F 
ENDBRANCH   9  13
BRANCH   1  22
ATOM     20  C   UNL     1      -1.023  -0.803  -3.422  0.00  0.00    +0.244 C 
ATOM     21  O   UNL     1      -1.273  -1.538  -4.359  0.00  0.00    -0.270 OA
ATOM     22  N   UNL     1      -1.952   0.071  -2.985  0.00  0.00    -0.305 N 
ATOM     23  H   UNL     1      -1.752   0.657  -2.238  0.00  0.00    +0.150 HD
BRANCH  20  26
ATOM     24  C   UNL     1      -0.061  -0.292  -0.352  0.00  0.00    +0.040 C 
ATOM     25  C   UNL     1       0.797  -0.045  -1.595  0.00  0.00    +0.161 C 
ATOM     26  C   UNL     1       0.292  -0.867  -2.767  0.00  0.00    +0.060 C 
ATOM     27  C   UNL     1       1.335  -1.673  -3.067  0.00  0.00    +0.145 C 
ATOM     28  N   UNL     1       2.372  -1.433  -2.234  0.00  0.00    -0.161 NA
ATOM     29  N   UNL     1       2.165  -0.551  -1.393  0.00  0.00    -0.180 NA
ENDBRANCH  20  26
ENDBRANCH   1  22
TORSDOF 3
