REMARK  Name = ZINC61543264
REMARK  6 active torsions:
REMARK  status: ('A' for Active; 'I' for Inactive)
REMARK    1  A    between atoms: C_1  and  C_2
REMARK    2  A    between atoms: C_2  and  C_3
REMARK    3  A    between atoms: C_3  and  O_4
REMARK    4  A    between atoms: O_4  and  C_5
REMARK    5  A    between atoms: C_7  and  S_12
REMARK    6  A    between atoms: S_12  and  C_13
REMARK                            x       y       z     vdW  Elec       q    Type
REMARK                         _______ _______ _______ _____ _____    ______ ____
ROOT
ATOM      1  C   UNL     1       1.640  -2.530  -2.179  0.00  0.00    +0.323 A 
ATOM      2  N   UNL     1       1.572  -3.849  -2.304  0.00  0.00    -0.169 NA
ATOM      3  C   UNL     1       2.131  -4.444  -3.353  0.00  0.00    +0.200 A 
ATOM      4  N   UNL     1       2.758  -3.715  -4.274  0.00  0.00    -0.191 NA
ATOM      5  C   UNL     1       2.823  -2.401  -4.145  0.00  0.00    +0.229 A 
ATOM      6  N   UNL     1       2.262  -1.806  -3.104  0.00  0.00    -0.164 NA
ATOM      7 CL   UNL     1       3.640  -1.452  -5.348  0.00  0.00    -0.041 Cl
ENDROOT
BRANCH   1   8
ATOM      8  O   UNL     1       1.072  -1.920  -1.112  0.00  0.00    -0.462 OA
BRANCH   8   9
ATOM      9  C   UNL     1       1.179  -0.497  -1.045  0.00  0.00    +0.232 C 
BRANCH   9  11
ATOM     10  C   UNL     1       0.597   1.532   0.292  0.00  0.00    +0.007 C 
ATOM     11  C   UNL     1       0.483   0.008   0.220  0.00  0.00    +0.038 C 
ENDBRANCH   9  11
ENDBRANCH   8   9
ENDBRANCH   1   8
BRANCH   3  12
ATOM     12  S   UNL     1       2.044  -6.196  -3.523  0.00  0.00    -0.047 S 
BRANCH  12  13
ATOM     13  C   UNL     1       2.768  -6.508  -5.098  0.00  0.00    +0.051 A 
ATOM     14  C   UNL     1       4.055  -7.023  -5.183  0.00  0.00    +0.021 A 
ATOM     15  C   UNL     1       4.621  -7.267  -6.419  0.00  0.00    +0.039 A 
ATOM     16  C   UNL     1       3.907  -6.998  -7.575  0.00  0.00    +0.126 A 
ATOM     17  C   UNL     1       2.624  -6.484  -7.495  0.00  0.00    +0.077 A 
ATOM     18  C   UNL     1       2.050  -6.244  -6.260  0.00  0.00    +0.140 A 
ATOM     19  F   UNL     1       0.796  -5.747  -6.182  0.00  0.00    -0.204 F 
ATOM     20  F   UNL     1       4.464  -7.238  -8.782  0.00  0.00    -0.205 F 
ENDBRANCH  12  13
ENDBRANCH   3  12
TORSDOF 5
