REMARK  Name = ZINC16666351
REMARK  10 active torsions:
REMARK  status: ('A' for Active; 'I' for Inactive)
REMARK    1  A    between atoms: C_1  and  C_2
REMARK    2  A    between atoms: C_6  and  C_28
REMARK    3  A    between atoms: C_7  and  N_8
REMARK    4  A    between atoms: N_8  and  S_9
REMARK    5  A    between atoms: S_9  and  C_12
REMARK    6  A    between atoms: C_15  and  N_18
REMARK    7  A    between atoms: C_21  and  C_26
REMARK    8  A    between atoms: C_21  and  C_27
REMARK    9  A    between atoms: C_28  and  C_29
REMARK   10  A    between atoms: C_28  and  C_30
REMARK                            x       y       z     vdW  Elec       q    Type
REMARK                         _______ _______ _______ _____ _____    ______ ____
ROOT
ATOM      1  C   UNL     1      -3.285  -1.474   1.316  0.00  0.00    +0.109 A 
ATOM      2  C   UNL     1      -2.757  -2.463   0.507  0.00  0.00    +0.030 A 
ATOM      3  C   UNL     1      -1.802  -3.328   1.005  0.00  0.00    +0.027 A 
ATOM      4  C   UNL     1      -1.381  -3.210   2.323  0.00  0.00    +0.059 A 
ATOM      5  C   UNL     1      -1.917  -2.219   3.134  0.00  0.00    +0.027 A 
ATOM      6  C   UNL     1      -2.867  -1.353   2.628  0.00  0.00    +0.030 A 
ENDROOT
BRANCH   4   7
ATOM      7  N   UNL     1      -0.417  -4.088   2.832  0.00  0.00    -0.143 N 
ATOM      8  C   UNL     1       0.415  -3.840   3.854  0.00  0.00    +0.246 C 
ATOM      9  O   UNL     1       0.362  -2.788   4.456  0.00  0.00    -0.273 OA
ATOM     10  C   UNL     1       1.409  -4.894   4.239  0.00  0.00    +0.064 C 
ATOM     11  C   UNL     1       0.945  -6.253   3.652  0.00  0.00    +0.205 C 
ATOM     12  S   UNL     1      -0.095  -5.631   2.268  0.00  0.00    +0.053 S 
ATOM     13  O   UNL     1      -1.349  -6.299   2.237  0.00  0.00    -0.155 OA
ATOM     14  O   UNL     1       0.680  -5.456   1.090  0.00  0.00    -0.155 OA
ATOM     15  C   UNL     1       1.494  -4.994   5.764  0.00  0.00    +0.022 C 
ATOM     16  C   UNL     1       2.781  -4.528   3.670  0.00  0.00    +0.022 C 
ENDBRANCH   4   7
BRANCH   1  17
ATOM     17  S   UNL     1      -4.498  -0.368   0.675  0.00  0.00    +0.072 S 
ATOM     18  O   UNL     1      -5.314   0.020   1.772  0.00  0.00    -0.150 OA
ATOM     19  O   UNL     1      -5.031  -0.982  -0.491  0.00  0.00    -0.150 OA
BRANCH  17  20
ATOM     20  N   UNL     1      -3.702   0.994   0.171  0.00  0.00    -0.216 N 
ATOM     21  H   UNL     1      -3.843   1.836   0.632  0.00  0.00    +0.174 HD
BRANCH  20  28
ATOM     22  C   UNL     1      -0.910   1.200   0.677  0.00  0.00    +0.046 C 
ATOM     23  C   UNL     1      -1.458   1.023  -0.716  0.00  0.00    -0.028 A 
ATOM     24  C   UNL     1      -0.597   0.954  -1.794  0.00  0.00    +0.005 A 
ATOM     25  C   UNL     1      -1.099   0.792  -3.072  0.00  0.00    +0.001 A 
ATOM     26  C   UNL     1      -2.464   0.699  -3.276  0.00  0.00    +0.006 A 
ATOM     27  C   UNL     1      -3.330   0.768  -2.203  0.00  0.00    -0.022 A 
ATOM     28  C   UNL     1      -2.829   0.930  -0.917  0.00  0.00    +0.054 A 
BRANCH  27  29
ATOM     29  C   UNL     1      -4.817   0.666  -2.426  0.00  0.00    +0.015 C 
ATOM     30  C   UNL     1      -5.290   1.859  -3.259  0.00  0.00    +0.012 C 
ATOM     31  C   UNL     1      -5.133  -0.633  -3.170  0.00  0.00    +0.012 C 
ENDBRANCH  27  29
ENDBRANCH  20  28
ENDBRANCH  17  20
ENDBRANCH   1  17
TORSDOF 5
