REMARK  Name = ZINC64541010
REMARK  7 active torsions:
REMARK  status: ('A' for Active; 'I' for Inactive)
REMARK    1  A    between atoms: C_5  and  C_12
REMARK    2  A    between atoms: C_17  and  C_20
REMARK    3  A    between atoms: C_20  and  C_21
REMARK    4  A    between atoms: N_23  and  C_24
REMARK    5  A    between atoms: C_24  and  C_25
REMARK    6  A    between atoms: C_25  and  C_26
REMARK    7  A    between atoms: C_26  and  N_27
REMARK                            x       y       z     vdW  Elec       q    Type
REMARK                         _______ _______ _______ _____ _____    ______ ____
ROOT
ATOM      1  C   UNL     1       5.406   0.959  -1.281  0.00  0.00    +0.242 C 
ATOM      2  O   UNL     1       5.236   1.849  -2.088  0.00  0.00    -0.273 OA
ATOM      3  N   UNL     1       6.355   0.027  -1.496  0.00  0.00    -0.300 N 
ATOM      4  C   UNL     1       6.569  -1.060  -0.531  0.00  0.00    +0.108 C 
ATOM      5  C   UNL     1       8.048  -1.081  -0.133  0.00  0.00    +0.023 C 
ATOM      6  C   UNL     1       8.911  -1.180  -1.393  0.00  0.00    +0.001 C 
ATOM      7  C   UNL     1       8.667   0.044  -2.278  0.00  0.00    +0.023 C 
ATOM      8  C   UNL     1       7.191   0.075  -2.704  0.00  0.00    +0.108 C 
ENDROOT
BRANCH   1  13
ATOM      9  C   UNL     1      -0.017   1.399   0.010  0.00  0.00    +0.022 A 
ATOM     10  C   UNL     1       1.109   2.143   0.003  0.00  0.00    +0.027 A 
ATOM     11  C   UNL     1       2.385   1.516  -0.013  0.00  0.00    +0.043 A 
ATOM     12  N   UNL     1       3.600   2.009  -0.022  0.00  0.00    -0.370 N 
ATOM     13  C   UNL     1       4.557   0.897  -0.038  0.00  0.00    +0.190 C 
ATOM     14  C   UNL     1       3.724  -0.366  -0.036  0.00  0.00    +0.016 C 
ATOM     15  C   UNL     1       2.433   0.036  -0.021  0.00  0.00    -0.002 A 
ATOM     16  C   UNL     1       1.163  -0.699  -0.013  0.00  0.00    +0.029 A 
ATOM     17  C   UNL     1       0.002  -0.004   0.002  0.00  0.00    +0.042 A 
ATOM     18 CL   UNL     1      -1.502  -0.870   0.012  0.00  0.00    -0.084 Cl
ATOM     19  H   UNL     1       3.828   2.952  -0.020  0.00  0.00    +0.161 HD
ENDBRANCH   1  13
BRANCH   6  20
ATOM     20  C   UNL     1      10.387  -1.236  -0.996  0.00  0.00    +0.099 C 
BRANCH  20  21
ATOM     21  C   UNL     1      11.230  -1.457  -2.226  0.00  0.00    +0.213 C 
ATOM     22  O   UNL     1      10.701  -1.560  -3.313  0.00  0.00    -0.276 OA
ATOM     23  N   UNL     1      12.571  -1.541  -2.119  0.00  0.00    -0.315 N 
ATOM     24  H   UNL     1      12.993  -1.459  -1.250  0.00  0.00    +0.149 HD
BRANCH  23  25
ATOM     25  C   UNL     1      13.389  -1.756  -3.314  0.00  0.00    +0.102 C 
BRANCH  25  26
ATOM     26  C   UNL     1      14.866  -1.812  -2.918  0.00  0.00    +0.000 C 
BRANCH  26  27
ATOM     27  C   UNL     1      15.721  -2.036  -4.167  0.00  0.00    -0.077 C 
BRANCH  27  28
ATOM     28  N   UNL     1      17.139  -2.090  -3.786  0.00  0.00    +0.380 N 
ATOM     29  C   UNL     1      17.412  -3.320  -3.000  0.00  0.00    -0.079 C 
ATOM     30  C   UNL     1      18.939  -3.517  -3.169  0.00  0.00    -0.020 C 
ATOM     31  C   UNL     1      19.183  -3.088  -4.635  0.00  0.00    -0.020 C 
ATOM     32  C   UNL     1      17.988  -2.186  -4.993  0.00  0.00    -0.079 C 
ATOM     33  H   UNL     1      17.387  -1.271  -3.250  0.00  0.00    -0.082 HD
ENDBRANCH  27  28
ENDBRANCH  26  27
ENDBRANCH  25  26
ENDBRANCH  23  25
ENDBRANCH  20  21
ENDBRANCH   6  20
TORSDOF 7
