REMARK  Name = ZINC35511586
REMARK  7 active torsions:
REMARK  status: ('A' for Active; 'I' for Inactive)
REMARK    1  A    between atoms: C_1  and  C_2
REMARK    2  A    between atoms: C_2  and  C_3
REMARK    3  A    between atoms: C_7  and  C_27
REMARK    4  A    between atoms: C_8  and  N_9
REMARK    5  A    between atoms: N_9  and  C_10
REMARK    6  A    between atoms: C_11  and  C_20
REMARK    7  A    between atoms: C_25  and  O_26
REMARK                            x       y       z     vdW  Elec       q    Type
REMARK                         _______ _______ _______ _____ _____    ______ ____
ROOT
ATOM      1  C   UNL     1      -2.125  -0.065   3.162  0.00  0.00    +0.136 A 
ATOM      2  C   UNL     1      -3.454  -0.415   3.003  0.00  0.00    +0.115 A 
ATOM      3  N   UNL     1      -3.882  -0.957   4.153  0.00  0.00    -0.224 NA
ATOM      4  C   UNL     1      -2.890  -0.966   5.027  0.00  0.00    +0.158 A 
ATOM      5  N   UNL     1      -1.775  -0.417   4.429  0.00  0.00    -0.284 N 
ATOM      6  C   UNL     1      -0.610  -0.324   5.147  0.00  0.00    +0.129 A 
ATOM      7  C   UNL     1      -0.572  -0.772   6.419  0.00  0.00    +0.123 A 
ATOM      8  N   UNL     1      -1.651  -1.307   6.999  0.00  0.00    -0.243 NA
ATOM      9  C   UNL     1      -2.792  -1.412   6.360  0.00  0.00    +0.158 A 
ATOM     10 BR   UNL     1       1.039  -0.639   7.401  0.00  0.00    -0.027 Br
ENDROOT
BRANCH   2  11
ATOM     11  C   UNL     1      -4.264  -0.224   1.776  0.00  0.00    +0.045 A 
ATOM     12  C   UNL     1      -3.638  -0.054   0.543  0.00  0.00    +0.014 A 
ATOM     13  C   UNL     1      -4.397   0.124  -0.596  0.00  0.00    +0.001 A 
ATOM     14  C   UNL     1      -5.778   0.134  -0.518  0.00  0.00    +0.004 A 
ATOM     15  C   UNL     1      -6.410  -0.034   0.700  0.00  0.00    +0.046 A 
ATOM     16  C   UNL     1      -5.661  -0.219   1.850  0.00  0.00    +0.126 A 
BRANCH  16  17
ATOM     17  O   UNL     1      -6.281  -0.390   3.047  0.00  0.00    -0.506 OA
ATOM     18  H   UNL     1      -6.451   0.434   3.524  0.00  0.00    +0.292 HD
ENDBRANCH  16  17
ENDBRANCH   2  11
BRANCH   1  19
ATOM     19  N   UNL     1      -1.301   0.527   2.207  0.00  0.00    -0.298 N 
ATOM     20  H   UNL     1      -1.673   0.818   1.359  0.00  0.00    +0.154 HD
BRANCH  19  26
ATOM     21  C   UNL     1       0.507   1.866   3.080  0.00  0.00    -0.026 A 
ATOM     22  C   UNL     1       1.852   2.033   3.343  0.00  0.00    +0.005 A 
ATOM     23  C   UNL     1       2.754   1.044   2.994  0.00  0.00    +0.001 A 
ATOM     24  C   UNL     1       2.313  -0.114   2.380  0.00  0.00    +0.005 A 
ATOM     25  C   UNL     1       0.969  -0.287   2.115  0.00  0.00    -0.029 A 
ATOM     26  C   UNL     1       0.059   0.701   2.469  0.00  0.00    +0.039 A 
ATOM     27  C   UNL     1       0.489  -1.550   1.445  0.00  0.00    +0.045 C 
BRANCH  21  29
ATOM     28  C   UNL     1      -1.072   2.626   4.835  0.00  0.00    +0.009 C 
ATOM     29  C   UNL     1      -0.475   2.943   3.462  0.00  0.00    +0.033 C 
ENDBRANCH  21  29
ENDBRANCH  19  26
ENDBRANCH   1  19
TORSDOF 5
