REMARK  Name = ZINC48290239
REMARK  6 active torsions:
REMARK  status: ('A' for Active; 'I' for Inactive)
REMARK    1  A    between atoms: C_3  and  C_6
REMARK    2  A    between atoms: N_8  and  C_15
REMARK    3  A    between atoms: N_11  and  C_12
REMARK    4  A    between atoms: C_15  and  N_16
REMARK    5  A    between atoms: N_16  and  C_17
REMARK    6  A    between atoms: C_17  and  C_23
REMARK                            x       y       z     vdW  Elec       q    Type
REMARK                         _______ _______ _______ _____ _____    ______ ____
ROOT
ATOM      1  N   UNL     1       7.004   5.044   0.435  0.00  0.00    +0.398 N 
ATOM      2  H   UNL     1       6.087   4.751   0.735  0.00  0.00    -0.082 HD
ATOM      3  H   UNL     1       7.704   4.472   0.885  0.00  0.00    -0.082 HD
ENDROOT
BRANCH   1   4
ATOM      4  C   UNL     1       7.212   6.451   0.801  0.00  0.00    -0.036 C 
ATOM      5  C   UNL     1       8.664   6.846   0.513  0.00  0.00    +0.020 C 
ATOM      6  C   UNL     1       9.597   6.007   1.390  0.00  0.00    +0.159 C 
ATOM      7  O   UNL     1       9.261   6.205   2.765  0.00  0.00    -0.380 OA
ATOM      8  C   UNL     1       7.931   5.809   3.103  0.00  0.00    +0.159 C 
ATOM      9  C   UNL     1       6.931   6.640   2.295  0.00  0.00    +0.020 C 
BRANCH   4  10
ATOM     10  C   UNL     1       6.282   7.324  -0.001  0.00  0.00    -0.058 A 
ATOM     11  C   UNL     1       5.089   6.810  -0.474  0.00  0.00    +0.003 A 
ATOM     12  C   UNL     1       4.234   7.609  -1.210  0.00  0.00    +0.015 A 
ATOM     13  C   UNL     1       4.574   8.924  -1.473  0.00  0.00    +0.018 A 
ATOM     14  C   UNL     1       5.768   9.438  -1.000  0.00  0.00    +0.015 A 
ATOM     15  C   UNL     1       6.619   8.639  -0.260  0.00  0.00    +0.003 A 
ATOM     16 BR   UNL     1       3.406  10.019  -2.480  0.00  0.00    -0.050 Br
ENDBRANCH   4  10
ENDBRANCH   1   4
BRANCH   1  17
ATOM     17  C   UNL     1       7.114   4.895  -1.022  0.00  0.00    +0.069 C 
BRANCH  17  20
ATOM     18  C   UNL     1       5.549   1.747  -1.829  0.00  0.00    +0.170 A 
ATOM     19  N   UNL     1       5.459   2.992  -1.445  0.00  0.00    -0.152 NA
ATOM     20  N   UNL     1       6.754   3.526  -1.402  0.00  0.00    -0.258 N 
ATOM     21  C   UNL     1       7.609   2.552  -1.773  0.00  0.00    +0.177 A 
ATOM     22  S   UNL     1       9.312   2.690  -1.885  0.00  0.00    -0.011 S 
ATOM     23  N   UNL     1       6.882   1.447  -2.035  0.00  0.00    -0.300 N 
BRANCH  18  26
ATOM     24  C   UNL     1       2.200   0.008  -2.052  0.00  0.00    +0.008 A 
ATOM     25  C   UNL     1       3.079   1.041  -1.822  0.00  0.00    +0.019 A 
ATOM     26  C   UNL     1       4.420   0.818  -2.006  0.00  0.00    +0.056 A 
ATOM     27  S   UNL     1       4.441  -0.893  -2.517  0.00  0.00    -0.094 S 
ATOM     28  C   UNL     1       2.683  -1.197  -2.453  0.00  0.00    +0.046 A 
ENDBRANCH  18  26
BRANCH  23  29
ATOM     29  C   UNL     1       7.414   0.152  -2.467  0.00  0.00    +0.091 C 
ATOM     30  C   UNL     1       8.912  -0.095  -2.278  0.00  0.00    +0.027 C 
ATOM     31  C   UNL     1       8.346   0.141  -3.680  0.00  0.00    +0.027 C 
ENDBRANCH  23  29
ENDBRANCH  17  20
ENDBRANCH   1  17
TORSDOF 6
