REMARK  Name = ZINC20637370
REMARK  2 active torsions:
REMARK  status: ('A' for Active; 'I' for Inactive)
REMARK    1  A    between atoms: C_10  and  C_19
REMARK    2  A    between atoms: C_12  and  C_17
REMARK                            x       y       z     vdW  Elec       q    Type
REMARK                         _______ _______ _______ _____ _____    ______ ____
ROOT
ATOM      1  C   UNL     1      -0.295   0.804  -6.426  0.00  0.00    +0.002 A 
ATOM      2  C   UNL     1      -1.481   0.838  -5.713  0.00  0.00    +0.002 A 
ATOM      3  C   UNL     1      -1.508   1.041  -4.343  0.00  0.00    +0.028 A 
ATOM      4  C   UNL     1      -0.286   1.211  -3.703  0.00  0.00    +0.071 A 
ATOM      5  C   UNL     1       0.931   1.177  -4.429  0.00  0.00    +0.091 A 
ATOM      6  C   UNL     1       0.934   0.971  -5.814  0.00  0.00    +0.030 A 
ATOM      7  N   UNL     1       1.931   1.369  -3.547  0.00  0.00    -0.214 NA
ATOM      8  C   UNL     1       1.434   1.501  -2.348  0.00  0.00    +0.204 A 
ATOM      9  N   UNL     1       0.059   1.430  -2.402  0.00  0.00    -0.302 N 
ATOM     10  C   UNL     1      -0.787   1.585  -1.215  0.00  0.00    +0.146 C 
ATOM     11  C   UNL     1      -0.013   1.086   0.008  0.00  0.00    +0.204 C 
ATOM     12  C   UNL     1       1.401   1.599  -0.003  0.00  0.00    +0.239 C 
ATOM     13  O   UNL     1       1.921   1.923   1.044  0.00  0.00    -0.274 OA
ATOM     14  N   UNL     1       2.103   1.708  -1.150  0.00  0.00    -0.255 N 
ATOM     15  H   UNL     1       3.176   1.953  -1.154  0.00  0.00    +0.158 HD
ENDROOT
BRANCH  10  16
ATOM     16  C   UNL     1      -1.139   3.039  -1.032  0.00  0.00    -0.023 A 
ATOM     17  C   UNL     1      -0.137   3.976  -0.862  0.00  0.00    +0.008 A 
ATOM     18  C   UNL     1      -0.459   5.310  -0.698  0.00  0.00    +0.038 A 
ATOM     19  C   UNL     1      -1.786   5.706  -0.694  0.00  0.00    +0.123 A 
ATOM     20  C   UNL     1      -2.788   4.766  -0.860  0.00  0.00    +0.038 A 
ATOM     21  C   UNL     1      -2.464   3.433  -1.028  0.00  0.00    +0.008 A 
ATOM     22  F   UNL     1      -2.101   7.010  -0.530  0.00  0.00    -0.205 F 
ENDBRANCH  10  16
BRANCH  11  23
ATOM     23  C   UNL     1      -0.687   1.553   1.230  0.00  0.00    +0.078 C 
ATOM     24  N   UNL     1      -1.208   1.914   2.173  0.00  0.00    -0.196 NA
ENDBRANCH  11  23
TORSDOF 2
