REMARK  Name = ZINC20295605
REMARK  4 active torsions:
REMARK  status: ('A' for Active; 'I' for Inactive)
REMARK    1  A    between atoms: C_1  and  C_2
REMARK    2  A    between atoms: C_3  and  N_9
REMARK    3  A    between atoms: N_30  and  C_33
REMARK    4  A    between atoms: C_38  and  C_39
REMARK                            x       y       z     vdW  Elec       q    Type
REMARK                         _______ _______ _______ _____ _____    ______ ____
ROOT
ATOM      1  N   UNL     1       9.365  -0.832   1.288  0.00  0.00    -0.209 N 
ATOM      2  C   UNL     1       9.152  -0.689  -0.024  0.00  0.00    +0.233 C 
ATOM      3  O   UNL     1       9.585   0.297  -0.582  0.00  0.00    -0.274 OA
ATOM      4  C   UNL     1       8.399  -1.702  -0.831  0.00  0.00    +0.103 C 
ATOM      5  C   UNL     1       7.756  -1.024  -1.998  0.00  0.00    -0.017 C 
ATOM      6  C   UNL     1       6.479  -0.974  -2.209  0.00  0.00    -0.017 C 
ATOM      7  C   UNL     1       5.489  -1.647  -1.333  0.00  0.00    +0.103 C 
ATOM      8  C   UNL     1       6.024  -2.192  -0.062  0.00  0.00    +0.025 C 
ATOM      9  C   UNL     1       7.478  -2.564  -0.022  0.00  0.00    +0.025 C 
ATOM     10  C   UNL     1       7.966  -2.900   1.367  0.00  0.00    +0.103 C 
ATOM     11  C   UNL     1       8.801  -1.819   1.986  0.00  0.00    +0.233 C 
ATOM     12  O   UNL     1       8.973  -1.844   3.185  0.00  0.00    -0.274 OA
ATOM     13  C   UNL     1       6.844  -3.221   2.324  0.00  0.00    -0.017 C 
ATOM     14  C   UNL     1       5.725  -2.518   2.313  0.00  0.00    -0.017 C 
ATOM     15  C   UNL     1       5.608  -1.474   1.212  0.00  0.00    +0.103 C 
ATOM     16  C   UNL     1       4.200  -0.972   1.130  0.00  0.00    +0.233 C 
ATOM     17  O   UNL     1       3.560  -0.852   2.152  0.00  0.00    -0.274 OA
ATOM     18  N   UNL     1       3.625  -0.651  -0.037  0.00  0.00    -0.209 N 
ATOM     19  C   UNL     1       4.176  -0.964  -1.219  0.00  0.00    +0.233 C 
ATOM     20  O   UNL     1       3.593  -0.653  -2.235  0.00  0.00    -0.274 OA
ENDROOT
BRANCH   1  23
ATOM     21  C   UNL     1      12.142  -1.431   1.451  0.00  0.00    +0.047 C 
ATOM     22  C   UNL     1      11.563  -0.175   2.050  0.00  0.00    -0.010 A 
ATOM     23  C   UNL     1      10.202   0.079   1.947  0.00  0.00    +0.048 A 
ATOM     24  C   UNL     1       9.670   1.234   2.505  0.00  0.00    +0.024 A 
ATOM     25  C   UNL     1      10.497   2.130   3.154  0.00  0.00    +0.003 A 
ATOM     26  C   UNL     1      11.853   1.878   3.250  0.00  0.00    +0.020 A 
ATOM     27  C   UNL     1      12.386   0.727   2.695  0.00  0.00    +0.046 A 
ATOM     28 CL   UNL     1      14.089   0.415   2.817  0.00  0.00    -0.083 Cl
ENDBRANCH   1  23
BRANCH  18  29
ATOM     29  C   UNL     1       2.400   0.031  -0.021  0.00  0.00    +0.048 A 
ATOM     30  C   UNL     1       2.377   1.420  -0.013  0.00  0.00    +0.024 A 
ATOM     31  C   UNL     1       1.170   2.090   0.002  0.00  0.00    +0.003 A 
ATOM     32  C   UNL     1      -0.017   1.379   0.010  0.00  0.00    +0.020 A 
ATOM     33  C   UNL     1       0.002  -0.004   0.002  0.00  0.00    +0.046 A 
ATOM     34  C   UNL     1       1.208  -0.680  -0.014  0.00  0.00    -0.010 A 
ATOM     35  C   UNL     1       1.229  -2.187  -0.023  0.00  0.00    +0.047 C 
ATOM     36 CL   UNL     1      -1.490  -0.892   0.012  0.00  0.00    -0.083 Cl
ENDBRANCH  18  29
TORSDOF 2
