REMARK  Name = ZINC63695645
REMARK  6 active torsions:
REMARK  status: ('A' for Active; 'I' for Inactive)
REMARK    1  A    between atoms: C_1  and  C_2
REMARK    2  A    between atoms: C_5  and  C_8
REMARK    3  A    between atoms: C_8  and  C_9
REMARK    4  A    between atoms: C_9  and  N_10
REMARK    5  A    between atoms: C_11  and  C_13
REMARK    6  A    between atoms: N_16  and  C_19
REMARK                            x       y       z     vdW  Elec       q    Type
REMARK                         _______ _______ _______ _____ _____    ______ ____
ROOT
ATOM      1  C   UNL     1       2.723  -8.397  -0.059  0.00  0.00    +0.077 C 
ATOM      2  C   UNL     1       2.022  -8.925   1.196  0.00  0.00    +0.028 C 
ATOM      3  C   UNL     1       2.098 -10.453   1.213  0.00  0.00    +0.089 C 
ATOM      4  N   UNL     1       3.505 -10.874   1.202  0.00  0.00    -0.266 NA
ATOM      5  C   UNL     1       4.186 -10.419  -0.016  0.00  0.00    +0.089 C 
ATOM      6  C   UNL     1       4.172  -8.890  -0.069  0.00  0.00    +0.028 C 
ENDROOT
BRANCH   4   7
ATOM      7  C   UNL     1       3.619 -12.331   1.357  0.00  0.00    +0.252 C 
ATOM      8  N   UNL     1       3.075 -13.008   0.173  0.00  0.00    -0.351 N 
ATOM      9  C   UNL     1       4.041 -13.698  -0.360  0.00  0.00    +0.061 A 
ATOM     10  C   UNL     1       4.112 -14.569  -1.542  0.00  0.00    +0.028 A 
ATOM     11  C   UNL     1       5.277 -15.168  -1.858  0.00  0.00    +0.017 A 
ATOM     12  C   UNL     1       6.449 -14.996  -1.098  0.00  0.00    +0.020 A 
ATOM     13  C   UNL     1       6.493 -14.218   0.004  0.00  0.00    +0.042 A 
ATOM     14  C   UNL     1       5.280 -13.515   0.444  0.00  0.00    +0.062 A 
ATOM     15  N   UNL     1       5.032 -12.719   1.445  0.00  0.00    -0.351 N 
ATOM     16 BR   UNL     1       8.024 -15.890  -1.642  0.00  0.00    -0.050 Br
ATOM     17  H   UNL     1       2.163 -12.951  -0.152  0.00  0.00    +0.163 HD
ATOM     18  H   UNL     1       5.665 -12.433   2.123  0.00  0.00    +0.163 HD
ENDBRANCH   4   7
BRANCH   1  20
ATOM     19  N   UNL     1       1.527  -6.231  -0.040  0.00  0.00    -0.315 N 
ATOM     20  C   UNL     1       2.703  -6.890  -0.050  0.00  0.00    +0.216 C 
ATOM     21  O   UNL     1       3.745  -6.270  -0.053  0.00  0.00    -0.276 OA
ATOM     22  H   UNL     1       0.694  -6.727  -0.038  0.00  0.00    +0.149 HD
BRANCH  19  23
ATOM     23  C   UNL     1       1.508  -4.767  -0.032  0.00  0.00    +0.109 C 
BRANCH  23  24
ATOM     24  C   UNL     1       0.059  -4.275  -0.021  0.00  0.00    +0.054 C 
BRANCH  24  29
ATOM     25  C   UNL     1      -0.018   1.503   0.010  0.00  0.00    +0.044 C 
ATOM     26  C   UNL     1       0.002  -0.004   0.002  0.00  0.00    -0.050 A 
ATOM     27  C   UNL     1       0.006  -0.689  -1.199  0.00  0.00    +0.003 A 
ATOM     28  C   UNL     1       0.025  -2.071  -1.206  0.00  0.00    +0.004 A 
ATOM     29  C   UNL     1       0.040  -2.768  -0.013  0.00  0.00    -0.046 A 
ATOM     30  C   UNL     1       0.037  -2.084   1.188  0.00  0.00    +0.004 A 
ATOM     31  C   UNL     1       0.023  -0.702   1.195  0.00  0.00    +0.003 A 
ENDBRANCH  24  29
ENDBRANCH  23  24
ENDBRANCH  19  23
ENDBRANCH   1  20
TORSDOF 5
