REMARK  Name = ZINC14720923
REMARK  11 active torsions:
REMARK  status: ('A' for Active; 'I' for Inactive)
REMARK    1  A    between atoms: C_1  and  C_2
REMARK    2  A    between atoms: C_2  and  C_3
REMARK    3  A    between atoms: C_3  and  C_4
REMARK    4  A    between atoms: C_4  and  N_5
REMARK    5  A    between atoms: N_5  and  C_6
REMARK    6  A    between atoms: C_7  and  N_19
REMARK    7  A    between atoms: N_8  and  C_15
REMARK    8  A    between atoms: C_15  and  C_16
REMARK    9  A    between atoms: C_16  and  C_17
REMARK   10  A    between atoms: C_16  and  C_18
REMARK   11  A    between atoms: C_20  and  C_22
REMARK                            x       y       z     vdW  Elec       q    Type
REMARK                         _______ _______ _______ _____ _____    ______ ____
ROOT
ATOM      1  N   UNL     1       1.489  -2.197  -2.102  0.00  0.00    -0.260 N 
ATOM      2  C   UNL     1       0.623  -2.348  -3.124  0.00  0.00    +0.258 C 
ATOM      3  O   UNL     1       1.006  -2.808  -4.184  0.00  0.00    -0.269 OA
ENDROOT
BRANCH   2   4
ATOM      4  C   UNL     1      -0.780  -1.957  -2.959  0.00  0.00    +0.075 A 
ATOM      5  C   UNL     1      -1.841  -2.134  -3.825  0.00  0.00    +0.024 A 
ATOM      6  C   UNL     1      -3.083  -1.660  -3.409  0.00  0.00    -0.036 A 
ATOM      7  C   UNL     1      -3.126  -1.065  -2.188  0.00  0.00    -0.006 A 
ATOM      8  S   UNL     1      -1.566  -1.137  -1.586  0.00  0.00    -0.088 S 
ATOM      9  C   UNL     1      -4.316  -0.464  -1.500  0.00  0.00    +0.043 C 
ATOM     10  C   UNL     1      -5.590  -1.177  -1.965  0.00  0.00    +0.005 C 
ATOM     11  C   UNL     1      -6.124  -0.462  -3.202  0.00  0.00    +0.001 C 
ATOM     12  C   UNL     1      -5.099  -0.504  -4.332  0.00  0.00    +0.005 C 
ATOM     13  C   UNL     1      -4.316  -1.812  -4.292  0.00  0.00    +0.036 C 
ENDBRANCH   2   4
BRANCH   1  14
ATOM     14  C   UNL     1       2.861  -2.462  -2.295  0.00  0.00    +0.140 A 
ATOM     15  C   UNL     1       3.462  -3.537  -1.672  0.00  0.00    +0.127 A 
ATOM     16  N   UNL     1       4.802  -3.769  -1.881  0.00  0.00    -0.280 N 
ATOM     17  C   UNL     1       5.517  -2.959  -2.682  0.00  0.00    +0.331 A 
ATOM     18  O   UNL     1       6.700  -3.182  -2.853  0.00  0.00    -0.246 OA
ATOM     19  N   UNL     1       4.948  -1.907  -3.296  0.00  0.00    -0.273 N 
ATOM     20  H   UNL     1       5.485  -1.338  -3.869  0.00  0.00    +0.173 HD
ATOM     21  C   UNL     1       3.638  -1.638  -3.130  0.00  0.00    +0.277 A 
ATOM     22  O   UNL     1       3.131  -0.685  -3.696  0.00  0.00    -0.266 OA
BRANCH  15  23
ATOM     23  N   UNL     1       2.732  -4.365  -0.854  0.00  0.00    -0.343 N 
ATOM     24  H   UNL     1       1.771  -4.252  -0.783  0.00  0.00    +0.144 HD
ATOM     25  H   UNL     1       3.177  -5.062  -0.347  0.00  0.00    +0.144 HD
ENDBRANCH  15  23
BRANCH  16  26
ATOM     26  C   UNL     1       5.454  -4.907  -1.226  0.00  0.00    +0.131 C 
BRANCH  26  27
ATOM     27  C   UNL     1       5.360  -6.138  -2.129  0.00  0.00    +0.003 C 
ATOM     28  C   UNL     1       6.147  -7.291  -1.503  0.00  0.00    +0.009 C 
ATOM     29  C   UNL     1       3.894  -6.546  -2.284  0.00  0.00    +0.009 C 
ENDBRANCH  26  27
ENDBRANCH  16  26
ENDBRANCH   1  14
BRANCH   1  30
ATOM     30  C   UNL     1       1.005  -1.759  -0.790  0.00  0.00    +0.114 C 
BRANCH  30  31
ATOM     31  C   UNL     1       1.023  -0.231  -0.725  0.00  0.00    +0.019 C 
BRANCH  31  33
ATOM     32  C   UNL     1       0.536   1.756   0.711  0.00  0.00    +0.004 C 
ATOM     33  C   UNL     1       0.518   0.227   0.645  0.00  0.00    -0.002 C 
ENDBRANCH  31  33
ENDBRANCH  30  31
ENDBRANCH   1  30
TORSDOF 8
