REMARK  Name = ZINC33812640
REMARK  11 active torsions:
REMARK  status: ('A' for Active; 'I' for Inactive)
REMARK    1  A    between atoms: C_1  and  C_2
REMARK    2  A    between atoms: C_2  and  C_3
REMARK    3  A    between atoms: C_3  and  N_4
REMARK    4  A    between atoms: C_5  and  N_30
REMARK    5  A    between atoms: C_6  and  C_14
REMARK    6  A    between atoms: C_7  and  C_13
REMARK    7  A    between atoms: C_8  and  C_11
REMARK    8  A    between atoms: N_18  and  C_22
REMARK    9  A    between atoms: C_22  and  C_23
REMARK   10  A    between atoms: C_26  and  C_29
REMARK   11  A    between atoms: N_33  and  C_36
REMARK                            x       y       z     vdW  Elec       q    Type
REMARK                         _______ _______ _______ _____ _____    ______ ____
ROOT
ATOM      1  N   UNL     1       0.345  -2.332  -1.421  0.00  0.00    -0.295 N 
ATOM      2  C   UNL     1       1.452  -2.820  -0.805  0.00  0.00    +0.112 A 
ATOM      3  C   UNL     1       1.846  -4.154  -0.999  0.00  0.00    +0.019 A 
ATOM      4  C   UNL     1       1.084  -4.985  -1.838  0.00  0.00    -0.017 A 
ATOM      5  C   UNL     1      -0.046  -4.460  -2.457  0.00  0.00    +0.120 A 
ATOM      6  C   UNL     1      -0.404  -3.108  -2.224  0.00  0.00    +0.270 A 
ATOM      7  O   UNL     1      -1.395  -2.644  -2.760  0.00  0.00    -0.266 OA
ATOM      8  C   UNL     1       1.485  -6.420  -2.064  0.00  0.00    +0.046 C 
ENDROOT
BRANCH   3   9
ATOM      9  C   UNL     1       3.041  -4.675  -0.332  0.00  0.00    +0.032 C 
ATOM     10  C   UNL     1       2.924  -5.644   0.616  0.00  0.00    +0.077 C 
ATOM     11  C   UNL     1       1.748  -6.217   1.189  0.00  0.00    +0.259 C 
ATOM     12  O   UNL     1       0.639  -5.851   0.842  0.00  0.00    -0.269 OA
ATOM     13  N   UNL     1       1.899  -7.157   2.106  0.00  0.00    -0.251 N 
ATOM     14  C   UNL     1       3.129  -7.563   2.490  0.00  0.00    +0.121 C 
ATOM     15  S   UNL     1       3.554  -8.751   3.647  0.00  0.00    -0.027 S 
ATOM     16  S   UNL     1       4.200  -6.551   1.479  0.00  0.00    -0.061 S 
BRANCH  13  17
ATOM     17  C   UNL     1       0.715  -7.768   2.715  0.00  0.00    +0.150 C 
BRANCH  17  18
ATOM     18  C   UNL     1       0.298  -8.970   1.907  0.00  0.00    -0.030 A 
ATOM     19  C   UNL     1      -0.594  -8.825   0.861  0.00  0.00    +0.005 A 
ATOM     20  C   UNL     1      -0.976  -9.927   0.120  0.00  0.00    +0.003 A 
ATOM     21  C   UNL     1      -0.467 -11.175   0.426  0.00  0.00    -0.050 A 
ATOM     22  C   UNL     1       0.426 -11.321   1.471  0.00  0.00    +0.003 A 
ATOM     23  C   UNL     1       0.811 -10.217   2.209  0.00  0.00    +0.005 A 
ATOM     24  C   UNL     1      -0.884 -12.378  -0.381  0.00  0.00    +0.044 C 
ENDBRANCH  17  18
ENDBRANCH  13  17
ENDBRANCH   3   9
BRANCH   2  25
ATOM     25  N   UNL     1       2.188  -2.009   0.009  0.00  0.00    -0.320 N 
ATOM     26  C   UNL     1       1.963  -1.991   1.463  0.00  0.00    +0.088 C 
ATOM     27  C   UNL     1       3.314  -2.165   2.165  0.00  0.00    -0.060 C 
ATOM     28  N   UNL     1       4.250  -1.141   1.684  0.00  0.00    +0.380 N 
ATOM     29  C   UNL     1       4.519  -1.341   0.254  0.00  0.00    -0.060 C 
ATOM     30  C   UNL     1       3.232  -1.131  -0.542  0.00  0.00    +0.088 C 
ATOM     31  C   UNL     1       5.508  -1.238   2.435  0.00  0.00    -0.096 C 
ATOM     32  H   UNL     1       3.847  -0.226   1.824  0.00  0.00    -0.082 HD
ENDBRANCH   2  25
BRANCH   5  33
ATOM     33  C   UNL     1      -0.844  -5.280  -3.319  0.00  0.00    +0.105 C 
ATOM     34  N   UNL     1      -1.477  -5.931  -4.002  0.00  0.00    -0.191 NA
ENDBRANCH   5  33
BRANCH   1  35
ATOM     35  C   UNL     1      -0.044  -0.936  -1.202  0.00  0.00    +0.126 C 
BRANCH  35  37
ATOM     36  C   UNL     1      -1.482   0.592   0.154  0.00  0.00    +0.005 C 
ATOM     37  C   UNL     1      -1.076  -0.865  -0.074  0.00  0.00    +0.018 C 
ENDBRANCH  35  37
ENDBRANCH   1  35
TORSDOF 7
