REMARK  Name = ZINC01611095
REMARK  5 active torsions:
REMARK  status: ('A' for Active; 'I' for Inactive)
REMARK    1  A    between atoms: C_1  and  C_2
REMARK    2  A    between atoms: C_7  and  C_10
REMARK    3  A    between atoms: C_16  and  O_20
REMARK    4  A    between atoms: C_18  and  O_19
REMARK    5  A    between atoms: O_20  and  C_21
REMARK                            x       y       z     vdW  Elec       q    Type
REMARK                         _______ _______ _______ _____ _____    ______ ____
ROOT
ATOM      1  C   UNL     1      -3.799   1.901  -0.088  0.00  0.00    +0.038 C 
ATOM      2  C   UNL     1      -2.469   1.205  -0.383  0.00  0.00    +0.120 C 
ATOM      3  C   UNL     1      -1.309   2.110   0.033  0.00  0.00    +0.070 C 
ATOM      4  C   UNL     1      -0.016   1.335   0.009  0.00  0.00    +0.012 C 
ATOM      5  C   UNL     1       0.002  -0.004   0.002  0.00  0.00    +0.035 C 
ATOM      6  C   UNL     1      -1.267  -0.817  -0.005  0.00  0.00    +0.150 C 
ATOM      7  O   UNL     1      -2.381  -0.010   0.371  0.00  0.00    -0.369 OA
ATOM      8  C   UNL     1      -1.500  -1.376  -1.411  0.00  0.00    +0.043 C 
ATOM      9  C   UNL     1       1.295  -0.730  -0.007  0.00  0.00    +0.196 C 
ATOM     10  O   UNL     1       1.333  -1.916   0.259  0.00  0.00    -0.287 OA
ATOM     11  C   UNL     1       2.532  -0.007  -0.340  0.00  0.00    +0.074 A 
ATOM     12  C   UNL     1       2.515   1.403  -0.336  0.00  0.00    +0.040 A 
ATOM     13  C   UNL     1       3.666   2.109  -0.646  0.00  0.00    +0.058 A 
ATOM     14  C   UNL     1       4.839   1.419  -0.961  0.00  0.00    +0.124 A 
ATOM     15  C   UNL     1       4.860   0.035  -0.967  0.00  0.00    +0.091 A 
ATOM     16  C   UNL     1       3.710  -0.687  -0.657  0.00  0.00    +0.132 A 
ATOM     17  C   UNL     1       1.254   2.096   0.001  0.00  0.00    +0.191 C 
ATOM     18  O   UNL     1       1.260   3.281   0.270  0.00  0.00    -0.287 OA
ENDROOT
BRANCH  16  19
ATOM     19  O   UNL     1       3.734  -2.042  -0.663  0.00  0.00    -0.506 OA
ATOM     20  H   UNL     1       3.511  -2.436  -1.518  0.00  0.00    +0.292 HD
ENDBRANCH  16  19
BRANCH  14  21
ATOM     21  O   UNL     1       5.967   2.110  -1.264  0.00  0.00    -0.495 OA
ATOM     22  C   UNL     1       7.133   1.345  -1.577  0.00  0.00    +0.277 C 
ENDBRANCH  14  21
TORSDOF 2
