REMARK  Name = ZINC16429380
REMARK  11 active torsions:
REMARK  status: ('A' for Active; 'I' for Inactive)
REMARK    1  A    between atoms: C_1  and  C_2
REMARK    2  A    between atoms: C_2  and  C_3
REMARK    3  A    between atoms: C_3  and  C_4
REMARK    4  A    between atoms: C_4  and  N_5
REMARK    5  A    between atoms: C_13  and  C_15
REMARK    6  A    between atoms: C_16  and  C_18
REMARK    7  A    between atoms: C_18  and  C_20
REMARK    8  A    between atoms: C_18  and  N_27
REMARK    9  A    between atoms: C_20  and  C_21
REMARK   10  A    between atoms: N_30  and  C_31
REMARK   11  A    between atoms: C_34  and  N_37
REMARK                            x       y       z     vdW  Elec       q    Type
REMARK                         _______ _______ _______ _____ _____    ______ ____
ROOT
ATOM      1  C   UNL     1      -5.673  -3.099  -1.437  0.00  0.00    +0.165 C 
ENDROOT
BRANCH   1  12
ATOM      2  N   UNL     1      -1.877   2.670  -3.054  0.00  0.00    -0.299 N 
ATOM      3  C   UNL     1      -1.746   1.329  -3.088  0.00  0.00    +0.303 C 
ATOM      4  O   UNL     1      -0.648   0.829  -3.234  0.00  0.00    -0.253 OA
ATOM      5  N   UNL     1      -2.833   0.542  -2.961  0.00  0.00    -0.280 N 
ATOM      6  C   UNL     1      -4.179   1.129  -2.903  0.00  0.00    +0.128 C 
ATOM      7  C   UNL     1      -4.875   0.647  -1.629  0.00  0.00    +0.127 C 
ATOM      8  N   UNL     1      -4.735  -0.813  -1.540  0.00  0.00    -0.297 N 
ATOM      9  C   UNL     1      -3.389  -1.400  -1.592  0.00  0.00    +0.130 C 
ATOM     10  C   UNL     1      -2.693  -0.918  -2.871  0.00  0.00    +0.092 C 
ATOM     11  C   UNL     1      -1.210  -1.290  -2.820  0.00  0.00    +0.030 C 
ATOM     12  C   UNL     1      -5.822  -1.599  -1.412  0.00  0.00    +0.236 C 
ATOM     13  O   UNL     1      -6.919  -1.101  -1.278  0.00  0.00    -0.274 OA
ATOM     14  H   UNL     1      -2.760   3.070  -3.010  0.00  0.00    +0.150 HD
BRANCH   2  15
ATOM     15  C   UNL     1      -0.687   3.523  -3.076  0.00  0.00    +0.106 C 
BRANCH  15  16
ATOM     16  C   UNL     1      -1.111   4.992  -3.021  0.00  0.00    +0.018 C 
BRANCH  16  18
ATOM     17  C   UNL     1      -0.291   7.352  -2.990  0.00  0.00    +0.004 C 
ATOM     18  C   UNL     1       0.133   5.883  -3.044  0.00  0.00    -0.002 C 
ENDBRANCH  16  18
ENDBRANCH  15  16
ENDBRANCH   2  15
ENDBRANCH   1  12
BRANCH   1  19
ATOM     19  N   UNL     1      -6.972  -3.714  -1.722  0.00  0.00    -0.288 N 
ATOM     20  C   UNL     1      -7.030  -4.939  -2.281  0.00  0.00    +0.304 C 
ATOM     21  O   UNL     1      -6.004  -5.533  -2.549  0.00  0.00    -0.252 OA
ATOM     22  N   UNL     1      -8.225  -5.504  -2.543  0.00  0.00    -0.269 N 
ATOM     23  H   UNL     1      -7.791  -3.239  -1.508  0.00  0.00    +0.151 HD
ATOM     24  H   UNL     1      -9.042  -5.003  -2.393  0.00  0.00    +0.156 HD
BRANCH  22  25
ATOM     25  C   UNL     1      -8.287  -6.814  -3.032  0.00  0.00    +0.035 A 
ATOM     26  C   UNL     1      -7.314  -7.276  -3.909  0.00  0.00    +0.025 A 
ATOM     27  C   UNL     1      -7.376  -8.570  -4.386  0.00  0.00    +0.034 A 
ATOM     28  C   UNL     1      -8.410  -9.403  -4.000  0.00  0.00    +0.126 A 
ATOM     29  C   UNL     1      -9.383  -8.944  -3.131  0.00  0.00    +0.034 A 
ATOM     30  C   UNL     1      -9.324  -7.652  -2.646  0.00  0.00    +0.025 A 
BRANCH  28  31
ATOM     31  N   UNL     1      -8.477 -10.788  -4.518  0.00  0.00    +0.056 N 
ATOM     32  O   UNL     1      -9.387 -11.522  -4.178  0.00  0.00    -0.126 OA
ATOM     33  O   UNL     1      -7.620 -11.194  -5.283  0.00  0.00    -0.126 OA
ENDBRANCH  28  31
ENDBRANCH  22  25
ENDBRANCH   1  19
BRANCH   1  34
ATOM     34  C   UNL     1      -5.167  -3.583  -0.076  0.00  0.00    +0.067 C 
BRANCH  34  35
ATOM     35  C   UNL     1      -4.879  -5.061  -0.145  0.00  0.00    -0.045 A 
ATOM     36  C   UNL     1      -5.870  -5.973   0.165  0.00  0.00    +0.004 A 
ATOM     37  C   UNL     1      -5.608  -7.329   0.097  0.00  0.00    +0.000 A 
ATOM     38  C   UNL     1      -4.350  -7.772  -0.269  0.00  0.00    +0.000 A 
ATOM     39  C   UNL     1      -3.357  -6.859  -0.573  0.00  0.00    +0.000 A 
ATOM     40  C   UNL     1      -3.622  -5.504  -0.511  0.00  0.00    +0.004 A 
ENDBRANCH  34  35
ENDBRANCH   1  34
TORSDOF 9
