REMARK  Name = ZINC01026398
REMARK  9 active torsions:
REMARK  status: ('A' for Active; 'I' for Inactive)
REMARK    1  A    between atoms: C_1  and  O_2
REMARK    2  A    between atoms: O_2  and  C_3
REMARK    3  A    between atoms: C_7  and  C_11
REMARK    4  A    between atoms: C_8  and  O_9
REMARK    5  A    between atoms: O_9  and  C_10
REMARK    6  A    between atoms: C_11  and  N_12
REMARK    7  A    between atoms: C_13  and  C_15
REMARK    8  A    between atoms: C_16  and  N_29
REMARK    9  A    between atoms: C_20  and  C_24
REMARK                            x       y       z     vdW  Elec       q    Type
REMARK                         _______ _______ _______ _____ _____    ______ ____
ROOT
ATOM      1  C   UNL     1       1.019  10.036   0.046  0.00  0.00    +0.097 A 
ATOM      2  C   UNL     1       2.091   9.169   0.031  0.00  0.00    +0.053 A 
ATOM      3  C   UNL     1       1.823   7.740   0.025  0.00  0.00    +0.029 A 
ATOM      4  C   UNL     1       2.752   6.667   0.011  0.00  0.00    +0.014 A 
ATOM      5  C   UNL     1       2.291   5.387   0.009  0.00  0.00    +0.029 A 
ATOM      6  C   UNL     1       0.913   5.129   0.020  0.00  0.00    +0.079 A 
ATOM      7  N   UNL     1       0.045   6.137   0.028  0.00  0.00    -0.239 NA
ATOM      8  C   UNL     1       0.453   7.386   0.036  0.00  0.00    +0.111 A 
ATOM      9  S   UNL     1      -0.392   8.948   0.053  0.00  0.00    -0.062 S 
ENDROOT
BRANCH   6  10
ATOM     10  C   UNL     1       0.425   3.737   0.017  0.00  0.00    +0.038 A 
ATOM     11  C   UNL     1      -0.866   3.275   0.026  0.00  0.00    +0.017 A 
ATOM     12  C   UNL     1      -1.081   1.916   0.017  0.00  0.00    +0.008 A 
ATOM     13  C   UNL     1      -0.013   1.076   0.008  0.00  0.00    +0.046 A 
ATOM     14  S   UNL     1       1.360   2.217   0.001  0.00  0.00    -0.095 S 
ENDBRANCH   6  10
BRANCH   1  16
ATOM     15  N   UNL     1      -0.124  12.139   0.070  0.00  0.00    -0.307 N 
ATOM     16  C   UNL     1       1.036  11.452   0.054  0.00  0.00    +0.253 C 
ATOM     17  O   UNL     1       2.097  12.049   0.048  0.00  0.00    -0.270 OA
ATOM     18  H   UNL     1      -0.969  11.664   0.075  0.00  0.00    +0.149 HD
BRANCH  15  19
ATOM     19  C   UNL     1      -0.106  13.604   0.078  0.00  0.00    +0.143 C 
BRANCH  19  24
ATOM     20  C   UNL     1      -3.538  14.639   1.295  0.00  0.00    +0.162 A 
ATOM     21  C   UNL     1      -4.122  15.079   0.118  0.00  0.00    +0.049 A 
ATOM     22  C   UNL     1      -3.407  15.040  -1.065  0.00  0.00    +0.004 A 
ATOM     23  C   UNL     1      -2.110  14.563  -1.077  0.00  0.00    +0.009 A 
ATOM     24  C   UNL     1      -1.521  14.123   0.094  0.00  0.00    +0.015 A 
ATOM     25  C   UNL     1      -2.234  14.154   1.282  0.00  0.00    +0.166 A 
BRANCH  20  27
ATOM     26  C   UNL     1      -5.575  15.181   2.396  0.00  0.00    +0.277 C 
ATOM     27  O   UNL     1      -4.240  14.676   2.459  0.00  0.00    -0.491 OA
ENDBRANCH  20  27
BRANCH  25  28
ATOM     28  O   UNL     1      -1.658  13.716   2.434  0.00  0.00    -0.491 OA
ATOM     29  C   UNL     1      -0.951  14.683   3.213  0.00  0.00    +0.277 C 
ENDBRANCH  25  28
ENDBRANCH  19  24
ENDBRANCH  15  19
ENDBRANCH   1  16
BRANCH   2  30
ATOM     30  N   UNL     1       3.393   9.648   0.022  0.00  0.00    -0.356 N 
ATOM     31  H   UNL     1       4.138   9.027   0.012  0.00  0.00    +0.142 HD
ATOM     32  H   UNL     1       3.558  10.604   0.026  0.00  0.00    +0.142 HD
ENDBRANCH   2  30
TORSDOF 7
