REMARK  Name = ZINC15028719
REMARK  11 active torsions:
REMARK  status: ('A' for Active; 'I' for Inactive)
REMARK    1  A    between atoms: C_1  and  C_2
REMARK    2  A    between atoms: C_2  and  C_4
REMARK    3  A    between atoms: C_2  and  N_19
REMARK    4  A    between atoms: N_6  and  C_7
REMARK    5  A    between atoms: C_8  and  C_17
REMARK    6  A    between atoms: N_19  and  C_20
REMARK    7  A    between atoms: N_19  and  C_21
REMARK    8  A    between atoms: C_21  and  C_22
REMARK    9  A    between atoms: N_24  and  C_25
REMARK   10  A    between atoms: C_25  and  C_26
REMARK   11  A    between atoms: C_25  and  C_27
REMARK                            x       y       z     vdW  Elec       q    Type
REMARK                         _______ _______ _______ _____ _____    ______ ____
ROOT
ATOM      1  C   UNL     1       1.236  -0.253  -1.123  0.00  0.00    +0.204 C 
ATOM      2  O   UNL     1       2.269  -0.754  -0.733  0.00  0.00    -0.277 OA
ATOM      3  N   UNL     1       1.066   0.009  -2.434  0.00  0.00    -0.280 N 
ATOM      4  H   UNL     1       0.239   0.410  -2.745  0.00  0.00    +0.155 HD
ENDROOT
BRANCH   3   5
ATOM      5  C   UNL     1       2.073  -0.296  -3.339  0.00  0.00    +0.090 A 
ATOM      6  C   UNL     1       2.077  -0.096  -4.707  0.00  0.00    +0.084 A 
ATOM      7  C   UNL     1       3.265  -0.505  -5.442  0.00  0.00    -0.018 A 
ATOM      8  C   UNL     1       4.228  -1.046  -4.666  0.00  0.00    -0.004 A 
ATOM      9  S   UNL     1       3.570  -0.987  -3.023  0.00  0.00    -0.077 S 
ATOM     10  C   UNL     1       5.556  -1.584  -5.099  0.00  0.00    +0.043 C 
ATOM     11  C   UNL     1       6.240  -0.559  -6.014  0.00  0.00    +0.005 C 
ATOM     12  C   UNL     1       5.819  -0.836  -7.454  0.00  0.00    +0.001 C 
ATOM     13  C   UNL     1       4.388  -1.368  -7.493  0.00  0.00    +0.005 C 
ATOM     14  C   UNL     1       3.417  -0.328  -6.946  0.00  0.00    +0.037 C 
BRANCH   6  15
ATOM     15  C   UNL     1       0.955   0.492  -5.376  0.00  0.00    +0.102 C 
ATOM     16  N   UNL     1       0.065   0.958  -5.906  0.00  0.00    -0.191 NA
ENDBRANCH   6  15
ENDBRANCH   3   5
BRANCH   1  18
ATOM     17  C   UNL     1       0.298   1.527   0.327  0.00  0.00    -0.004 C 
ATOM     18  C   UNL     1       0.142   0.078  -0.140  0.00  0.00    +0.017 C 
BRANCH  18  19
ATOM     19  N   UNL     1       0.234  -0.822   1.017  0.00  0.00    +0.391 N 
ATOM     20  C   UNL     1      -0.805  -0.471   1.994  0.00  0.00    -0.094 C 
ATOM     21  H   UNL     1       1.143  -0.729   1.444  0.00  0.00    -0.080 HD
BRANCH  19  22
ATOM     22  C   UNL     1       0.041  -2.209   0.574  0.00  0.00    +0.019 C 
BRANCH  22  23
ATOM     23  C   UNL     1       0.308  -3.146   1.724  0.00  0.00    +0.197 C 
ATOM     24  O   UNL     1       0.628  -2.701   2.807  0.00  0.00    -0.278 OA
ATOM     25  N   UNL     1       0.192  -4.477   1.551  0.00  0.00    -0.315 N 
ATOM     26  H   UNL     1      -0.063  -4.833   0.685  0.00  0.00    +0.149 HD
BRANCH  25  27
ATOM     27  C   UNL     1       0.452  -5.387   2.669  0.00  0.00    +0.067 C 
ATOM     28  C   UNL     1      -0.816  -5.535   3.512  0.00  0.00    +0.027 C 
ATOM     29  C   UNL     1       0.866  -6.757   2.127  0.00  0.00    +0.027 C 
ENDBRANCH  25  27
ENDBRANCH  22  23
ENDBRANCH  19  22
ENDBRANCH  18  19
ENDBRANCH   1  18
TORSDOF 7
