REMARK  Name = ZINC39970726
REMARK  10 active torsions:
REMARK  status: ('A' for Active; 'I' for Inactive)
REMARK    1  A    between atoms: C_1  and  C_2
REMARK    2  A    between atoms: C_7  and  C_36
REMARK    3  A    between atoms: N_9  and  S_10
REMARK    4  A    between atoms: S_10  and  C_13
REMARK    5  A    between atoms: C_16  and  N_19
REMARK    6  A    between atoms: N_19  and  C_20
REMARK    7  A    between atoms: C_20  and  N_22
REMARK    8  A    between atoms: N_22  and  C_23
REMARK    9  A    between atoms: C_26  and  N_29
REMARK   10  A    between atoms: N_29  and  C_30
REMARK                            x       y       z     vdW  Elec       q    Type
REMARK                         _______ _______ _______ _____ _____    ______ ____
ROOT
ATOM      1  N   UNL     1      -3.026   0.550   6.564  0.00  0.00    -0.297 N 
ATOM      2  H   UNL     1      -2.760   0.648   7.491  0.00  0.00    +0.154 HD
ENDROOT
BRANCH   1   6
ATOM      3  C   UNL     1      -0.129   0.145   3.599  0.00  0.00    +0.106 A 
ATOM      4  C   UNL     1      -1.202   0.995   3.403  0.00  0.00    +0.030 A 
ATOM      5  C   UNL     1      -2.164   1.132   4.384  0.00  0.00    +0.025 A 
ATOM      6  C   UNL     1      -2.054   0.414   5.568  0.00  0.00    +0.033 A 
ATOM      7  C   UNL     1      -0.975  -0.440   5.761  0.00  0.00    +0.025 A 
ATOM      8  C   UNL     1      -0.018  -0.575   4.774  0.00  0.00    +0.030 A 
BRANCH   3   9
ATOM      9  S   UNL     1       1.097  -0.026   2.344  0.00  0.00    +0.061 S 
ATOM     10  O   UNL     1       2.283  -0.464   2.993  0.00  0.00    -0.153 OA
ATOM     11  O   UNL     1       1.048   1.161   1.564  0.00  0.00    -0.153 OA
BRANCH   9  18
ATOM     12  C   UNL     1       2.128  -2.637   2.707  0.00  0.00    +0.026 C 
ATOM     13  C   UNL     1       1.081  -2.636   1.591  0.00  0.00    +0.077 C 
ATOM     14  C   UNL     1       1.705  -3.178   0.301  0.00  0.00    +0.020 C 
ATOM     15  C   UNL     1       0.698  -3.045  -0.843  0.00  0.00    +0.003 C 
ATOM     16  C   UNL     1       0.355  -1.568  -1.055  0.00  0.00    +0.020 C 
ATOM     17  C   UNL     1      -0.284  -1.008   0.220  0.00  0.00    +0.077 C 
ATOM     18  N   UNL     1       0.615  -1.263   1.355  0.00  0.00    -0.171 NA
ATOM     19  C   UNL     1      -0.505   0.498   0.065  0.00  0.00    +0.026 C 
ENDBRANCH   9  18
ENDBRANCH   3   9
ENDBRANCH   1   6
BRANCH   1  20
ATOM     20  C   UNL     1      -4.333   0.545   6.234  0.00  0.00    +0.139 C 
ATOM     21  S   UNL     1      -4.808   0.225   4.621  0.00  0.00    -0.018 S 
BRANCH  20  22
ATOM     22  N   UNL     1      -5.266   0.793   7.175  0.00  0.00    -0.297 N 
ATOM     23  H   UNL     1      -4.995   1.028   8.076  0.00  0.00    +0.154 HD
BRANCH  22  24
ATOM     24  C   UNL     1      -6.627   0.710   6.851  0.00  0.00    +0.033 A 
ATOM     25  C   UNL     1      -7.511   0.090   7.724  0.00  0.00    +0.025 A 
ATOM     26  C   UNL     1      -8.852   0.008   7.405  0.00  0.00    +0.025 A 
ATOM     27  C   UNL     1      -9.316   0.546   6.211  0.00  0.00    +0.031 A 
ATOM     28  C   UNL     1      -8.431   1.166   5.339  0.00  0.00    +0.025 A 
ATOM     29  C   UNL     1      -7.091   1.252   5.660  0.00  0.00    +0.025 A 
BRANCH  27  30
ATOM     30  N   UNL     1     -10.675   0.462   5.888  0.00  0.00    -0.314 N 
ATOM     31  H   UNL     1     -11.341   0.438   6.593  0.00  0.00    +0.152 HD
BRANCH  30  32
ATOM     32  C   UNL     1     -11.072   0.414   4.550  0.00  0.00    +0.031 A 
ATOM     33  C   UNL     1     -10.235  -0.149   3.594  0.00  0.00    +0.023 A 
ATOM     34  C   UNL     1     -10.631  -0.195   2.272  0.00  0.00    +0.002 A 
ATOM     35  C   UNL     1     -11.860   0.318   1.899  0.00  0.00    +0.000 A 
ATOM     36  C   UNL     1     -12.696   0.879   2.846  0.00  0.00    +0.002 A 
ATOM     37  C   UNL     1     -12.309   0.923   4.171  0.00  0.00    +0.023 A 
ENDBRANCH  30  32
ENDBRANCH  27  30
ENDBRANCH  22  24
ENDBRANCH  20  22
ENDBRANCH   1  20
TORSDOF 8
