REMARK  Name = ZINC34936226
REMARK  7 active torsions:
REMARK  status: ('A' for Active; 'I' for Inactive)
REMARK    1  A    between atoms: C_1  and  C_2
REMARK    2  A    between atoms: C_2  and  C_3
REMARK    3  A    between atoms: C_2  and  C_4
REMARK    4  A    between atoms: C_4  and  N_5
REMARK    5  A    between atoms: C_8  and  N_19
REMARK    6  A    between atoms: C_14  and  C_17
REMARK    7  A    between atoms: C_14  and  C_18
REMARK                            x       y       z     vdW  Elec       q    Type
REMARK                         _______ _______ _______ _____ _____    ______ ____
ROOT
ATOM      1  N   UNL     1       0.289   0.220   2.803  0.00  0.00    -0.267 N 
ATOM      2  C   UNL     1       0.190   1.476   3.416  0.00  0.00    +0.080 A 
ATOM      3  C   UNL     1       0.272   2.635   2.662  0.00  0.00    +0.050 A 
ATOM      4  C   UNL     1       0.177   3.872   3.286  0.00  0.00    +0.027 A 
ATOM      5  C   UNL     1      -0.001   3.944   4.662  0.00  0.00    +0.026 A 
ATOM      6  C   UNL     1      -0.085   2.787   5.413  0.00  0.00    +0.049 A 
ATOM      7  C   UNL     1       0.008   1.552   4.795  0.00  0.00    +0.142 A 
ATOM      8  O   UNL     1      -0.087   0.408   5.526  0.00  0.00    -0.489 OA
ATOM      9  C   UNL     1      -1.310  -0.318   5.445  0.00  0.00    +0.244 C 
ATOM     10  C   UNL     1      -1.786  -0.401   3.996  0.00  0.00    +0.076 C 
ATOM     11  C   UNL     1      -0.631  -0.729   3.085  0.00  0.00    +0.229 C 
ATOM     12  O   UNL     1      -0.527  -1.840   2.611  0.00  0.00    -0.275 OA
ATOM     13  C   UNL     1      -2.853  -1.491   3.874  0.00  0.00    +0.024 C 
ATOM     14  C   UNL     1      -2.388   0.943   3.581  0.00  0.00    +0.024 C 
ENDROOT
BRANCH   4  15
ATOM     15  N   UNL     1       0.259   5.046   2.529  0.00  0.00    -0.358 N 
ATOM     16  H   UNL     1       0.383   4.996   1.568  0.00  0.00    +0.142 HD
ATOM     17  H   UNL     1       0.192   5.910   2.965  0.00  0.00    +0.142 HD
ENDBRANCH   4  15
BRANCH   1  18
ATOM     18  C   UNL     1       1.377  -0.061   1.863  0.00  0.00    +0.116 C 
BRANCH  18  20
ATOM     19  C   UNL     1       2.323  -1.799   3.388  0.00  0.00    +0.009 C 
ATOM     20  C   UNL     1       2.621  -0.500   2.638  0.00  0.00    +0.001 C 
ATOM     21  C   UNL     1       3.776  -0.728   1.661  0.00  0.00    +0.009 C 
ENDBRANCH  18  20
ENDBRANCH   1  18
TORSDOF 3
