REMARK  Name = ZINC00861529
REMARK  4 active torsions:
REMARK  status: ('A' for Active; 'I' for Inactive)
REMARK    1  A    between atoms: C_1  and  C_2
REMARK    2  A    between atoms: C_5  and  C_11
REMARK    3  A    between atoms: C_7  and  N_8
REMARK    4  A    between atoms: C_16  and  C_21
REMARK                            x       y       z     vdW  Elec       q    Type
REMARK                         _______ _______ _______ _____ _____    ______ ____
ROOT
ATOM      1  C   UNL     1      -1.149  -0.993   0.039  0.00  0.00    +0.136 C 
ATOM      2  C   UNL     1      -1.331  -1.520   1.442  0.00  0.00    +0.036 C 
ATOM      3  C   UNL     1      -1.141  -2.791   1.837  0.00  0.00    +0.017 C 
ATOM      4  C   UNL     1      -1.367  -3.191   3.285  0.00  0.00    +0.059 C 
ATOM      5  C   UNL     1      -1.032  -2.021   4.209  0.00  0.00    +0.032 C 
ATOM      6  C   UNL     1      -1.943  -0.849   3.827  0.00  0.00    +0.088 C 
ATOM      7  C   UNL     1      -1.734  -0.537   2.375  0.00  0.00    +0.163 C 
ATOM      8  O   UNL     1      -1.917   0.601   1.988  0.00  0.00    -0.292 OA
ATOM      9  N   UNL     1      -0.760  -3.805   1.020  0.00  0.00    -0.316 N 
ATOM     10  C   UNL     1       0.274  -3.736   0.094  0.00  0.00    +0.052 A 
ATOM     11  C   UNL     1       1.421  -4.502   0.206  0.00  0.00    +0.025 A 
ATOM     12  C   UNL     1       2.392  -4.418  -0.777  0.00  0.00    +0.002 A 
ATOM     13  C   UNL     1       2.216  -3.578  -1.861  0.00  0.00    +0.002 A 
ATOM     14  C   UNL     1       1.077  -2.798  -1.966  0.00  0.00    +0.025 A 
ATOM     15  C   UNL     1       0.114  -2.864  -0.972  0.00  0.00    +0.049 A 
ATOM     16  N   UNL     1      -0.993  -2.015  -0.974  0.00  0.00    -0.331 N 
ATOM     17  H   UNL     1      -1.247  -4.642   1.087  0.00  0.00    +0.152 HD
ATOM     18  H   UNL     1      -1.668  -2.112  -1.663  0.00  0.00    +0.147 HD
ENDROOT
BRANCH   1  23
ATOM     19  C   UNL     1       3.529   2.399  -0.049  0.00  0.00    +0.046 C 
ATOM     20  C   UNL     1       2.309   1.515  -0.027  0.00  0.00    -0.020 A 
ATOM     21  C   UNL     1       2.436   0.168   0.261  0.00  0.00    +0.006 A 
ATOM     22  C   UNL     1       1.318  -0.643   0.282  0.00  0.00    +0.006 A 
ATOM     23  C   UNL     1       0.071  -0.108   0.016  0.00  0.00    -0.021 A 
ATOM     24  C   UNL     1      -0.057   1.238  -0.272  0.00  0.00    +0.038 A 
ATOM     25  C   UNL     1       1.062   2.049  -0.293  0.00  0.00    +0.129 A 
BRANCH  25  26
ATOM     26  N   UNL     1       0.926   3.491  -0.601  0.00  0.00    +0.057 N 
ATOM     27  O   UNL     1      -0.181   3.986  -0.719  0.00  0.00    -0.126 OA
ATOM     28  O   UNL     1       1.920   4.181  -0.737  0.00  0.00    -0.126 OA
ENDBRANCH  25  26
ENDBRANCH   1  23
BRANCH   5  29
ATOM     29  C   UNL     1      -1.278  -2.416   5.642  0.00  0.00    -0.043 A 
ATOM     30  C   UNL     1      -2.544  -2.795   6.047  0.00  0.00    +0.005 A 
ATOM     31  C   UNL     1      -2.769  -3.162   7.360  0.00  0.00    +0.020 A 
ATOM     32  C   UNL     1      -1.730  -3.139   8.273  0.00  0.00    +0.041 A 
ATOM     33  C   UNL     1      -0.464  -2.754   7.869  0.00  0.00    +0.020 A 
ATOM     34  C   UNL     1      -0.238  -2.392   6.554  0.00  0.00    +0.005 A 
ATOM     35 CL   UNL     1      -2.013  -3.594   9.924  0.00  0.00    -0.084 Cl
ENDBRANCH   5  29
TORSDOF 3
