REMARK  Name = ZINC38746688
REMARK  6 active torsions:
REMARK  status: ('A' for Active; 'I' for Inactive)
REMARK    1  A    between atoms: C_1  and  C_2
REMARK    2  A    between atoms: C_2  and  C_3
REMARK    3  A    between atoms: C_2  and  S_4
REMARK    4  A    between atoms: S_4  and  C_7
REMARK    5  A    between atoms: C_10  and  C_13
REMARK    6  A    between atoms: C_19  and  C_21
REMARK                            x       y       z     vdW  Elec       q    Type
REMARK                         _______ _______ _______ _____ _____    ______ ____
ROOT
ATOM      1  C   UNL     1      -1.141  -6.596   0.484  0.00  0.00    +0.250 A 
ATOM      2  N   UNL     1      -1.036  -7.447  -0.509  0.00  0.00    -0.106 NA
ATOM      3  N   UNL     1      -0.933  -8.640  -0.039  0.00  0.00    -0.092 NA
ATOM      4  C   UNL     1      -0.968  -8.599   1.271  0.00  0.00    +0.314 A 
ATOM      5  O   UNL     1      -1.094  -7.308   1.631  0.00  0.00    -0.405 OA
ATOM      6  N   UNL     1      -0.884  -9.684   2.128  0.00  0.00    -0.238 N 
ATOM      7  C   UNL     1      -0.754 -10.929   1.628  0.00  0.00    +0.227 C 
ATOM      8  O   UNL     1      -0.709 -11.099   0.428  0.00  0.00    -0.275 OA
ATOM      9  H   UNL     1      -0.920  -9.548   3.088  0.00  0.00    +0.159 HD
ENDROOT
BRANCH   7  10
ATOM     10  C   UNL     1      -0.663 -12.110   2.561  0.00  0.00    +0.048 C 
ATOM     11  C   UNL     1      -1.931 -12.185   3.413  0.00  0.00    +0.019 C 
ATOM     12  C   UNL     1      -1.839 -13.384   4.359  0.00  0.00    -0.009 C 
ATOM     13  C   UNL     1      -1.696 -14.669   3.542  0.00  0.00    +0.007 C 
ATOM     14  C   UNL     1      -0.428 -14.594   2.690  0.00  0.00    -0.009 C 
ATOM     15  C   UNL     1      -0.520 -13.395   1.743  0.00  0.00    +0.019 C 
ATOM     16  C   UNL     1       0.790 -14.431   3.601  0.00  0.00    +0.007 C 
ATOM     17  C   UNL     1       0.648 -13.146   4.418  0.00  0.00    -0.009 C 
ATOM     18  C   UNL     1      -0.621 -13.221   5.271  0.00  0.00    +0.007 C 
ATOM     19  C   UNL     1       0.555 -11.947   3.472  0.00  0.00    +0.019 C 
ENDBRANCH   7  10
BRANCH   1  23
ATOM     20  C   UNL     1      -1.536  -2.381   0.152  0.00  0.00    +0.088 A 
ATOM     21  C   UNL     1      -1.442  -3.156  -0.990  0.00  0.00    +0.028 A 
ATOM     22  C   UNL     1      -1.313  -4.526  -0.890  0.00  0.00    +0.015 A 
ATOM     23  C   UNL     1      -1.278  -5.130   0.368  0.00  0.00    +0.039 A 
ATOM     24  C   UNL     1      -1.374  -4.342   1.517  0.00  0.00    +0.015 A 
ATOM     25  C   UNL     1      -1.497  -2.973   1.402  0.00  0.00    +0.028 A 
BRANCH  20  26
ATOM     26  S   UNL     1      -1.700  -0.632   0.015  0.00  0.00    -0.001 S 
ATOM     27  O   UNL     1      -2.359  -0.234   1.209  0.00  0.00    -0.169 OA
ATOM     28  O   UNL     1      -2.308  -0.423  -1.252  0.00  0.00    -0.169 OA
BRANCH  26  30
ATOM     29  C   UNL     1      -0.019   1.526   0.010  0.00  0.00    +0.032 C 
ATOM     30  C   UNL     1       0.002  -0.004   0.002  0.00  0.00    +0.130 C 
ATOM     31  C   UNL     1       0.742  -0.511   1.242  0.00  0.00    +0.032 C 
ENDBRANCH  26  30
ENDBRANCH  20  26
ENDBRANCH   1  23
TORSDOF 4
