REMARK  Name = ZINC17640036
REMARK  10 active torsions:
REMARK  status: ('A' for Active; 'I' for Inactive)
REMARK    1  A    between atoms: C_1  and  C_2
REMARK    2  A    between atoms: C_3  and  C_35
REMARK    3  A    between atoms: C_11  and  C_13
REMARK    4  A    between atoms: C_13  and  S_14
REMARK    5  A    between atoms: S_14  and  C_15
REMARK    6  A    between atoms: C_15  and  C_17
REMARK    7  A    between atoms: C_15  and  C_18
REMARK    8  A    between atoms: N_20  and  N_21
REMARK    9  A    between atoms: C_22  and  C_24
REMARK   10  A    between atoms: C_31  and  C_34
REMARK                            x       y       z     vdW  Elec       q    Type
REMARK                         _______ _______ _______ _____ _____    ______ ____
ROOT
ATOM      1  C   UNL     1      -5.977   2.458   0.043  0.00  0.00    +0.242 C 
ATOM      2  O   UNL     1      -5.782   3.655   0.049  0.00  0.00    -0.273 OA
ATOM      3  N   UNL     1      -4.933   1.606   0.034  0.00  0.00    -0.233 N 
ATOM      4  H   UNL     1      -5.088   0.648   0.029  0.00  0.00    +0.173 HD
ENDROOT
BRANCH   3   5
ATOM      5  N   UNL     1      -3.623   2.102   0.030  0.00  0.00    -0.230 N 
ATOM      6  C   UNL     1      -2.579   1.250   0.021  0.00  0.00    +0.267 C 
ATOM      7  O   UNL     1      -2.774   0.049   0.015  0.00  0.00    -0.268 OA
ATOM      8  H   UNL     1      -3.467   3.060   0.035  0.00  0.00    +0.173 HD
BRANCH   6   9
ATOM      9  C   UNL     1      -1.208   1.770   0.017  0.00  0.00    +0.076 A 
ATOM     10  C   UNL     1      -0.013   1.076   0.008  0.00  0.00    +0.024 A 
ATOM     11  C   UNL     1       1.166   1.804   0.001  0.00  0.00    -0.036 A 
ATOM     12  C   UNL     1       1.049   3.164   0.008  0.00  0.00    -0.006 A 
ATOM     13  S   UNL     1      -0.647   3.464   0.026  0.00  0.00    -0.088 S 
ATOM     14  C   UNL     1       2.162   4.167   0.002  0.00  0.00    +0.043 C 
ATOM     15  C   UNL     1       3.460   3.446  -0.389  0.00  0.00    +0.009 C 
ATOM     16  C   UNL     1       3.584   2.167   0.444  0.00  0.00    -0.009 C 
ATOM     17  C   UNL     1       2.543   1.145  -0.014  0.00  0.00    +0.039 C 
ATOM     18  C   UNL     1       4.985   1.579   0.268  0.00  0.00    +0.008 C 
ENDBRANCH   6   9
ENDBRANCH   3   5
BRANCH   1  19
ATOM     19  C   UNL     1      -7.386   1.924   0.047  0.00  0.00    +0.131 C 
ATOM     20  C   UNL     1      -7.780   1.516  -1.374  0.00  0.00    +0.029 C 
BRANCH  19  21
ATOM     21  S   UNL     1      -8.518   3.209   0.644  0.00  0.00    -0.141 S 
BRANCH  21  22
ATOM     22  C   UNL     1     -10.125   2.371   0.733  0.00  0.00    +0.144 C 
BRANCH  22  33
ATOM     23  C   UNL     1     -15.392   5.952   2.827  0.00  0.00    +0.045 C 
ATOM     24  C   UNL     1     -13.921   6.185   2.594  0.00  0.00    -0.026 A 
ATOM     25  C   UNL     1     -13.379   7.391   2.827  0.00  0.00    -0.008 A 
ATOM     26  S   UNL     1     -11.661   7.158   2.410  0.00  0.00    -0.073 S 
ATOM     27  C   UNL     1     -11.722   5.449   1.936  0.00  0.00    +0.116 A 
ATOM     28  C   UNL     1     -13.075   5.108   2.114  0.00  0.00    +0.075 A 
ATOM     29  C   UNL     1     -13.418   3.753   1.799  0.00  0.00    +0.260 A 
ATOM     30  O   UNL     1     -14.566   3.361   1.921  0.00  0.00    -0.267 OA
ATOM     31  N   UNL     1     -12.455   2.922   1.359  0.00  0.00    -0.310 N 
ATOM     32  H   UNL     1     -12.682   2.005   1.140  0.00  0.00    +0.170 HD
ATOM     33  C   UNL     1     -11.170   3.340   1.222  0.00  0.00    +0.121 A 
ATOM     34  N   UNL     1     -10.825   4.568   1.502  0.00  0.00    -0.226 NA
ATOM     35  C   UNL     1     -14.059   8.641   3.322  0.00  0.00    +0.052 C 
ENDBRANCH  22  33
ENDBRANCH  21  22
ENDBRANCH  19  21
ENDBRANCH   1  19
TORSDOF 6
