REMARK  Name = ZINC59785531
REMARK  6 active torsions:
REMARK  status: ('A' for Active; 'I' for Inactive)
REMARK    1  A    between atoms: C_1  and  C_2
REMARK    2  A    between atoms: C_3  and  C_11
REMARK    3  A    between atoms: C_7  and  N_8
REMARK    4  A    between atoms: N_13  and  C_14
REMARK    5  A    between atoms: C_14  and  C_15
REMARK    6  A    between atoms: C_15  and  C_21
REMARK                            x       y       z     vdW  Elec       q    Type
REMARK                         _______ _______ _______ _____ _____    ______ ____
ROOT
ATOM      1  C   UNL     1      -1.474   2.418  -4.666  0.00  0.00    +0.244 C 
ATOM      2  O   UNL     1      -0.620   2.659  -3.836  0.00  0.00    -0.270 OA
ATOM      3  N   UNL     1      -1.182   1.640  -5.727  0.00  0.00    -0.310 N 
ATOM      4  H   UNL     1      -1.863   1.448  -6.390  0.00  0.00    +0.149 HD
ENDROOT
BRANCH   1   7
ATOM      5  C   UNL     1      -2.015   4.295  -2.532  0.00  0.00    +0.047 C 
ATOM      6  C   UNL     1      -3.106   3.885  -3.487  0.00  0.00    -0.008 A 
ATOM      7  C   UNL     1      -2.834   2.978  -4.513  0.00  0.00    +0.042 A 
ATOM      8  C   UNL     1      -3.850   2.603  -5.393  0.00  0.00    +0.013 A 
ATOM      9  C   UNL     1      -5.116   3.130  -5.244  0.00  0.00    +0.003 A 
ATOM     10  C   UNL     1      -5.380   4.028  -4.225  0.00  0.00    +0.033 A 
ATOM     11  C   UNL     1      -4.378   4.400  -3.346  0.00  0.00    +0.130 A 
BRANCH  11  12
ATOM     12  N   UNL     1      -4.671   5.356  -2.255  0.00  0.00    +0.057 N 
ATOM     13  O   UNL     1      -5.744   5.911  -2.208  0.00  0.00    -0.126 OA
ATOM     14  O   UNL     1      -3.837   5.583  -1.409  0.00  0.00    -0.126 OA
ENDBRANCH  11  12
ENDBRANCH   1   7
BRANCH   3  15
ATOM     15  C   UNL     1       0.165   1.085  -5.880  0.00  0.00    +0.116 C 
BRANCH  15  16
ATOM     16  C   UNL     1       0.197   0.149  -7.090  0.00  0.00    +0.015 C 
ATOM     17  C   UNL     1       1.580  -0.502  -7.197  0.00  0.00    +0.041 C 
ATOM     18  C   UNL     1       2.630   0.586  -7.438  0.00  0.00    +0.160 C 
ATOM     19  O   UNL     1       2.297   1.313  -8.622  0.00  0.00    -0.380 OA
ATOM     20  C   UNL     1       1.036   1.982  -8.561  0.00  0.00    +0.160 C 
ATOM     21  C   UNL     1      -0.078   0.951  -8.365  0.00  0.00    +0.041 C 
BRANCH  16  22
ATOM     22  C   UNL     1      -0.853  -0.919  -6.928  0.00  0.00    -0.039 A 
ATOM     23  C   UNL     1      -1.816  -1.095  -7.905  0.00  0.00    +0.004 A 
ATOM     24  C   UNL     1      -2.780  -2.075  -7.758  0.00  0.00    +0.001 A 
ATOM     25  C   UNL     1      -2.782  -2.879  -6.634  0.00  0.00    +0.015 A 
ATOM     26  C   UNL     1      -1.819  -2.704  -5.656  0.00  0.00    +0.018 A 
ATOM     27  C   UNL     1      -0.852  -1.727  -5.807  0.00  0.00    +0.019 A 
ATOM     28 BR   UNL     1      -1.823  -3.803  -4.118  0.00  0.00    -0.050 Br
ENDBRANCH  16  22
ENDBRANCH  15  16
ENDBRANCH   3  15
TORSDOF 5
