REMARK  Name = ZINC35929186
REMARK  8 active torsions:
REMARK  status: ('A' for Active; 'I' for Inactive)
REMARK    1  A    between atoms: C_1  and  C_2
REMARK    2  A    between atoms: C_2  and  N_3
REMARK    3  A    between atoms: N_3  and  C_4
REMARK    4  A    between atoms: C_7  and  C_16
REMARK    5  A    between atoms: C_9  and  N_15
REMARK    6  A    between atoms: N_10  and  C_14
REMARK    7  A    between atoms: C_19  and  O_23
REMARK    8  A    between atoms: O_23  and  C_24
REMARK                            x       y       z     vdW  Elec       q    Type
REMARK                         _______ _______ _______ _____ _____    ______ ____
ROOT
ATOM      1  N   UNL     1       0.929   0.354   1.371  0.00  0.00    -0.303 N 
ATOM      2  C   UNL     1       0.306   0.497   2.689  0.00  0.00    +0.132 C 
ATOM      3  C   UNL     1       2.177  -0.230   1.255  0.00  0.00    +0.220 A 
ATOM      4  N   UNL     1       2.777  -0.654   2.363  0.00  0.00    -0.213 NA
ATOM      5  C   UNL     1       3.975  -1.227   2.342  0.00  0.00    +0.091 A 
ATOM      6  C   UNL     1       4.621  -1.383   1.094  0.00  0.00    +0.086 A 
ATOM      7  C   UNL     1       5.831  -1.910   0.658  0.00  0.00    +0.126 A 
ATOM      8  N   UNL     1       5.877  -1.767  -0.678  0.00  0.00    -0.251 N 
ATOM      9  N   UNL     1       4.706  -1.150  -1.132  0.00  0.00    -0.149 NA
ATOM     10  C   UNL     1       3.920  -0.899  -0.108  0.00  0.00    +0.188 A 
ATOM     11  N   UNL     1       2.704  -0.341   0.053  0.00  0.00    -0.193 NA
ATOM     12  C   UNL     1       6.988  -2.195  -1.532  0.00  0.00    +0.174 C 
ENDROOT
BRANCH   5  13
ATOM     13  C   UNL     1       4.617  -1.688   3.591  0.00  0.00    +0.037 A 
ATOM     14  C   UNL     1       5.882  -1.213   3.945  0.00  0.00    +0.016 A 
ATOM     15  C   UNL     1       6.477  -1.645   5.110  0.00  0.00    +0.046 A 
ATOM     16  C   UNL     1       5.822  -2.553   5.934  0.00  0.00    +0.123 A 
ATOM     17  C   UNL     1       4.564  -3.029   5.588  0.00  0.00    +0.084 A 
ATOM     18  C   UNL     1       3.957  -2.597   4.425  0.00  0.00    +0.136 A 
ATOM     19  F   UNL     1       2.731  -3.055   4.091  0.00  0.00    -0.205 F 
BRANCH  16  20
ATOM     20  O   UNL     1       6.413  -2.976   7.080  0.00  0.00    -0.495 OA
ATOM     21  C   UNL     1       5.684  -3.909   7.880  0.00  0.00    +0.277 C 
ENDBRANCH  16  20
ENDBRANCH   5  13
BRANCH   7  22
ATOM     22  N   UNL     1       6.809  -2.476   1.454  0.00  0.00    -0.343 N 
ATOM     23  H   UNL     1       6.635  -2.641   2.394  0.00  0.00    +0.144 HD
ATOM     24  H   UNL     1       7.670  -2.709   1.072  0.00  0.00    +0.144 HD
ENDBRANCH   7  22
BRANCH   1  26
ATOM     25  C   UNL     1       0.606   2.290  -0.089  0.00  0.00    +0.024 C 
ATOM     26  C   UNL     1       0.230   0.830   0.175  0.00  0.00    +0.104 C 
ENDBRANCH   1  26
TORSDOF 4
