REMARK  Name = ZINC09861505
REMARK  3 active torsions:
REMARK  status: ('A' for Active; 'I' for Inactive)
REMARK    1  A    between atoms: C_1  and  C_2
REMARK    2  A    between atoms: N_6  and  C_10
REMARK    3  A    between atoms: C_19  and  C_22
REMARK                            x       y       z     vdW  Elec       q    Type
REMARK                         _______ _______ _______ _____ _____    ______ ____
ROOT
ATOM      1  C   UNL     1      -2.415   1.352   0.032  0.00  0.00    +0.045 A 
ATOM      2  C   UNL     1      -2.392  -0.035   0.078  0.00  0.00    +0.027 A 
ATOM      3  C   UNL     1      -1.186  -0.711   0.064  0.00  0.00    +0.049 A 
ATOM      4  C   UNL     1       0.002  -0.004   0.003  0.00  0.00    +0.143 A 
ATOM      5  C   UNL     1      -0.018   1.389  -0.044  0.00  0.00    +0.077 A 
ATOM      6  C   UNL     1      -1.225   2.066  -0.023  0.00  0.00    +0.051 A 
ATOM      7  N   UNL     1       1.195   2.091  -0.105  0.00  0.00    -0.279 N 
ATOM      8  C   UNL     1       2.322   1.422  -0.434  0.00  0.00    +0.258 C 
ATOM      9  O   UNL     1       3.387   2.002  -0.464  0.00  0.00    -0.271 OA
ATOM     10  C   UNL     1       2.251  -0.047  -0.763  0.00  0.00    +0.256 C 
ATOM     11  O   UNL     1       1.196  -0.657  -0.014  0.00  0.00    -0.478 OA
ATOM     12  C   UNL     1       3.581  -0.714  -0.405  0.00  0.00    +0.062 C 
ATOM     13  H   UNL     1       1.224   3.041   0.085  0.00  0.00    +0.155 HD
ENDROOT
BRANCH   1  18
ATOM     14  C   UNL     1      -6.507   2.858   1.618  0.00  0.00    +0.038 C 
ATOM     15  C   UNL     1      -5.425   3.330   0.645  0.00  0.00    +0.156 C 
ATOM     16  C   UNL     1      -4.067   2.804   1.067  0.00  0.00    +0.245 C 
ATOM     17  O   UNL     1      -3.485   3.030   2.107  0.00  0.00    -0.273 OA
ATOM     18  N   UNL     1      -3.641   2.034   0.047  0.00  0.00    -0.220 N 
ATOM     19  C   UNL     1      -4.535   1.995  -0.948  0.00  0.00    +0.144 C 
ATOM     20  S   UNL     1      -4.312   1.105  -2.394  0.00  0.00    -0.018 S 
ATOM     21  N   UNL     1      -5.628   2.734  -0.686  0.00  0.00    -0.315 N 
ATOM     22  H   UNL     1      -6.400   2.852  -1.262  0.00  0.00    +0.148 HD
ENDBRANCH   1  18
TORSDOF 1
