REMARK  Name = ZINC13010818
REMARK  8 active torsions:
REMARK  status: ('A' for Active; 'I' for Inactive)
REMARK    1  A    between atoms: C_1  and  C_2
REMARK    2  A    between atoms: C_5  and  C_34
REMARK    3  A    between atoms: N_8  and  S_10
REMARK    4  A    between atoms: S_10  and  C_13
REMARK    5  A    between atoms: C_16  and  N_19
REMARK    6  A    between atoms: C_20  and  C_22
REMARK    7  A    between atoms: C_22  and  N_23
REMARK    8  A    between atoms: C_31  and  C_33
REMARK                            x       y       z     vdW  Elec       q    Type
REMARK                         _______ _______ _______ _____ _____    ______ ____
ROOT
ATOM      1  C   UNL     1       2.555  -3.282  -0.212  0.00  0.00    +0.106 A 
ATOM      2  C   UNL     1       2.227  -4.487  -0.806  0.00  0.00    +0.030 A 
ATOM      3  C   UNL     1       2.652  -4.763  -2.091  0.00  0.00    +0.025 A 
ATOM      4  C   UNL     1       3.410  -3.829  -2.786  0.00  0.00    +0.033 A 
ATOM      5  C   UNL     1       3.738  -2.620  -2.186  0.00  0.00    +0.025 A 
ATOM      6  C   UNL     1       3.305  -2.348  -0.902  0.00  0.00    +0.030 A 
ENDROOT
BRANCH   4   7
ATOM      7  N   UNL     1       3.843  -4.106  -4.087  0.00  0.00    -0.287 N 
ATOM      8  C   UNL     1       3.075  -4.847  -4.909  0.00  0.00    +0.201 C 
ATOM      9  O   UNL     1       1.968  -5.194  -4.556  0.00  0.00    -0.278 OA
ATOM     10  H   UNL     1       4.696  -3.763  -4.397  0.00  0.00    +0.155 HD
BRANCH   8  11
ATOM     11  C   UNL     1       3.592  -5.245  -6.268  0.00  0.00    +0.020 C 
BRANCH  11  12
ATOM     12  N   UNL     1       2.574  -6.044  -6.964  0.00  0.00    +0.392 N 
ATOM     13  C   UNL     1       1.390  -5.212  -7.216  0.00  0.00    -0.055 C 
ATOM     14  C   UNL     1       0.215  -6.097  -7.649  0.00  0.00    +0.103 C 
ATOM     15  N   UNL     1       0.676  -6.963  -8.742  0.00  0.00    -0.354 N 
ATOM     16  C   UNL     1      -0.071  -7.676  -9.621  0.00  0.00    +0.086 A 
ATOM     17  C   UNL     1       0.769  -8.323 -10.459  0.00  0.00    +0.019 A 
ATOM     18  C   UNL     1       2.087  -7.994 -10.076  0.00  0.00    +0.021 A 
ATOM     19  C   UNL     1       2.002  -7.165  -9.025  0.00  0.00    +0.005 A 
ATOM     20  C   UNL     1       3.125  -6.533  -8.240  0.00  0.00    -0.023 C 
ATOM     21  C   UNL     1       4.214  -7.572  -7.968  0.00  0.00    -0.007 C 
ATOM     22  H   UNL     1       2.314  -6.830  -6.388  0.00  0.00    -0.080 HD
ENDBRANCH  11  12
ENDBRANCH   8  11
ENDBRANCH   4   7
BRANCH   1  23
ATOM     23  S   UNL     1       2.010  -2.934   1.427  0.00  0.00    +0.061 S 
ATOM     24  O   UNL     1       2.904  -1.964   1.955  0.00  0.00    -0.153 OA
ATOM     25  O   UNL     1       1.789  -4.189   2.057  0.00  0.00    -0.153 OA
BRANCH  23  31
ATOM     26  C   UNL     1      -0.638   1.123  -0.087  0.00  0.00    +0.009 C 
ATOM     27  C   UNL     1      -0.407  -0.389  -0.036  0.00  0.00    +0.002 C 
ATOM     28  C   UNL     1      -1.756  -1.109   0.047  0.00  0.00    +0.009 C 
ATOM     29  C   UNL     1      -1.527  -2.622   0.066  0.00  0.00    +0.002 C 
ATOM     30  C   UNL     1      -0.703  -2.995   1.303  0.00  0.00    +0.112 C 
ATOM     31  N   UNL     1       0.531  -2.198   1.306  0.00  0.00    -0.176 NA
ATOM     32  C   UNL     1       0.430  -0.736   1.199  0.00  0.00    +0.112 C 
ATOM     33  C   UNL     1      -2.877  -3.341   0.115  0.00  0.00    +0.009 C 
ENDBRANCH  23  31
ENDBRANCH   1  23
TORSDOF 5
