REMARK  Name = ZINC52497965
REMARK  9 active torsions:
REMARK  status: ('A' for Active; 'I' for Inactive)
REMARK    1  A    between atoms: C_1  and  C_2
REMARK    2  A    between atoms: C_7  and  N_12
REMARK    3  A    between atoms: C_9  and  C_11
REMARK    4  A    between atoms: N_15  and  C_16
REMARK    5  A    between atoms: N_15  and  C_17
REMARK    6  A    between atoms: C_17  and  C_18
REMARK    7  A    between atoms: C_21  and  O_25
REMARK    8  A    between atoms: C_22  and  O_24
REMARK    9  A    between atoms: O_25  and  C_26
REMARK                            x       y       z     vdW  Elec       q    Type
REMARK                         _______ _______ _______ _____ _____    ______ ____
ROOT
ATOM      1  N   UNL     1      -0.612  -2.548   1.244  0.00  0.00    -0.296 N 
ATOM      2  C   UNL     1      -0.873  -3.776   1.733  0.00  0.00    +0.302 C 
ATOM      3  O   UNL     1       0.032  -4.463   2.165  0.00  0.00    -0.253 OA
ATOM      4  N   UNL     1      -2.137  -4.243   1.742  0.00  0.00    -0.284 N 
ATOM      5  C   UNL     1      -3.228  -3.415   1.221  0.00  0.00    +0.134 C 
ATOM      6  H   UNL     1      -1.333  -2.000   0.898  0.00  0.00    +0.151 HD
ENDROOT
BRANCH   1  12
ATOM      7  C   UNL     1      -0.019   1.526   0.010  0.00  0.00    +0.008 C 
ATOM      8  C   UNL     1       0.002  -0.004   0.002  0.00  0.00    -0.009 C 
ATOM      9  C   UNL     1       0.718  -0.497  -1.257  0.00  0.00    +0.003 C 
ATOM     10  C   UNL     1       0.739  -2.027  -1.265  0.00  0.00    +0.002 C 
ATOM     11  C   UNL     1       1.479  -2.534  -0.026  0.00  0.00    +0.022 C 
ATOM     12  C   UNL     1       0.763  -2.041   1.233  0.00  0.00    +0.078 C 
ATOM     13  C   UNL     1       0.742  -0.511   1.242  0.00  0.00    +0.009 C 
ATOM     14  C   UNL     1       0.026  -0.018   2.500  0.00  0.00    +0.009 C 
ENDBRANCH   1  12
BRANCH   4  15
ATOM     15  C   UNL     1      -2.422  -5.578   2.274  0.00  0.00    +0.144 C 
BRANCH  15  16
ATOM     16  C   UNL     1      -2.715  -5.479   3.749  0.00  0.00    -0.026 A 
ATOM     17  C   UNL     1      -1.684  -5.580   4.665  0.00  0.00    +0.009 A 
ATOM     18  C   UNL     1      -1.948  -5.490   6.019  0.00  0.00    +0.050 A 
ATOM     19  C   UNL     1      -3.247  -5.298   6.461  0.00  0.00    +0.161 A 
ATOM     20  C   UNL     1      -4.284  -5.197   5.539  0.00  0.00    +0.159 A 
ATOM     21  C   UNL     1      -4.012  -5.282   4.183  0.00  0.00    +0.054 A 
BRANCH  20  22
ATOM     22  O   UNL     1      -5.561  -5.008   5.967  0.00  0.00    -0.503 OA
ATOM     23  H   UNL     1      -5.813  -4.079   6.056  0.00  0.00    +0.292 HD
ENDBRANCH  20  22
BRANCH  19  24
ATOM     24  O   UNL     1      -3.508  -5.210   7.793  0.00  0.00    -0.491 OA
ATOM     25  C   UNL     1      -2.394  -5.324   8.681  0.00  0.00    +0.277 C 
ENDBRANCH  19  24
ENDBRANCH  15  16
ENDBRANCH   4  15
TORSDOF 5
