REMARK  Name = ZINC41154253
REMARK  4 active torsions:
REMARK  status: ('A' for Active; 'I' for Inactive)
REMARK    1  A    between atoms: C_1  and  C_2
REMARK    2  A    between atoms: C_7  and  C_9
REMARK    3  A    between atoms: C_7  and  N_20
REMARK    4  A    between atoms: C_11  and  C_14
REMARK                            x       y       z     vdW  Elec       q    Type
REMARK                         _______ _______ _______ _____ _____    ______ ____
ROOT
ATOM      1  C   UNL     1      -0.019   1.524   0.010  0.00  0.00    +0.007 C 
ATOM      2  C   UNL     1       0.002  -0.004   0.002  0.00  0.00    -0.015 C 
ATOM      3  C   UNL     1       0.627  -0.525  -1.285  0.00  0.00    +0.003 C 
ATOM      4  C   UNL     1       2.141  -0.325  -1.273  0.00  0.00    -0.001 C 
ATOM      5  C   UNL     1       2.734  -1.097  -0.096  0.00  0.00    -0.005 C 
ATOM      6  C   UNL     1       2.185  -0.560   1.223  0.00  0.00    -0.006 C 
ATOM      7  C   UNL     1       0.666  -0.561   1.247  0.00  0.00    -0.002 C 
ENDROOT
BRANCH   6   8
ATOM      8  C   UNL     1       2.674  -1.459   2.329  0.00  0.00    +0.161 A 
ATOM      9  N   UNL     1       3.948  -1.611   2.695  0.00  0.00    -0.193 NA
ATOM     10  C   UNL     1       4.029  -2.469   3.693  0.00  0.00    +0.265 A 
ATOM     11  O   UNL     1       2.782  -2.886   3.984  0.00  0.00    -0.332 OA
ATOM     12  N   UNL     1       1.919  -2.208   3.083  0.00  0.00    -0.062 NA
BRANCH  10  13
ATOM     13  C   UNL     1       5.261  -2.895   4.367  0.00  0.00    +0.078 A 
ATOM     14  C   UNL     1       5.420  -3.791   5.412  0.00  0.00    +0.022 A 
ATOM     15  C   UNL     1       6.713  -3.991   5.837  0.00  0.00    +0.024 A 
ATOM     16  C   UNL     1       7.718  -3.318   5.224  0.00  0.00    +0.056 A 
ATOM     17  S   UNL     1       6.944  -2.400   4.050  0.00  0.00    -0.077 S 
ATOM     18 BR   UNL     1       9.569  -3.401   5.601  0.00  0.00    -0.043 Br
ENDBRANCH  10  13
ENDBRANCH   6   8
BRANCH   6  19
ATOM     19  N   UNL     1       2.717   0.786   1.476  0.00  0.00    +0.387 N 
ATOM     20  H   UNL     1       2.443   1.403   0.727  0.00  0.00    -0.089 HD
ATOM     21  H   UNL     1       2.350   1.133   2.349  0.00  0.00    -0.089 HD
ATOM     22  H   UNL     1       3.724   0.745   1.528  0.00  0.00    -0.089 HD
ENDBRANCH   6  19
TORSDOF 3
