REMARK  Name = ZINC44737174
REMARK  8 active torsions:
REMARK  status: ('A' for Active; 'I' for Inactive)
REMARK    1  A    between atoms: C_1  and  C_2
REMARK    2  A    between atoms: C_10  and  C_12
REMARK    3  A    between atoms: C_12  and  C_13
REMARK    4  A    between atoms: C_12  and  N_14
REMARK    5  A    between atoms: C_15  and  C_17
REMARK    6  A    between atoms: C_27  and  C_29
REMARK    7  A    between atoms: C_32  and  O_35
REMARK    8  A    between atoms: O_35  and  C_36
REMARK                            x       y       z     vdW  Elec       q    Type
REMARK                         _______ _______ _______ _____ _____    ______ ____
ROOT
ATOM      1  C   UNL     1      -1.818  -9.079   0.417  0.00  0.00    +0.100 C 
ATOM      2  C   UNL     1      -0.516  -9.492  -0.304  0.00  0.00    +0.121 C 
ATOM      3  N   UNL     1      -0.030 -10.673   0.447  0.00  0.00    -0.296 N 
ATOM      4  C   UNL     1      -1.259 -11.437   0.770  0.00  0.00    +0.115 C 
ATOM      5  C   UNL     1      -2.301 -10.360   1.119  0.00  0.00    -0.004 C 
ATOM      6  C   UNL     1      -2.353 -10.148   2.629  0.00  0.00    -0.010 C 
ATOM      7  C   UNL     1      -2.890 -11.416   3.299  0.00  0.00    -0.082 C 
ATOM      8  N   UNL     1      -4.230 -11.715   2.780  0.00  0.00    +0.379 N 
ATOM      9  C   UNL     1      -4.158 -12.009   1.344  0.00  0.00    -0.082 C 
ATOM     10  C   UNL     1      -3.674 -10.766   0.591  0.00  0.00    -0.010 C 
ATOM     11  C   UNL     1       1.243 -10.982   0.766  0.00  0.00    +0.247 C 
ATOM     12  O   UNL     1       2.136 -10.189   0.539  0.00  0.00    -0.270 OA
ATOM     13  H   UNL     1      -4.607 -12.515   3.267  0.00  0.00    -0.086 HD
ATOM     14  H   UNL     1      -4.833 -10.920   2.930  0.00  0.00    -0.086 HD
ENDROOT
BRANCH  11  15
ATOM     15  C   UNL     1       1.552 -12.284   1.389  0.00  0.00    +0.037 A 
ATOM     16  C   UNL     1       0.660 -13.352   1.259  0.00  0.00    +0.016 A 
ATOM     17  C   UNL     1       0.952 -14.565   1.841  0.00  0.00    +0.047 A 
ATOM     18  C   UNL     1       2.132 -14.728   2.558  0.00  0.00    +0.130 A 
ATOM     19  C   UNL     1       3.021 -13.668   2.690  0.00  0.00    +0.047 A 
ATOM     20  C   UNL     1       2.739 -12.454   2.106  0.00  0.00    +0.016 A 
BRANCH  18  21
ATOM     21  O   UNL     1       2.416 -15.925   3.132  0.00  0.00    -0.406 OA
BRANCH  21  22
ATOM     22  C   UNL     1       3.645 -16.023   3.854  0.00  0.00    +0.575 C 
ATOM     23  F   UNL     1       3.646 -15.095   4.901  0.00  0.00    -0.133 F 
ATOM     24  F   UNL     1       3.777 -17.314   4.375  0.00  0.00    -0.133 F 
ATOM     25  F   UNL     1       4.714 -15.756   2.993  0.00  0.00    -0.133 F 
ENDBRANCH  21  22
ENDBRANCH  18  21
ENDBRANCH  11  15
BRANCH   1  27
ATOM     26  N   UNL     1      -2.524  -7.171   1.825  0.00  0.00    -0.305 N 
ATOM     27  C   UNL     1      -1.537  -8.000   1.431  0.00  0.00    +0.219 C 
ATOM     28  O   UNL     1      -0.422  -7.878   1.893  0.00  0.00    -0.275 OA
ATOM     29  H   UNL     1      -3.415  -7.269   1.456  0.00  0.00    +0.149 HD
BRANCH  26  30
ATOM     30  C   UNL     1      -2.250  -6.122   2.811  0.00  0.00    +0.136 C 
ATOM     31  C   UNL     1      -1.695  -4.886   2.099  0.00  0.00    +0.036 C 
BRANCH  30  41
ATOM     32  C   UNL     1      -7.742  -3.939   7.332  0.00  0.00    +0.044 C 
ATOM     33  C   UNL     1      -6.994  -4.484   6.143  0.00  0.00    -0.048 A 
ATOM     34  C   UNL     1      -7.697  -4.931   5.033  0.00  0.00    +0.005 A 
ATOM     35  C   UNL     1      -7.037  -5.428   3.945  0.00  0.00    +0.030 A 
ATOM     36  C   UNL     1      -5.641  -5.488   3.944  0.00  0.00    +0.089 A 
ATOM     37  C   UNL     1      -4.929  -5.035   5.068  0.00  0.00    +0.067 A 
ATOM     38  C   UNL     1      -5.617  -4.529   6.163  0.00  0.00    +0.031 A 
ATOM     39  N   UNL     1      -3.594  -5.220   4.773  0.00  0.00    -0.340 N 
ATOM     40  H   UNL     1      -2.843  -5.005   5.348  0.00  0.00    +0.167 HD
ATOM     41  C   UNL     1      -3.526  -5.760   3.526  0.00  0.00    +0.128 A 
ATOM     42  N   UNL     1      -4.723  -5.917   3.041  0.00  0.00    -0.231 NA
ENDBRANCH  30  41
ENDBRANCH  26  30
ENDBRANCH   1  27
TORSDOF 6
