REMARK  Name = ZINC09532811
REMARK  8 active torsions:
REMARK  status: ('A' for Active; 'I' for Inactive)
REMARK    1  A    between atoms: C_1  and  C_2
REMARK    2  A    between atoms: N_8  and  C_27
REMARK    3  A    between atoms: C_9  and  C_24
REMARK    4  A    between atoms: C_10  and  C_11
REMARK    5  A    between atoms: C_11  and  N_12
REMARK    6  A    between atoms: N_12  and  C_13
REMARK    7  A    between atoms: C_18  and  C_23
REMARK    8  A    between atoms: C_20  and  C_22
REMARK                            x       y       z     vdW  Elec       q    Type
REMARK                         _______ _______ _______ _____ _____    ______ ____
ROOT
ATOM      1  C   UNL     1      -0.018   1.503   0.010  0.00  0.00    +0.044 C 
ATOM      2  C   UNL     1       0.002  -0.004   0.002  0.00  0.00    -0.048 A 
ATOM      3  C   UNL     1       0.006  -0.685  -1.209  0.00  0.00    +0.004 A 
ATOM      4  C   UNL     1       0.024  -2.049  -1.239  0.00  0.00    +0.010 A 
ATOM      5  C   UNL     1       0.040  -2.773  -0.039  0.00  0.00    +0.002 A 
ATOM      6  C   UNL     1       0.037  -2.084   1.190  0.00  0.00    +0.050 A 
ATOM      7  C   UNL     1       0.023  -0.692   1.194  0.00  0.00    +0.029 A 
ATOM      8  N   UNL     1       0.054  -3.027   2.190  0.00  0.00    -0.338 N 
ATOM      9  C   UNL     1       0.068  -4.285   1.616  0.00  0.00    +0.133 A 
ATOM     10  C   UNL     1       0.060  -4.155   0.261  0.00  0.00    -0.025 A 
ATOM     11  C   UNL     1       0.058  -2.745   3.628  0.00  0.00    +0.149 C 
ENDROOT
BRANCH   9  12
ATOM     12  C   UNL     1       0.089  -5.554   2.349  0.00  0.00    +0.403 C 
ATOM     13  O   UNL     1       0.094  -5.554   3.573  0.00  0.00    -0.239 OA
ATOM     14  O   UNL     1       0.100  -6.614   1.736  0.00  0.00    -0.239 OA
ENDBRANCH   9  12
BRANCH  10  15
ATOM     15  C   UNL     1       0.070  -5.282  -0.740  0.00  0.00    -0.043 C 
BRANCH  15  16
ATOM     16  N   UNL     1       1.458  -5.629  -1.072  0.00  0.00    +0.384 N 
ATOM     17  H   UNL     1       1.921  -4.825  -1.467  0.00  0.00    -0.085 HD
ATOM     18  H   UNL     1       1.942  -5.919  -0.235  0.00  0.00    -0.085 HD
BRANCH  16  19
ATOM     19  C   UNL     1       1.468  -6.728  -2.047  0.00  0.00    -0.068 C 
ATOM     20  C   UNL     1       0.845  -6.249  -3.361  0.00  0.00    -0.015 C 
ATOM     21  C   UNL     1       0.856  -7.393  -4.377  0.00  0.00    -0.001 C 
ATOM     22  C   UNL     1       2.297  -7.838  -4.628  0.00  0.00    +0.003 C 
ATOM     23  C   UNL     1       2.920  -8.317  -3.315  0.00  0.00    -0.013 C 
ATOM     24  C   UNL     1       2.910  -7.173  -2.299  0.00  0.00    -0.025 C 
ATOM     25  C   UNL     1       3.532  -7.652  -0.986  0.00  0.00    +0.006 C 
ATOM     26  C   UNL     1       2.111  -9.494  -2.767  0.00  0.00    +0.008 C 
ENDBRANCH  16  19
ENDBRANCH  15  16
ENDBRANCH  10  15
TORSDOF 4
