REMARK  Name = ZINC09664162
REMARK  5 active torsions:
REMARK  status: ('A' for Active; 'I' for Inactive)
REMARK    1  A    between atoms: C_1  and  C_2
REMARK    2  A    between atoms: C_7  and  C_8
REMARK    3  A    between atoms: C_13  and  C_15
REMARK    4  A    between atoms: N_21  and  S_22
REMARK    5  A    between atoms: S_22  and  C_25
REMARK                            x       y       z     vdW  Elec       q    Type
REMARK                         _______ _______ _______ _____ _____    ______ ____
ROOT
ATOM      1  C   UNL     1       0.344   0.536  -9.681  0.00  0.00    +0.044 C 
ATOM      2  C   UNL     1       0.113   1.550  -8.590  0.00  0.00    -0.045 A 
ATOM      3  C   UNL     1      -0.736   2.622  -8.829  0.00  0.00    +0.005 A 
ATOM      4  C   UNL     1      -0.948   3.553  -7.829  0.00  0.00    +0.017 A 
ATOM      5  C   UNL     1      -0.319   3.403  -6.619  0.00  0.00    +0.041 A 
ATOM      6  C   UNL     1       0.551   2.325  -6.339  0.00  0.00    +0.083 A 
ATOM      7  C   UNL     1       0.746   1.393  -7.385  0.00  0.00    -0.021 A 
ATOM      8  C   UNL     1       1.659   0.213  -7.171  0.00  0.00    +0.046 C 
ATOM      9  N   UNL     1       1.099   2.320  -5.104  0.00  0.00    -0.224 NA
ATOM     10  C   UNL     1       0.835   3.245  -4.212  0.00  0.00    +0.165 A 
ATOM     11  S   UNL     1      -0.292   4.316  -5.094  0.00  0.00    -0.052 S 
ATOM     12  N   UNL     1       1.313   3.365  -2.917  0.00  0.00    -0.263 N 
ATOM     13  C   UNL     1       0.925   4.402  -2.149  0.00  0.00    +0.238 C 
ATOM     14  O   UNL     1       0.158   5.230  -2.591  0.00  0.00    -0.274 OA
ATOM     15  H   UNL     1       1.927   2.703  -2.564  0.00  0.00    +0.157 HD
ENDROOT
BRANCH  13  16
ATOM     16  C   UNL     1       1.446   4.533  -0.741  0.00  0.00    +0.166 C 
ATOM     17  C   UNL     1       2.235   5.838  -0.600  0.00  0.00    +0.030 C 
ATOM     18  C   UNL     1       2.642   6.029   0.863  0.00  0.00    +0.003 C 
ATOM     19  C   UNL     1       1.387   6.127   1.734  0.00  0.00    +0.017 C 
ATOM     20  C   UNL     1       0.588   4.831   1.619  0.00  0.00    +0.110 C 
ATOM     21  N   UNL     1       0.318   4.559   0.201  0.00  0.00    -0.164 NA
BRANCH  21  22
ATOM     22  S   UNL     1      -1.229   4.293  -0.328  0.00  0.00    +0.068 S 
ATOM     23  O   UNL     1      -1.956   3.786   0.782  0.00  0.00    -0.152 OA
ATOM     24  O   UNL     1      -1.123   3.587  -1.556  0.00  0.00    -0.152 OA
BRANCH  22  25
ATOM     25  C   UNL     1      -1.926   5.866  -0.710  0.00  0.00    +0.143 A 
ATOM     26  C   UNL     1      -2.038   6.480  -1.913  0.00  0.00    +0.036 A 
ATOM     27  C   UNL     1      -2.632   7.727  -1.976  0.00  0.00    +0.010 A 
ATOM     28  C   UNL     1      -3.074   8.303  -0.831  0.00  0.00    +0.047 A 
ATOM     29  S   UNL     1      -2.660   7.067   0.388  0.00  0.00    -0.077 S 
ENDBRANCH  22  25
ENDBRANCH  21  22
ENDBRANCH  13  16
TORSDOF 3
