REMARK  Name = ZINC25256010
REMARK  6 active torsions:
REMARK  status: ('A' for Active; 'I' for Inactive)
REMARK    1  A    between atoms: C_1  and  C_2
REMARK    2  A    between atoms: C_2  and  C_4
REMARK    3  A    between atoms: C_2  and  S_18
REMARK    4  A    between atoms: N_6  and  C_7
REMARK    5  A    between atoms: S_18  and  C_19
REMARK    6  A    between atoms: N_27  and  C_30
REMARK                            x       y       z     vdW  Elec       q    Type
REMARK                         _______ _______ _______ _____ _____    ______ ____
ROOT
ATOM      1  C   UNL     1       3.209  -1.720  -0.038  0.00  0.00    +0.172 A 
ATOM      2  N   UNL     1       4.026  -0.627  -0.040  0.00  0.00    -0.301 N 
ATOM      3  H   UNL     1       5.118  -0.757  -0.051  0.00  0.00    +0.171 HD
ATOM      4  C   UNL     1       3.500   0.618  -0.028  0.00  0.00    +0.263 A 
ATOM      5  O   UNL     1       4.220   1.601  -0.030  0.00  0.00    -0.267 OA
ATOM      6  C   UNL     1       2.089   0.751  -0.014  0.00  0.00    +0.103 A 
ATOM      7  C   UNL     1       1.206   1.850   0.001  0.00  0.00    +0.150 A 
ATOM      8  N   UNL     1      -0.017   1.396   0.010  0.00  0.00    -0.172 NA
ATOM      9  N   UNL     1       0.002  -0.004   0.002  0.00  0.00    -0.214 N 
ATOM     10  C   UNL     1       1.302  -0.413  -0.013  0.00  0.00    +0.171 A 
ATOM     11  N   UNL     1       1.899  -1.612  -0.024  0.00  0.00    -0.204 NA
ENDROOT
BRANCH   9  12
ATOM     12  C   UNL     1      -1.121  -0.840   0.008  0.00  0.00    +0.069 A 
ATOM     13  C   UNL     1      -1.100  -2.039  -0.692  0.00  0.00    +0.028 A 
ATOM     14  C   UNL     1      -2.208  -2.864  -0.681  0.00  0.00    +0.003 A 
ATOM     15  C   UNL     1      -3.341  -2.493   0.018  0.00  0.00    +0.020 A 
ATOM     16  C   UNL     1      -3.368  -1.297   0.714  0.00  0.00    +0.043 A 
ATOM     17  C   UNL     1      -2.260  -0.469   0.710  0.00  0.00    +0.047 A 
ATOM     18 CL   UNL     1      -4.793  -0.835   1.591  0.00  0.00    -0.083 Cl
ENDBRANCH   9  12
BRANCH   1  19
ATOM     19  S   UNL     1       3.932  -3.327  -0.053  0.00  0.00    -0.075 S 
BRANCH  19  21
ATOM     20  C   UNL     1       1.659  -4.121  -1.343  0.00  0.00    +0.029 C 
ATOM     21  C   UNL     1       2.436  -4.345  -0.044  0.00  0.00    +0.137 C 
BRANCH  21  22
ATOM     22  C   UNL     1       2.818  -5.799   0.068  0.00  0.00    +0.227 C 
ATOM     23  O   UNL     1       3.940  -6.155  -0.224  0.00  0.00    -0.275 OA
ATOM     24  N   UNL     1       1.913  -6.703   0.493  0.00  0.00    -0.308 N 
ATOM     25  H   UNL     1       0.896  -6.380   0.758  0.00  0.00    +0.149 HD
BRANCH  24  26
ATOM     26  C   UNL     1       2.285  -8.116   0.602  0.00  0.00    +0.103 C 
ATOM     27  C   UNL     1       1.387  -8.794   1.635  0.00  0.00    +0.027 C 
ATOM     28  C   UNL     1       1.642 -10.305   1.578  0.00  0.00    +0.007 C 
ATOM     29  C   UNL     1       1.079 -10.840   0.263  0.00  0.00    +0.035 C 
ATOM     30  C   UNL     1       1.585 -10.027  -0.899  0.00  0.00    -0.042 A 
ATOM     31  C   UNL     1       2.135  -8.774  -0.744  0.00  0.00    -0.024 A 
ATOM     32  C   UNL     1       2.576  -8.074  -1.859  0.00  0.00    +0.006 A 
ATOM     33  C   UNL     1       2.471  -8.624  -3.120  0.00  0.00    +0.000 A 
ATOM     34  C   UNL     1       1.923  -9.883  -3.276  0.00  0.00    +0.000 A 
ATOM     35  C   UNL     1       1.482 -10.580  -2.169  0.00  0.00    +0.004 A 
ENDBRANCH  24  26
ENDBRANCH  21  22
ENDBRANCH  19  21
ENDBRANCH   1  19
TORSDOF 5
