REMARK  Name = ZINC10784789
REMARK  8 active torsions:
REMARK  status: ('A' for Active; 'I' for Inactive)
REMARK    1  A    between atoms: C_1  and  C_2
REMARK    2  A    between atoms: C_5  and  C_8
REMARK    3  A    between atoms: C_11  and  S_14
REMARK    4  A    between atoms: N_12  and  N_13
REMARK    5  A    between atoms: S_14  and  C_15
REMARK    6  A    between atoms: C_15  and  C_17
REMARK    7  A    between atoms: C_15  and  C_18
REMARK    8  A    between atoms: N_20  and  C_21
REMARK                            x       y       z     vdW  Elec       q    Type
REMARK                         _______ _______ _______ _____ _____    ______ ____
ROOT
ATOM      1  S   UNL     1       1.031   2.126   1.693  0.00  0.00    -0.072 S 
ENDROOT
BRANCH   1   5
ATOM      2  C   UNL     1       1.161   6.003   1.220  0.00  0.00    +0.182 A 
ATOM      3  N   UNL     1       0.145   5.654   0.465  0.00  0.00    -0.127 NA
ATOM      4  N   UNL     1      -0.022   4.381   0.515  0.00  0.00    -0.121 NA
ATOM      5  C   UNL     1       0.872   3.839   1.312  0.00  0.00    +0.209 A 
ATOM      6  N   UNL     1       1.658   4.851   1.785  0.00  0.00    -0.224 N 
BRANCH   2  11
ATOM      7  C   UNL     1       3.162  11.340   2.010  0.00  0.00    +0.044 C 
ATOM      8  C   UNL     1       2.638   9.942   1.803  0.00  0.00    -0.050 A 
ATOM      9  C   UNL     1       3.424   8.855   2.141  0.00  0.00    +0.004 A 
ATOM     10  C   UNL     1       2.950   7.573   1.954  0.00  0.00    +0.012 A 
ATOM     11  C   UNL     1       1.675   7.374   1.423  0.00  0.00    +0.021 A 
ATOM     12  C   UNL     1       0.889   8.475   1.079  0.00  0.00    +0.012 A 
ATOM     13  C   UNL     1       1.373   9.752   1.276  0.00  0.00    +0.004 A 
ENDBRANCH   2  11
BRANCH   6  14
ATOM     14  N   UNL     1       2.716   4.742   2.642  0.00  0.00    -0.295 N 
ATOM     15  H   UNL     1       3.588   4.701   2.135  0.00  0.00    +0.163 HD
ATOM     16  H   UNL     1       2.721   5.499   3.309  0.00  0.00    +0.163 HD
ENDBRANCH   6  14
ENDBRANCH   1   5
BRANCH   1  17
ATOM     17  C   UNL     1      -0.333   1.457   0.710  0.00  0.00    +0.137 C 
ATOM     18  C   UNL     1      -1.662   1.982   1.258  0.00  0.00    +0.029 C 
BRANCH  17  19
ATOM     19  C   UNL     1      -0.317  -0.048   0.787  0.00  0.00    +0.230 C 
ATOM     20  O   UNL     1       0.190  -0.601   1.740  0.00  0.00    -0.274 OA
ATOM     21  N   UNL     1      -0.867  -0.779  -0.203  0.00  0.00    -0.282 N 
ATOM     22  H   UNL     1      -1.320  -0.337  -0.938  0.00  0.00    +0.155 HD
BRANCH  21  23
ATOM     23  C   UNL     1      -0.782  -2.177  -0.171  0.00  0.00    +0.071 A 
ATOM     24  C   UNL     1       0.406  -2.794   0.202  0.00  0.00    +0.065 A 
ATOM     25  C   UNL     1       0.484  -4.173   0.238  0.00  0.00    +0.042 A 
ATOM     26  C   UNL     1      -0.615  -4.940  -0.108  0.00  0.00    +0.044 A 
ATOM     27  C   UNL     1      -1.798  -4.328  -0.484  0.00  0.00    +0.042 A 
ATOM     28  C   UNL     1      -1.884  -2.949  -0.516  0.00  0.00    +0.065 A 
ATOM     29 CL   UNL     1      -3.368  -2.182  -0.988  0.00  0.00    -0.082 Cl
ATOM     30 CL   UNL     1      -0.510  -6.672  -0.069  0.00  0.00    -0.083 Cl
ATOM     31 CL   UNL     1       1.787  -1.833   0.629  0.00  0.00    -0.082 Cl
ENDBRANCH  21  23
ENDBRANCH  17  19
ENDBRANCH   1  17
TORSDOF 6
