REMARK  Name = ZINC44607965
REMARK  4 active torsions:
REMARK  status: ('A' for Active; 'I' for Inactive)
REMARK    1  A    between atoms: C_1  and  C_2
REMARK    2  A    between atoms: C_12  and  C_14
REMARK    3  A    between atoms: C_12  and  O_21
REMARK    4  A    between atoms: C_26  and  C_33
REMARK                            x       y       z     vdW  Elec       q    Type
REMARK                         _______ _______ _______ _____ _____    ______ ____
ROOT
ATOM      1  C   UNL     1      -0.019   1.520   0.010  0.00  0.00    +0.012 C 
ATOM      2  C   UNL     1       0.002  -0.004   0.002  0.00  0.00    +0.009 C 
ATOM      3  C   UNL     1       0.715  -0.518  -1.259  0.00  0.00    +0.010 C 
ATOM      4  C   UNL     1       0.135   0.090  -2.521  0.00  0.00    +0.032 C 
ATOM      5  C   UNL     1       1.062   1.120  -3.160  0.00  0.00    +0.125 C 
ATOM      6  C   UNL     1       2.414   1.183  -2.455  0.00  0.00    +0.076 C 
ATOM      7  C   UNL     1       3.258   2.312  -3.058  0.00  0.00    +0.184 C 
ATOM      8  C   UNL     1       2.637   2.792  -4.369  0.00  0.00    +0.111 C 
ATOM      9  C   UNL     1       2.191   1.615  -5.232  0.00  0.00    +0.190 C 
ATOM     10  O   UNL     1       1.273   0.779  -4.534  0.00  0.00    -0.344 OA
ATOM     11  O   UNL     1       3.300   3.403  -2.134  0.00  0.00    -0.458 OA
ATOM     12  C   UNL     1       4.160   3.289  -1.092  0.00  0.00    +0.332 C 
ATOM     13  O   UNL     1       5.335   3.133  -1.341  0.00  0.00    -0.246 OA
ATOM     14  C   UNL     1       3.627   3.374   0.269  0.00  0.00    +0.090 C 
ATOM     15  C   UNL     1       4.328   3.221   1.380  0.00  0.00    -0.066 C 
ATOM     16  C   UNL     1       3.633   3.344   2.718  0.00  0.00    +0.035 C 
ATOM     17  C   UNL     1       2.949   2.025   3.075  0.00  0.00    +0.031 C 
ATOM     18  C   UNL     1       1.459   2.256   3.179  0.00  0.00    -0.027 C 
ATOM     19  C   UNL     1       0.605   1.321   2.815  0.00  0.00    -0.005 C 
ATOM     20  C   UNL     1       1.001   0.015   2.318  0.00  0.00    -0.004 C 
ATOM     21  C   UNL     1       0.758  -0.565   1.180  0.00  0.00    -0.024 C 
ATOM     22  C   UNL     1       5.806   2.924   1.372  0.00  0.00    +0.039 C 
ENDROOT
BRANCH   9  23
ATOM     23  C   UNL     1       3.410   0.793  -5.659  0.00  0.00    +0.143 C 
ATOM     24  C   UNL     1       2.935  -0.420  -6.501  0.00  0.00    +0.106 C 
ATOM     25  S   UNL     1       4.351  -0.522  -7.677  0.00  0.00    -0.066 S 
ATOM     26  C   UNL     1       4.952   1.149  -7.496  0.00  0.00    +0.272 C 
ATOM     27  O   UNL     1       5.764   1.721  -8.197  0.00  0.00    -0.263 OA
ATOM     28  N   UNL     1       4.311   1.641  -6.419  0.00  0.00    -0.298 N 
ATOM     29  H   UNL     1       4.454   2.561  -6.150  0.00  0.00    +0.150 HD
ENDBRANCH   9  23
BRANCH   9  30
ATOM     30  O   UNL     1       1.547   2.122  -6.409  0.00  0.00    -0.363 OA
ATOM     31  H   UNL     1       0.766   2.663  -6.228  0.00  0.00    +0.213 HD
ENDBRANCH   9  30
TORSDOF 2
