REMARK  Name = ZINC17444934
REMARK  7 active torsions:
REMARK  status: ('A' for Active; 'I' for Inactive)
REMARK    1  A    between atoms: C_1  and  C_2
REMARK    2  A    between atoms: C_6  and  C_7
REMARK    3  A    between atoms: N_9  and  N_10
REMARK    4  A    between atoms: C_11  and  C_13
REMARK    5  A    between atoms: C_15  and  C_26
REMARK    6  A    between atoms: N_16  and  C_19
REMARK    7  A    between atoms: C_17  and  C_18
REMARK                            x       y       z     vdW  Elec       q    Type
REMARK                         _______ _______ _______ _____ _____    ______ ____
ROOT
ATOM      1  N   UNL     1      -1.788   6.755   0.050  0.00  0.00    -0.230 N 
ATOM      2  C   UNL     1      -1.220   7.977   0.051  0.00  0.00    +0.262 C 
ATOM      3  O   UNL     1      -0.008   8.084   0.041  0.00  0.00    -0.269 OA
ATOM      4  H   UNL     1      -2.754   6.669   0.058  0.00  0.00    +0.173 HD
ENDROOT
BRANCH   2   5
ATOM      5  C   UNL     1      -2.065   9.182   0.064  0.00  0.00    +0.059 A 
ATOM      6  C   UNL     1      -3.531   9.230   0.077  0.00  0.00    +0.036 A 
ATOM      7  C   UNL     1      -3.869  10.532   0.086  0.00  0.00    +0.022 A 
ATOM      8  N   UNL     1      -2.727  11.283   0.080  0.00  0.00    -0.317 N 
ATOM      9  C   UNL     1      -1.642  10.483   0.071  0.00  0.00    +0.033 A 
ATOM     10  C   UNL     1      -0.207  10.943   0.068  0.00  0.00    +0.064 C 
ATOM     11  C   UNL     1      -5.275  11.073   0.101  0.00  0.00    +0.064 C 
BRANCH   8  12
ATOM     12  C   UNL     1      -2.690  12.685   0.086  0.00  0.00    +0.047 A 
ATOM     13  C   UNL     1      -2.169  13.371  -1.003  0.00  0.00    +0.029 A 
ATOM     14  C   UNL     1      -2.138  14.752  -0.997  0.00  0.00    +0.040 A 
ATOM     15  C   UNL     1      -2.616  15.452   0.098  0.00  0.00    +0.124 A 
ATOM     16  C   UNL     1      -3.131  14.769   1.187  0.00  0.00    +0.040 A 
ATOM     17  C   UNL     1      -3.169  13.388   1.183  0.00  0.00    +0.029 A 
ATOM     18  F   UNL     1      -2.579  16.802   0.104  0.00  0.00    -0.205 F 
ENDBRANCH   8  12
ENDBRANCH   2   5
BRANCH   1  21
ATOM     19  C   UNL     1      -1.552   4.386   0.037  0.00  0.00    +0.296 C 
ATOM     20  O   UNL     1      -2.764   4.279   0.048  0.00  0.00    -0.265 OA
ATOM     21  N   UNL     1      -0.983   5.608   0.038  0.00  0.00    -0.228 N 
ATOM     22  H   UNL     1      -0.017   5.694   0.030  0.00  0.00    +0.173 HD
BRANCH  19  28
ATOM     23  C   UNL     1      -2.589   1.436   0.021  0.00  0.00    +0.048 C 
ATOM     24  C   UNL     1      -1.153   1.894   0.017  0.00  0.00    -0.000 A 
ATOM     25  C   UNL     1      -0.013   1.076   0.008  0.00  0.00    +0.045 A 
ATOM     26  C   UNL     1       1.063   1.893   0.002  0.00  0.00    +0.196 A 
ATOM     27  O   UNL     1       0.640   3.164   0.012  0.00  0.00    -0.458 OA
ATOM     28  C   UNL     1      -0.709   3.186   0.025  0.00  0.00    +0.193 A 
ENDBRANCH  19  28
ENDBRANCH   1  21
TORSDOF 4
