REMARK  Name = ZINC39673334
REMARK  6 active torsions:
REMARK  status: ('A' for Active; 'I' for Inactive)
REMARK    1  A    between atoms: C_3  and  C_9
REMARK    2  A    between atoms: C_13  and  C_22
REMARK    3  A    between atoms: N_24  and  C_25
REMARK    4  A    between atoms: C_25  and  C_26
REMARK    5  A    between atoms: C_29  and  O_32
REMARK    6  A    between atoms: O_32  and  C_33
REMARK                            x       y       z     vdW  Elec       q    Type
REMARK                         _______ _______ _______ _____ _____    ______ ____
ROOT
ATOM      1  C   UNL     1       3.460   2.114   0.056  0.00  0.00    +0.249 C 
ATOM      2  O   UNL     1       4.499   1.484   0.067  0.00  0.00    -0.270 OA
ATOM      3  N   UNL     1       3.485   3.454  -0.091  0.00  0.00    -0.296 N 
ATOM      4  C   UNL     1       2.344   4.396  -0.023  0.00  0.00    +0.121 C 
ATOM      5  C   UNL     1       2.899   5.628   0.727  0.00  0.00    +0.100 C 
ATOM      6  C   UNL     1       4.419   5.571   0.503  0.00  0.00    -0.004 C 
ATOM      7  C   UNL     1       4.662   4.317  -0.350  0.00  0.00    +0.115 C 
ATOM      8  C   UNL     1       4.891   6.817  -0.241  0.00  0.00    -0.010 C 
ATOM      9  C   UNL     1       6.413   6.765  -0.400  0.00  0.00    -0.082 C 
ATOM     10  N   UNL     1       7.043   6.693   0.924  0.00  0.00    +0.379 N 
ATOM     11  C   UNL     1       6.657   5.447   1.595  0.00  0.00    -0.082 C 
ATOM     12  C   UNL     1       5.146   5.443   1.839  0.00  0.00    -0.010 C 
ATOM     13  H   UNL     1       8.047   6.721   0.819  0.00  0.00    -0.086 HD
ATOM     14  H   UNL     1       6.744   7.480   1.480  0.00  0.00    -0.086 HD
ENDROOT
BRANCH   1  17
ATOM     15  C   UNL     1      -0.167   1.219  -0.328  0.00  0.00    +0.002 A 
ATOM     16  C   UNL     1       1.036   1.879  -0.467  0.00  0.00    +0.016 A 
ATOM     17  C   UNL     1       2.169   1.411   0.202  0.00  0.00    +0.073 A 
ATOM     18  C   UNL     1       2.075   0.274   1.010  0.00  0.00    +0.154 A 
ATOM     19  C   UNL     1       0.862  -0.378   1.140  0.00  0.00    +0.077 A 
ATOM     20  C   UNL     1      -0.255   0.094   0.473  0.00  0.00    +0.023 A 
ATOM     21 CL   UNL     1       0.741  -1.790   2.143  0.00  0.00    -0.081 Cl
ATOM     22  F   UNL     1       3.166  -0.186   1.660  0.00  0.00    -0.203 F 
ENDBRANCH   1  17
BRANCH   5  23
ATOM     23  C   UNL     1       2.328   6.897   0.148  0.00  0.00    +0.218 C 
ATOM     24  O   UNL     1       2.035   6.948  -1.028  0.00  0.00    -0.275 OA
ATOM     25  N   UNL     1       2.143   7.974   0.936  0.00  0.00    -0.311 N 
ATOM     26  H   UNL     1       2.377   7.933   1.876  0.00  0.00    +0.149 HD
BRANCH  25  27
ATOM     27  C   UNL     1       1.588   9.207   0.373  0.00  0.00    +0.139 C 
BRANCH  27  28
ATOM     28  C   UNL     1       1.483  10.251   1.455  0.00  0.00    -0.030 A 
ATOM     29  C   UNL     1       0.331  10.346   2.213  0.00  0.00    +0.009 A 
ATOM     30  C   UNL     1       0.232  11.302   3.205  0.00  0.00    +0.046 A 
ATOM     31  C   UNL     1       1.290  12.167   3.440  0.00  0.00    +0.127 A 
ATOM     32  C   UNL     1       2.446  12.070   2.678  0.00  0.00    +0.046 A 
ATOM     33  C   UNL     1       2.541  11.109   1.691  0.00  0.00    +0.009 A 
BRANCH  31  34
ATOM     34  O   UNL     1       1.196  13.109   4.415  0.00  0.00    -0.434 OA
BRANCH  34  35
ATOM     35  C   UNL     1       2.324  13.966   4.602  0.00  0.00    +0.541 C 
ATOM     36  F   UNL     1       3.445  13.196   4.931  0.00  0.00    -0.166 F 
ATOM     37  F   UNL     1       2.574  14.672   3.420  0.00  0.00    -0.166 F 
ENDBRANCH  34  35
ENDBRANCH  31  34
ENDBRANCH  27  28
ENDBRANCH  25  27
ENDBRANCH   5  23
TORSDOF 6
