REMARK  Name = ZINC36691949
REMARK  7 active torsions:
REMARK  status: ('A' for Active; 'I' for Inactive)
REMARK    1  A    between atoms: C_1  and  C_2
REMARK    2  A    between atoms: C_2  and  C_4
REMARK    3  A    between atoms: C_2  and  S_17
REMARK    4  A    between atoms: C_4  and  C_6
REMARK    5  A    between atoms: S_17  and  C_18
REMARK    6  A    between atoms: N_28  and  C_29
REMARK    7  A    between atoms: C_29  and  C_30
REMARK                            x       y       z     vdW  Elec       q    Type
REMARK                         _______ _______ _______ _____ _____    ______ ____
ROOT
ATOM      1  C   UNL     1      -2.335  -0.110   1.573  0.00  0.00    +0.173 A 
ATOM      2  N   UNL     1      -1.552   0.576   2.369  0.00  0.00    -0.223 NA
ATOM      3  C   UNL     1      -1.976   1.008   3.580  0.00  0.00    +0.080 A 
ATOM      4  C   UNL     1      -1.142   1.740   4.430  0.00  0.00    +0.048 A 
ATOM      5  C   UNL     1      -1.618   2.159   5.653  0.00  0.00    +0.043 A 
ATOM      6  C   UNL     1      -2.918   1.862   6.051  0.00  0.00    +0.021 A 
ATOM      7  C   UNL     1      -3.751   1.148   5.236  0.00  0.00    +0.017 A 
ATOM      8  C   UNL     1      -3.295   0.711   3.993  0.00  0.00    +0.065 A 
ATOM      9  C   UNL     1      -4.151  -0.059   3.081  0.00  0.00    +0.263 A 
ATOM     10  O   UNL     1      -5.296  -0.344   3.380  0.00  0.00    -0.267 OA
ATOM     11  N   UNL     1      -3.622  -0.434   1.893  0.00  0.00    -0.280 N 
ATOM     12 CL   UNL     1      -0.584   3.067   6.710  0.00  0.00    -0.083 Cl
ENDROOT
BRANCH   1  13
ATOM     13  S   UNL     1      -1.700  -0.632   0.015  0.00  0.00    -0.076 S 
BRANCH  13  15
ATOM     14  C   UNL     1      -0.019   1.526   0.010  0.00  0.00    +0.028 C 
ATOM     15  C   UNL     1       0.002  -0.004   0.002  0.00  0.00    +0.122 C 
BRANCH  15  16
ATOM     16  C   UNL     1       0.707  -0.490  -1.238  0.00  0.00    +0.176 C 
ATOM     17  O   UNL     1       0.066  -0.782  -2.225  0.00  0.00    -0.291 OA
BRANCH  16  18
ATOM     18  C   UNL     1       2.171  -0.610  -1.250  0.00  0.00    +0.020 A 
ATOM     19  C   UNL     1       2.913  -0.280  -0.110  0.00  0.00    +0.015 A 
ATOM     20  C   UNL     1       4.285  -0.393  -0.121  0.00  0.00    +0.048 A 
ATOM     21  C   UNL     1       4.937  -0.835  -1.264  0.00  0.00    +0.142 A 
ATOM     22  C   UNL     1       4.204  -1.167  -2.406  0.00  0.00    +0.076 A 
ATOM     23  C   UNL     1       2.829  -1.062  -2.402  0.00  0.00    +0.038 A 
ATOM     24  N   UNL     1       4.883  -1.612  -3.551  0.00  0.00    -0.280 N 
ATOM     25  C   UNL     1       6.169  -2.010  -3.435  0.00  0.00    +0.255 C 
ATOM     26  O   UNL     1       6.786  -2.370  -4.415  0.00  0.00    -0.272 OA
ATOM     27  C   UNL     1       6.834  -2.004  -2.082  0.00  0.00    +0.325 C 
ATOM     28  O   UNL     1       6.290  -0.951  -1.283  0.00  0.00    -0.481 OA
ATOM     29  H   UNL     1       4.437  -1.633  -4.411  0.00  0.00    +0.155 HD
ENDBRANCH  16  18
ENDBRANCH  15  16
ENDBRANCH  13  15
ENDBRANCH   1  13
BRANCH  11  30
ATOM     30  C   UNL     1      -4.436  -1.199   0.945  0.00  0.00    +0.201 C 
BRANCH  30  31
ATOM     31  C   UNL     1      -4.264  -2.672   1.210  0.00  0.00    +0.125 A 
ATOM     32  C   UNL     1      -5.016  -3.416   2.041  0.00  0.00    +0.046 A 
ATOM     33  C   UNL     1      -4.508  -4.734   1.984  0.00  0.00    +0.041 A 
ATOM     34  C   UNL     1      -3.477  -4.718   1.121  0.00  0.00    +0.195 A 
ATOM     35  O   UNL     1      -3.337  -3.467   0.650  0.00  0.00    -0.466 OA
ENDBRANCH  30  31
ENDBRANCH  11  30
TORSDOF 6
