REMARK  Name = ZINC65715627
REMARK  4 active torsions:
REMARK  status: ('A' for Active; 'I' for Inactive)
REMARK    1  A    between atoms: C_1  and  C_2
REMARK    2  A    between atoms: C_7  and  C_12
REMARK    3  A    between atoms: N_18  and  S_21
REMARK    4  A    between atoms: S_21  and  C_24
REMARK                            x       y       z     vdW  Elec       q    Type
REMARK                         _______ _______ _______ _____ _____    ______ ____
ROOT
ATOM      1  C   UNL     1       0.088  -5.558   2.350  0.00  0.00    +0.263 C 
ATOM      2  O   UNL     1       0.077  -6.610   1.740  0.00  0.00    -0.268 OA
ATOM      3  N   UNL     1       0.196  -5.559   3.694  0.00  0.00    -0.295 N 
ATOM      4  C   UNL     1       0.176  -4.278   4.439  0.00  0.00    +0.109 C 
ATOM      5  C   UNL     1      -1.141  -4.067   5.060  0.00  0.00    +0.036 C 
ATOM      6  C   UNL     1      -1.512  -5.213   6.016  0.00  0.00    +0.111 C 
ATOM      7  N   UNL     1      -1.960  -6.323   5.224  0.00  0.00    -0.175 NA
ATOM      8  C   UNL     1      -1.040  -7.411   4.794  0.00  0.00    +0.128 C 
ATOM      9  C   UNL     1       0.324  -6.801   4.402  0.00  0.00    +0.125 C 
ENDROOT
BRANCH   1  16
ATOM     10  C   UNL     1      -1.027   1.398  -0.041  0.00  0.00    +0.044 C 
ATOM     11  C   UNL     1      -0.632  -0.057  -0.012  0.00  0.00    -0.048 A 
ATOM     12  C   UNL     1      -0.082  -0.642  -1.146  0.00  0.00    +0.004 A 
ATOM     13  C   UNL     1       0.282  -1.957  -1.142  0.00  0.00    +0.010 A 
ATOM     14  C   UNL     1       0.100  -2.727   0.015  0.00  0.00    +0.000 A 
ATOM     15  C   UNL     1       0.367  -4.080   0.334  0.00  0.00    +0.040 A 
ATOM     16  C   UNL     1      -0.016  -4.285   1.622  0.00  0.00    +0.103 A 
ATOM     17  N   UNL     1      -0.520  -3.106   2.137  0.00  0.00    -0.351 N 
ATOM     18  H   UNL     1      -0.861  -2.983   3.037  0.00  0.00    +0.166 HD
ATOM     19  C   UNL     1      -0.457  -2.135   1.165  0.00  0.00    +0.047 A 
ATOM     20  C   UNL     1      -0.815  -0.790   1.138  0.00  0.00    +0.029 A 
ENDBRANCH   1  16
BRANCH   7  21
ATOM     21  S   UNL     1      -3.553  -6.396   4.776  0.00  0.00    +0.061 S 
ATOM     22  O   UNL     1      -3.842  -7.765   4.526  0.00  0.00    -0.153 OA
ATOM     23  O   UNL     1      -4.278  -5.625   5.724  0.00  0.00    -0.153 OA
BRANCH  21  24
ATOM     24  C   UNL     1      -3.697  -5.562   3.231  0.00  0.00    +0.105 A 
ATOM     25  C   UNL     1      -3.958  -4.204   3.200  0.00  0.00    +0.028 A 
ATOM     26  C   UNL     1      -4.072  -3.550   1.988  0.00  0.00    +0.002 A 
ATOM     27  C   UNL     1      -3.924  -4.252   0.807  0.00  0.00    +0.000 A 
ATOM     28  C   UNL     1      -3.663  -5.609   0.837  0.00  0.00    +0.002 A 
ATOM     29  C   UNL     1      -3.545  -6.263   2.049  0.00  0.00    +0.028 A 
ENDBRANCH  21  24
ENDBRANCH   7  21
TORSDOF 3
