REMARK  Name = ZINC53954861
REMARK  9 active torsions:
REMARK  status: ('A' for Active; 'I' for Inactive)
REMARK    1  A    between atoms: C_1  and  C_2
REMARK    2  A    between atoms: C_2  and  N_3
REMARK    3  A    between atoms: N_3  and  C_4
REMARK    4  A    between atoms: C_4  and  C_5
REMARK    5  A    between atoms: N_18  and  C_19
REMARK    6  A    between atoms: C_21  and  C_27
REMARK    7  A    between atoms: C_21  and  C_28
REMARK    8  A    between atoms: C_23  and  C_25
REMARK    9  A    between atoms: C_23  and  C_26
REMARK                            x       y       z     vdW  Elec       q    Type
REMARK                         _______ _______ _______ _____ _____    ______ ____
ROOT
ATOM      1  N   UNL     1       0.827  -0.277   1.440  0.00  0.00    -0.282 N 
ATOM      2  C   UNL     1       2.163  -0.451   1.411  0.00  0.00    +0.303 C 
ATOM      3  O   UNL     1       2.757  -0.772   2.422  0.00  0.00    -0.253 OA
ATOM      4  N   UNL     1       2.841  -0.268   0.260  0.00  0.00    -0.296 N 
ATOM      5  H   UNL     1       2.367  -0.012  -0.547  0.00  0.00    +0.151 HD
ENDROOT
BRANCH   4   6
ATOM      6  C   UNL     1       4.297  -0.458   0.228  0.00  0.00    +0.072 C 
ATOM      7  C   UNL     1       4.982   0.850   0.628  0.00  0.00    +0.009 C 
ATOM      8  C   UNL     1       6.500   0.673   0.588  0.00  0.00    -0.072 C 
ATOM      9  N   UNL     1       6.959   0.174  -0.700  0.00  0.00    +0.386 N 
ATOM     10  C   UNL     1       6.244  -0.951  -1.282  0.00  0.00    -0.072 C 
ATOM     11  C   UNL     1       4.728  -0.809  -1.195  0.00  0.00    +0.009 C 
ATOM     12  C   UNL     1       6.680  -2.281  -0.664  0.00  0.00    -0.010 C 
ATOM     13  C   UNL     1       6.614  -1.008  -2.784  0.00  0.00    -0.010 C 
ATOM     14  C   UNL     1       6.960  -0.211   1.746  0.00  0.00    -0.010 C 
ATOM     15  C   UNL     1       7.130   2.069   0.799  0.00  0.00    -0.010 C 
ATOM     16  H   UNL     1       6.942   0.948  -1.369  0.00  0.00    -0.084 HD
ATOM     17  H   UNL     1       7.946  -0.083  -0.611  0.00  0.00    -0.084 HD
ENDBRANCH   4   6
BRANCH   1  19
ATOM     18  C   UNL     1       0.050   1.636   0.129  0.00  0.00    +0.024 C 
ATOM     19  C   UNL     1       0.111   0.110   0.222  0.00  0.00    +0.106 C 
ENDBRANCH   1  19
BRANCH   1  20
ATOM     20  C   UNL     1       0.090  -0.475   2.691  0.00  0.00    +0.157 C 
BRANCH  20  21
ATOM     21  C   UNL     1      -0.355  -1.936   2.794  0.00  0.00    +0.228 C 
ATOM     22  C   UNL     1      -1.221  -2.125   4.047  0.00  0.00    +0.275 C 
ATOM     23  O   UNL     1      -1.607  -3.502   4.121  0.00  0.00    -0.485 OA
ATOM     24  C   UNL     1      -0.627  -4.424   3.916  0.00  0.00    +0.162 A 
ATOM     25  C   UNL     1      -0.830  -5.735   4.321  0.00  0.00    +0.049 A 
ATOM     26  C   UNL     1       0.154  -6.683   4.116  0.00  0.00    +0.004 A 
ATOM     27  C   UNL     1       1.343  -6.327   3.507  0.00  0.00    +0.004 A 
ATOM     28  C   UNL     1       1.553  -5.023   3.103  0.00  0.00    +0.049 A 
ATOM     29  C   UNL     1       0.570  -4.066   3.307  0.00  0.00    +0.163 A 
ATOM     30  O   UNL     1       0.793  -2.783   2.910  0.00  0.00    -0.480 OA
ENDBRANCH  20  21
ENDBRANCH   1  20
TORSDOF 4
