REMARK  Name = ZINC64788579
REMARK  7 active torsions:
REMARK  status: ('A' for Active; 'I' for Inactive)
REMARK    1  A    between atoms: C_1  and  C_2
REMARK    2  A    between atoms: C_2  and  O_3
REMARK    3  A    between atoms: O_3  and  C_4
REMARK    4  A    between atoms: C_7  and  C_10
REMARK    5  A    between atoms: N_21  and  C_24
REMARK    6  A    between atoms: C_29  and  O_30
REMARK    7  A    between atoms: O_30  and  C_31
REMARK                            x       y       z     vdW  Elec       q    Type
REMARK                         _______ _______ _______ _____ _____    ______ ____
ROOT
ATOM      1  C   UNL     1       1.109  -6.040  -1.847  0.00  0.00    +0.108 C 
ATOM      2  C   UNL     1       0.089  -6.553  -2.892  0.00  0.00    +0.077 C 
ATOM      3  C   UNL     1       0.883  -7.624  -3.618  0.00  0.00    +0.038 C 
ATOM      4  N   UNL     1       2.182  -7.462  -3.303  0.00  0.00    -0.283 N 
ATOM      5  N   UNL     1       2.400  -6.397  -2.479  0.00  0.00    -0.235 NA
ATOM      6  C   UNL     1       0.364  -8.596  -4.454  0.00  0.00    +0.118 C 
ATOM      7  C   UNL     1      -1.081  -8.677  -4.734  0.00  0.00    +0.258 C 
ATOM      8  N   UNL     1      -1.516  -9.651  -5.559  0.00  0.00    -0.235 N 
ATOM      9  C   UNL     1      -0.669 -10.528  -6.116  0.00  0.00    +0.320 C 
ATOM     10  O   UNL     1      -1.125 -11.382  -6.851  0.00  0.00    -0.251 OA
ATOM     11  N   UNL     1       0.655 -10.512  -5.907  0.00  0.00    -0.186 N 
ATOM     12  C   UNL     1       1.231  -9.591  -5.108  0.00  0.00    +0.265 C 
ATOM     13  O   UNL     1       2.435  -9.584  -4.930  0.00  0.00    -0.269 OA
ATOM     14  O   UNL     1      -1.860  -7.888  -4.234  0.00  0.00    -0.270 OA
ATOM     15  H   UNL     1       2.780  -5.616  -2.993  0.00  0.00    +0.145 HD
ATOM     16  H   UNL     1      -2.464  -9.719  -5.754  0.00  0.00    +0.159 HD
ATOM     17  H   UNL     1       2.888  -8.043  -3.627  0.00  0.00    +0.166 HD
ENDROOT
BRANCH   1  21
ATOM     18  C   UNL     1       0.777  -1.810  -1.336  0.00  0.00    +0.121 A 
ATOM     19  C   UNL     1       0.243  -2.669  -0.386  0.00  0.00    +0.046 A 
ATOM     20  C   UNL     1       0.351  -4.036  -0.554  0.00  0.00    +0.009 A 
ATOM     21  C   UNL     1       0.992  -4.548  -1.667  0.00  0.00    -0.028 A 
ATOM     22  C   UNL     1       1.525  -3.694  -2.615  0.00  0.00    +0.009 A 
ATOM     23  C   UNL     1       1.414  -2.327  -2.455  0.00  0.00    +0.046 A 
BRANCH  18  24
ATOM     24  O   UNL     1       0.671  -0.465  -1.174  0.00  0.00    -0.492 OA
BRANCH  24  26
ATOM     25  C   UNL     1      -0.019   1.526   0.010  0.00  0.00    +0.048 C 
ATOM     26  C   UNL     1       0.002  -0.004   0.002  0.00  0.00    +0.225 C 
ENDBRANCH  24  26
ENDBRANCH  18  24
ENDBRANCH   1  21
BRANCH  11  27
ATOM     27  C   UNL     1       1.460 -11.474  -6.536  0.00  0.00    +0.087 A 
ATOM     28  C   UNL     1       2.004 -11.215  -7.785  0.00  0.00    +0.028 A 
ATOM     29  C   UNL     1       2.797 -12.164  -8.403  0.00  0.00    +0.002 A 
ATOM     30  C   UNL     1       3.049 -13.372  -7.779  0.00  0.00    +0.004 A 
ATOM     31  C   UNL     1       2.510 -13.636  -6.534  0.00  0.00    +0.047 A 
ATOM     32  C   UNL     1       1.719 -12.688  -5.905  0.00  0.00    +0.142 A 
BRANCH  32  33
ATOM     33  O   UNL     1       1.193 -12.945  -4.678  0.00  0.00    -0.493 OA
ATOM     34  C   UNL     1       1.502 -14.211  -4.092  0.00  0.00    +0.277 C 
ENDBRANCH  32  33
ENDBRANCH  11  27
TORSDOF 5
