REMARK  Name = ZINC08957761
REMARK  10 active torsions:
REMARK  status: ('A' for Active; 'I' for Inactive)
REMARK    1  A    between atoms: C_1  and  C_2
REMARK    2  A    between atoms: C_4  and  C_36
REMARK    3  A    between atoms: N_10  and  C_11
REMARK    4  A    between atoms: C_11  and  C_13
REMARK    5  A    between atoms: C_16  and  S_19
REMARK    6  A    between atoms: S_19  and  N_22
REMARK    7  A    between atoms: C_24  and  C_31
REMARK    8  A    between atoms: C_27  and  C_30
REMARK    9  A    between atoms: N_32  and  C_33
REMARK   10  A    between atoms: C_33  and  C_34
REMARK                            x       y       z     vdW  Elec       q    Type
REMARK                         _______ _______ _______ _____ _____    ______ ____
ROOT
ATOM      1  C   UNL     1      -1.794  -4.160  -1.171  0.00  0.00    +0.269 C 
ATOM      2  O   UNL     1      -2.659  -3.305  -1.088  0.00  0.00    -0.268 OA
ENDROOT
BRANCH   1  12
ATOM      3  C   UNL     1       1.169   3.557   0.442  0.00  0.00    +0.044 C 
ATOM      4  C   UNL     1       1.180   2.073   0.179  0.00  0.00    -0.049 A 
ATOM      5  C   UNL     1       2.376   1.375   0.150  0.00  0.00    +0.008 A 
ATOM      6  C   UNL     1       2.405   0.022  -0.088  0.00  0.00    -0.026 A 
ATOM      7  C   UNL     1       1.218  -0.694  -0.310  0.00  0.00    +0.061 A 
ATOM      8  C   UNL     1       0.023   0.039  -0.277  0.00  0.00    +0.039 A 
ATOM      9  C   UNL     1      -0.005   1.393  -0.038  0.00  0.00    +0.020 A 
ATOM     10  S   UNL     1      -1.217  -1.190  -0.595  0.00  0.00    -0.052 S 
ATOM     11  C   UNL     1      -0.175  -2.567  -0.756  0.00  0.00    +0.168 A 
ATOM     12  N   UNL     1      -0.509  -3.828  -1.008  0.00  0.00    -0.152 NA
ATOM     13  N   UNL     1       1.066  -2.045  -0.563  0.00  0.00    -0.309 N 
ATOM     14  C   UNL     1       3.727  -0.702  -0.109  0.00  0.00    +0.046 C 
BRANCH  13  15
ATOM     15  C   UNL     1       2.243  -2.915  -0.623  0.00  0.00    +0.212 C 
BRANCH  15  16
ATOM     16  C   UNL     1       2.575  -3.386   0.731  0.00  0.00    -0.084 C 
ATOM     17  C   UNL     1       2.840  -3.762   1.812  0.00  0.00    +0.005 C 
ENDBRANCH  15  16
ENDBRANCH  13  15
ENDBRANCH   1  12
BRANCH   1  18
ATOM     18  C   UNL     1      -2.166  -5.566  -1.451  0.00  0.00    +0.039 A 
ATOM     19  C   UNL     1      -1.177  -6.545  -1.552  0.00  0.00    +0.015 A 
ATOM     20  C   UNL     1      -1.530  -7.854  -1.809  0.00  0.00    +0.029 A 
ATOM     21  C   UNL     1      -2.861  -8.194  -1.977  0.00  0.00    +0.106 A 
ATOM     22  C   UNL     1      -3.845  -7.226  -1.883  0.00  0.00    +0.029 A 
ATOM     23  C   UNL     1      -3.505  -5.915  -1.621  0.00  0.00    +0.015 A 
BRANCH  21  24
ATOM     24  S   UNL     1      -3.303  -9.866  -2.312  0.00  0.00    +0.061 S 
ATOM     25  O   UNL     1      -2.247 -10.674  -1.810  0.00  0.00    -0.153 OA
ATOM     26  O   UNL     1      -4.650 -10.023  -1.887  0.00  0.00    -0.153 OA
BRANCH  24  27
ATOM     27  N   UNL     1      -3.301 -10.053  -3.957  0.00  0.00    -0.172 NA
ATOM     28  C   UNL     1      -4.519  -9.815  -4.748  0.00  0.00    +0.140 C 
ATOM     29  C   UNL     1      -4.162  -8.866  -5.904  0.00  0.00    +0.131 C 
ATOM     30  O   UNL     1      -3.038  -9.394  -6.613  0.00  0.00    -0.371 OA
ATOM     31  C   UNL     1      -1.846  -9.493  -5.830  0.00  0.00    +0.131 C 
ATOM     32  C   UNL     1      -2.083 -10.468  -4.671  0.00  0.00    +0.140 C 
ATOM     33  C   UNL     1      -1.484  -8.115  -5.273  0.00  0.00    +0.039 C 
ATOM     34  C   UNL     1      -5.356  -8.748  -6.854  0.00  0.00    +0.039 C 
ENDBRANCH  24  27
ENDBRANCH  21  24
ENDBRANCH   1  18
TORSDOF 6
