REMARK  Name = ZINC15223715
REMARK  6 active torsions:
REMARK  status: ('A' for Active; 'I' for Inactive)
REMARK    1  A    between atoms: C_1  and  C_2
REMARK    2  A    between atoms: C_5  and  C_28
REMARK    3  A    between atoms: N_6  and  C_7
REMARK    4  A    between atoms: C_10  and  C_14
REMARK    5  A    between atoms: N_16  and  N_17
REMARK    6  A    between atoms: C_18  and  C_19
REMARK                            x       y       z     vdW  Elec       q    Type
REMARK                         _______ _______ _______ _____ _____    ______ ____
ROOT
ATOM      1  C   UNL     1       0.254   0.580   6.622  0.00  0.00    +0.263 C 
ATOM      2  O   UNL     1      -0.593   0.198   7.407  0.00  0.00    -0.268 OA
ATOM      3  N   UNL     1       1.203   1.448   7.024  0.00  0.00    -0.226 N 
ATOM      4  H   UNL     1       1.879   1.752   6.398  0.00  0.00    +0.175 HD
ENDROOT
BRANCH   1   8
ATOM      5  C   UNL     1       0.218  -0.820   2.612  0.00  0.00    +0.048 A 
ATOM      6  C   UNL     1       1.198   0.076   3.026  0.00  0.00    +0.027 A 
ATOM      7  C   UNL     1       1.213   0.532   4.325  0.00  0.00    +0.016 A 
ATOM      8  C   UNL     1       0.241   0.094   5.229  0.00  0.00    +0.057 A 
ATOM      9  C   UNL     1      -0.743  -0.806   4.809  0.00  0.00    +0.055 A 
ATOM     10  C   UNL     1      -0.754  -1.254   3.505  0.00  0.00    +0.047 A 
ATOM     11 CL   UNL     1      -1.953  -1.355   5.927  0.00  0.00    -0.083 Cl
BRANCH   5  17
ATOM     12  C   UNL     1      -0.271   0.973   0.172  0.00  0.00    +0.064 C 
ATOM     13  C   UNL     1      -0.007  -0.511   0.182  0.00  0.00    +0.021 A 
ATOM     14  C   UNL     1       0.065  -1.309  -0.903  0.00  0.00    +0.023 A 
ATOM     15  C   UNL     1       0.327  -2.618  -0.449  0.00  0.00    +0.023 A 
ATOM     16  C   UNL     1       0.406  -2.572   0.896  0.00  0.00    +0.021 A 
ATOM     17  N   UNL     1       0.207  -1.279   1.291  0.00  0.00    -0.318 N 
ATOM     18  C   UNL     1       0.672  -3.743   1.806  0.00  0.00    +0.064 C 
ENDBRANCH   5  17
ENDBRANCH   1   8
BRANCH   3  19
ATOM     19  N   UNL     1       1.215   1.909   8.347  0.00  0.00    -0.311 N 
ATOM     20  C   UNL     1       2.160   2.772   8.748  0.00  0.00    +0.111 C 
ATOM     21  H   UNL     1       0.540   1.604   8.973  0.00  0.00    +0.184 HD
BRANCH  20  22
ATOM     22  C   UNL     1       2.124   3.297  10.042  0.00  0.00    +0.041 A 
ATOM     23  C   UNL     1       3.171   4.117  10.518  0.00  0.00    +0.028 A 
ATOM     24  C   UNL     1       3.118   4.619  11.781  0.00  0.00    +0.020 A 
ATOM     25  C   UNL     1       2.047   4.343  12.629  0.00  0.00    +0.039 A 
ATOM     26  C   UNL     1       1.007   3.559  12.231  0.00  0.00    +0.089 A 
ATOM     27  C   UNL     1       0.994   3.013  10.935  0.00  0.00    +0.206 A 
ATOM     28  O   UNL     1       0.064   2.311  10.562  0.00  0.00    -0.286 OA
ATOM     29 CL   UNL     1      -0.306   3.241  13.321  0.00  0.00    -0.080 Cl
ATOM     30 BR   UNL     1       4.528   5.715  12.400  0.00  0.00    -0.050 Br
ENDBRANCH  20  22
ENDBRANCH   3  19
TORSDOF 4
