REMARK  Name = ZINC02024574
REMARK  2 active torsions:
REMARK  status: ('A' for Active; 'I' for Inactive)
REMARK    1  A    between atoms: C_4  and  C_7
REMARK    2  A    between atoms: C_7  and  N_8
REMARK                            x       y       z     vdW  Elec       q    Type
REMARK                         _______ _______ _______ _____ _____    ______ ____
ROOT
ATOM      1  N   UNL     1       4.152  -0.952   1.338  0.00  0.00    -0.213 N 
ATOM      2  C   UNL     1       4.837  -0.006   2.018  0.00  0.00    +0.270 C 
ATOM      3  O   UNL     1       5.085   1.064   1.505  0.00  0.00    -0.270 OA
ATOM      4  C   UNL     1       5.287  -0.303   3.428  0.00  0.00    +0.327 C 
ATOM      5  O   UNL     1       4.358  -1.205   4.035  0.00  0.00    -0.468 OA
ATOM      6  C   UNL     1       3.982  -2.272   3.310  0.00  0.00    +0.208 C 
ATOM      7  C   UNL     1       3.704  -3.497   3.953  0.00  0.00    +0.080 C 
ATOM      8  C   UNL     1       3.315  -4.621   3.204  0.00  0.00    +0.017 C 
ATOM      9  C   UNL     1       3.049  -5.800   3.833  0.00  0.00    +0.001 C 
ATOM     10  C   UNL     1       3.156  -5.909   5.216  0.00  0.00    +0.004 C 
ATOM     11  C   UNL     1       3.530  -4.840   5.976  0.00  0.00    +0.051 C 
ATOM     12  C   UNL     1       3.818  -3.612   5.363  0.00  0.00    +0.191 C 
ATOM     13  O   UNL     1       4.160  -2.648   6.037  0.00  0.00    -0.287 OA
ATOM     14  N   UNL     1       3.865  -2.171   1.972  0.00  0.00    -0.231 N 
ATOM     15  H   UNL     1       3.586  -2.939   1.449  0.00  0.00    +0.173 HD
ENDROOT
BRANCH   1  16
ATOM     16  C   UNL     1       3.711  -0.707  -0.038  0.00  0.00    +0.165 C 
BRANCH  16  20
ATOM     17  C   UNL     1      -0.017   1.378   0.010  0.00  0.00    +0.000 A 
ATOM     18  C   UNL     1       1.171   2.086   0.002  0.00  0.00    +0.000 A 
ATOM     19  C   UNL     1       2.377   1.411  -0.013  0.00  0.00    +0.005 A 
ATOM     20  C   UNL     1       2.396   0.029  -0.020  0.00  0.00    -0.028 A 
ATOM     21  C   UNL     1       1.208  -0.679  -0.012  0.00  0.00    +0.005 A 
ATOM     22  C   UNL     1       0.002  -0.004   0.002  0.00  0.00    +0.000 A 
ENDBRANCH  16  20
ENDBRANCH   1  16
TORSDOF 2
