REMARK  Name = ZINC12718303
REMARK  8 active torsions:
REMARK  status: ('A' for Active; 'I' for Inactive)
REMARK    1  A    between atoms: C_1  and  C_2
REMARK    2  A    between atoms: C_4  and  C_10
REMARK    3  A    between atoms: C_7  and  O_8
REMARK    4  A    between atoms: O_8  and  C_9
REMARK    5  A    between atoms: C_10  and  N_58
REMARK    6  A    between atoms: C_16  and  C_18
REMARK    7  A    between atoms: C_18  and  C_19
REMARK    8  A    between atoms: N_21  and  C_22
REMARK                            x       y       z     vdW  Elec       q    Type
REMARK                         _______ _______ _______ _____ _____    ______ ____
ROOT
ATOM      1  C   UNL     1      -2.370   1.791  -7.364  0.00  0.00    -0.058 C 
ATOM      2  C   UNL     1      -1.549   1.455  -8.610  0.00  0.00    +0.085 C 
ATOM      3  N   UNL     1      -0.642   0.346  -8.329  0.00  0.00    -0.318 N 
ATOM      4  C   UNL     1      -0.311  -0.025  -7.087  0.00  0.00    +0.200 C 
ATOM      5  O   UNL     1       0.474  -0.938  -6.944  0.00  0.00    -0.278 OA
ATOM      6  C   UNL     1      -0.872   0.641  -5.863  0.00  0.00    +0.028 C 
ATOM      7  H   UNL     1      -0.262  -0.143  -9.075  0.00  0.00    +0.149 HD
ATOM      8  N   UNL     1      -1.435   1.954  -6.232  0.00  0.00    +0.391 N 
ATOM      9  H   UNL     1      -0.672   2.579  -6.514  0.00  0.00    -0.080 HD
ENDROOT
BRANCH   8  10
ATOM     10  C   UNL     1      -2.140   2.546  -5.072  0.00  0.00    -0.042 C 
BRANCH  10  14
ATOM     11  C   UNL     1      -5.057   6.186  -6.885  0.00  0.00    +0.047 C 
ATOM     12  C   UNL     1      -3.781   5.749  -6.212  0.00  0.00    -0.009 A 
ATOM     13  C   UNL     1      -3.555   4.409  -5.961  0.00  0.00    +0.008 A 
ATOM     14  C   UNL     1      -2.384   4.008  -5.345  0.00  0.00    -0.063 A 
ATOM     15  C   UNL     1      -1.439   4.947  -4.973  0.00  0.00    +0.005 A 
ATOM     16  C   UNL     1      -1.658   6.287  -5.227  0.00  0.00    +0.046 A 
ATOM     17  C   UNL     1      -2.832   6.692  -5.845  0.00  0.00    +0.123 A 
BRANCH  17  18
ATOM     18  O   UNL     1      -3.051   8.010  -6.091  0.00  0.00    -0.495 OA
ATOM     19  C   UNL     1      -2.031   8.925  -5.686  0.00  0.00    +0.277 C 
ENDBRANCH  17  18
ENDBRANCH  10  14
ENDBRANCH   8  10
BRANCH   6  20
ATOM     20  C   UNL     1       0.248   0.850  -4.841  0.00  0.00    +0.089 C 
BRANCH  20  21
ATOM     21  C   UNL     1       1.291   1.770  -5.420  0.00  0.00    +0.212 C 
ATOM     22  O   UNL     1       1.107   2.295  -6.498  0.00  0.00    -0.276 OA
ATOM     23  N   UNL     1       2.430   2.010  -4.740  0.00  0.00    -0.312 N 
ATOM     24  H   UNL     1       2.578   1.591  -3.878  0.00  0.00    +0.149 HD
BRANCH  23  25
ATOM     25  C   UNL     1       3.444   2.905  -5.303  0.00  0.00    +0.073 C 
ATOM     26  C   UNL     1       4.285   3.499  -4.171  0.00  0.00    +0.022 C 
ATOM     27  C   UNL     1       5.345   4.433  -4.759  0.00  0.00    +0.002 C 
ATOM     28  C   UNL     1       6.250   3.645  -5.707  0.00  0.00    +0.000 C 
ATOM     29  C   UNL     1       5.410   3.050  -6.839  0.00  0.00    +0.002 C 
ATOM     30  C   UNL     1       4.350   2.116  -6.251  0.00  0.00    +0.022 C 
ENDBRANCH  23  25
ENDBRANCH  20  21
ENDBRANCH   6  20
TORSDOF 6
