REMARK  Name = ZINC63589103
REMARK  9 active torsions:
REMARK  status: ('A' for Active; 'I' for Inactive)
REMARK    1  A    between atoms: C_1  and  C_2
REMARK    2  A    between atoms: C_5  and  C_8
REMARK    3  A    between atoms: C_8  and  N_10
REMARK    4  A    between atoms: N_12  and  C_13
REMARK    5  A    between atoms: C_18  and  O_19
REMARK    6  A    between atoms: O_19  and  C_20
REMARK    7  A    between atoms: N_22  and  C_23
REMARK    8  A    between atoms: C_23  and  C_24
REMARK    9  A    between atoms: C_24  and  C_25
REMARK                            x       y       z     vdW  Elec       q    Type
REMARK                         _______ _______ _______ _____ _____    ______ ____
ROOT
ATOM      1  N   UNL     1      -0.583  -5.283   1.200  0.00  0.00    -0.143 NA
ATOM      2  C   UNL     1       0.402  -6.153   1.035  0.00  0.00    +0.194 C 
ATOM      3  N   UNL     1       0.622  -6.709  -0.192  0.00  0.00    -0.325 N 
ATOM      4  N   UNL     1       1.196  -6.494   2.091  0.00  0.00    -0.357 N 
ATOM      5  H   UNL     1       0.817  -7.656  -0.267  0.00  0.00    +0.169 HD
ATOM      6  H   UNL     1       0.998  -6.152   2.977  0.00  0.00    +0.162 HD
ENDROOT
BRANCH   3   7
ATOM      7  C   UNL     1       0.567  -5.911  -1.342  0.00  0.00    +0.085 A 
ATOM      8  C   UNL     1       0.464  -4.533  -1.228  0.00  0.00    +0.049 A 
ATOM      9  C   UNL     1       0.410  -3.748  -2.365  0.00  0.00    +0.043 A 
ATOM     10  C   UNL     1       0.459  -4.334  -3.618  0.00  0.00    +0.024 A 
ATOM     11  C   UNL     1       0.562  -5.708  -3.738  0.00  0.00    +0.049 A 
ATOM     12  C   UNL     1       0.622  -6.500  -2.603  0.00  0.00    +0.143 A 
ATOM     13 CL   UNL     1       0.280  -2.022  -2.221  0.00  0.00    -0.083 Cl
BRANCH  12  14
ATOM     14  O   UNL     1       0.729  -7.851  -2.721  0.00  0.00    -0.493 OA
ATOM     15  C   UNL     1       0.780  -8.385  -4.045  0.00  0.00    +0.277 C 
ENDBRANCH  12  14
ENDBRANCH   3   7
BRANCH   1  16
ATOM     16  C   UNL     1      -1.591  -5.237   0.320  0.00  0.00    +0.270 C 
ATOM     17  O   UNL     1      -1.674  -6.080  -0.555  0.00  0.00    -0.268 OA
BRANCH  16  22
ATOM     18  C   UNL     1      -5.534  -1.058   0.674  0.00  0.00    +0.044 C 
ATOM     19  C   UNL     1      -4.502  -2.152   0.581  0.00  0.00    -0.050 A 
ATOM     20  C   UNL     1      -4.537  -3.044  -0.476  0.00  0.00    +0.004 A 
ATOM     21  C   UNL     1      -3.594  -4.048  -0.566  0.00  0.00    +0.013 A 
ATOM     22  C   UNL     1      -2.606  -4.162   0.411  0.00  0.00    +0.039 A 
ATOM     23  C   UNL     1      -2.576  -3.260   1.474  0.00  0.00    +0.013 A 
ATOM     24  C   UNL     1      -3.521  -2.257   1.550  0.00  0.00    +0.004 A 
ENDBRANCH  16  22
ENDBRANCH   1  16
BRANCH   4  25
ATOM     25  C   UNL     1       2.349  -7.375   1.886  0.00  0.00    +0.120 C 
BRANCH  25  26
ATOM     26  C   UNL     1       2.999  -7.686   3.236  0.00  0.00    +0.054 C 
BRANCH  26  27
ATOM     27  C   UNL     1       4.252  -8.493   3.015  0.00  0.00    -0.040 C 
ATOM     28  C   UNL     1       5.518  -8.025   2.936  0.00  0.00    -0.001 A 
ATOM     29  C   UNL     1       6.086  -6.674   3.026  0.00  0.00    +0.010 A 
ATOM     30  C   UNL     1       7.423  -6.516   2.904  0.00  0.00    +0.001 A 
ATOM     31  C   UNL     1       8.279  -7.606   2.693  0.00  0.00    +0.002 A 
ATOM     32  C   UNL     1       7.832  -8.876   2.600  0.00  0.00    +0.026 A 
ATOM     33  C   UNL     1       6.443  -9.159   2.714  0.00  0.00    +0.043 A 
ATOM     34  N   UNL     1       5.774 -10.286   2.659  0.00  0.00    -0.380 N 
ATOM     35  C   UNL     1       4.349  -9.993   2.845  0.00  0.00    +0.144 C 
ATOM     36  H   UNL     1       6.158 -11.166   2.521  0.00  0.00    +0.160 HD
ENDBRANCH  26  27
ENDBRANCH  25  26
ENDBRANCH   4  25
TORSDOF 7
