REMARK  Name = ZINC04299577
REMARK  5 active torsions:
REMARK  status: ('A' for Active; 'I' for Inactive)
REMARK    1  A    between atoms: C_4  and  C_7
REMARK    2  A    between atoms: C_12  and  N_16
REMARK    3  A    between atoms: C_19  and  N_56
REMARK    4  A    between atoms: C_22  and  N_56
REMARK    5  A    between atoms: C_28  and  O_30
REMARK                            x       y       z     vdW  Elec       q    Type
REMARK                         _______ _______ _______ _____ _____    ______ ____
ROOT
ATOM      1  N   UNL     1       0.996   3.413  -0.408  0.00  0.00    -0.315 N 
ATOM      2  C   UNL     1       1.587   3.940  -1.645  0.00  0.00    +0.105 C 
ATOM      3  C   UNL     1       1.630   5.468  -1.579  0.00  0.00    +0.003 C 
ATOM      4  C   UNL     1       0.209   6.008  -1.400  0.00  0.00    -0.068 C 
ATOM      5  C   UNL     1      -0.401   5.406  -0.131  0.00  0.00    +0.003 C 
ATOM      6  C   UNL     1      -0.386   3.879  -0.239  0.00  0.00    +0.105 C 
ENDROOT
BRANCH   1  12
ATOM      7  C   UNL     1       2.053   1.909   2.028  0.00  0.00    +0.002 A 
ATOM      8  C   UNL     1       2.479   1.055   2.989  0.00  0.00    +0.056 A 
ATOM      9  S   UNL     1       2.239  -0.551   2.254  0.00  0.00    -0.076 S 
ATOM     10  C   UNL     1       1.577  -0.048   0.688  0.00  0.00    +0.114 A 
ATOM     11  C   UNL     1       1.557   1.359   0.770  0.00  0.00    +0.055 A 
ATOM     12  C   UNL     1       1.060   2.031  -0.378  0.00  0.00    +0.133 A 
ATOM     13  N   UNL     1       0.659   1.319  -1.419  0.00  0.00    -0.220 NA
ATOM     14  C   UNL     1       0.705  -0.001  -1.428  0.00  0.00    +0.224 A 
ATOM     15  N   UNL     1       1.157  -0.679  -0.391  0.00  0.00    -0.228 NA
BRANCH   7  19
ATOM     16  C   UNL     1       2.155   6.110   2.666  0.00  0.00    +0.000 A 
ATOM     17  C   UNL     1       1.454   5.297   3.540  0.00  0.00    +0.001 A 
ATOM     18  C   UNL     1       1.418   3.933   3.338  0.00  0.00    +0.008 A 
ATOM     19  C   UNL     1       2.088   3.373   2.251  0.00  0.00    -0.017 A 
ATOM     20  C   UNL     1       2.796   4.197   1.377  0.00  0.00    +0.008 A 
ATOM     21  C   UNL     1       2.821   5.561   1.585  0.00  0.00    +0.001 A 
ENDBRANCH   7  19
ENDBRANCH   1  12
BRANCH   4  22
ATOM     22  N   UNL     1       0.251   7.476  -1.269  0.00  0.00    +0.384 N 
ATOM     23  H   UNL     1       1.103   7.747  -0.765  0.00  0.00    -0.085 HD
ATOM     24  H   UNL     1      -0.572   7.793  -0.743  0.00  0.00    -0.085 HD
BRANCH  22  25
ATOM     25  C   UNL     1       0.250   8.110  -2.601  0.00  0.00    -0.042 C 
ATOM     26  C   UNL     1      -1.190   8.258  -3.095  0.00  0.00    -0.013 C 
ATOM     27  C   UNL     1      -1.190   8.924  -4.473  0.00  0.00    -0.001 C 
ATOM     28  C   UNL     1      -0.540  10.305  -4.372  0.00  0.00    +0.002 C 
ATOM     29  C   UNL     1       0.900  10.157  -3.877  0.00  0.00    +0.030 C 
ATOM     30  C   UNL     1       0.900   9.492  -2.500  0.00  0.00    +0.101 C 
BRANCH  30  31
ATOM     31  O   UNL     1       2.245   9.353  -2.037  0.00  0.00    -0.393 OA
ATOM     32  H   UNL     1       2.719  10.192  -1.949  0.00  0.00    +0.210 HD
ENDBRANCH  30  31
ENDBRANCH  22  25
ENDBRANCH   4  22
TORSDOF 5
