REMARK  Name = ZINC31814892
REMARK  4 active torsions:
REMARK  status: ('A' for Active; 'I' for Inactive)
REMARK    1  A    between atoms: C_1  and  S_2
REMARK    2  A    between atoms: S_2  and  C_3
REMARK    3  A    between atoms: N_19  and  C_22
REMARK    4  A    between atoms: C_22  and  C_23
REMARK                            x       y       z     vdW  Elec       q    Type
REMARK                         _______ _______ _______ _____ _____    ______ ____
ROOT
ATOM      1  C   UNL     1       2.732   5.835  -1.028  0.00  0.00    +0.191 A 
ATOM      2  N   UNL     1       1.429   5.600  -1.091  0.00  0.00    -0.206 NA
ATOM      3  C   UNL     1       0.873   4.426  -0.807  0.00  0.00    +0.134 A 
ATOM      4  C   UNL     1       1.769   3.388  -0.417  0.00  0.00    +0.051 A 
ATOM      5  C   UNL     1       1.424   2.022  -0.058  0.00  0.00    -0.025 A 
ATOM      6  C   UNL     1       2.448   1.206   0.279  0.00  0.00    -0.004 A 
ATOM      7  S   UNL     1       3.909   2.206   0.138  0.00  0.00    -0.073 S 
ATOM      8  C   UNL     1       3.148   3.713  -0.373  0.00  0.00    +0.115 A 
ATOM      9  N   UNL     1       3.622   4.907  -0.670  0.00  0.00    -0.215 NA
ATOM     10  C   UNL     1       2.366  -0.233   0.685  0.00  0.00    +0.043 C 
ATOM     11  C   UNL     1       0.905  -0.561   1.022  0.00  0.00    +0.005 C 
ATOM     12  C   UNL     1       0.011  -0.023  -0.098  0.00  0.00    +0.005 C 
ATOM     13  C   UNL     1      -0.012   1.505  -0.054  0.00  0.00    +0.037 C 
ATOM     14  N   UNL     1      -0.493   4.223  -0.886  0.00  0.00    -0.318 N 
ATOM     15  C   UNL     1      -0.984   4.466  -2.249  0.00  0.00    +0.088 C 
ATOM     16  C   UNL     1      -2.481   4.155  -2.313  0.00  0.00    -0.059 C 
ATOM     17  N   UNL     1      -3.195   4.997  -1.342  0.00  0.00    +0.387 N 
ATOM     18  C   UNL     1      -2.704   4.754   0.022  0.00  0.00    -0.059 C 
ATOM     19  C   UNL     1      -1.207   5.065   0.085  0.00  0.00    +0.088 C 
ATOM     20  H   UNL     1      -2.995   6.049  -1.593  0.00  0.00    -0.081 HD
ENDROOT
BRANCH   1  22
ATOM     21  C   UNL     1       5.093   7.209  -1.187  0.00  0.00    +0.093 C 
ATOM     22  S   UNL     1       3.316   7.447  -1.435  0.00  0.00    -0.089 S 
ENDBRANCH   1  22
BRANCH  17  23
ATOM     23  C   UNL     1      -4.646   4.782  -1.426  0.00  0.00    +0.018 C 
BRANCH  23  24
ATOM     24  C   UNL     1      -5.150   5.271  -2.759  0.00  0.00    +0.194 C 
ATOM     25  O   UNL     1      -4.377   5.752  -3.560  0.00  0.00    -0.278 OA
ATOM     26  N   UNL     1      -6.460   5.175  -3.060  0.00  0.00    -0.331 N 
ATOM     27  H   UNL     1      -6.828   5.533  -4.033  0.00  0.00    +0.145 HD
ATOM     28  H   UNL     1      -7.161   4.739  -2.333  0.00  0.00    +0.145 HD
ENDBRANCH  23  24
ENDBRANCH  17  23
TORSDOF 3
