REMARK  Name = ZINC08723690
REMARK  6 active torsions:
REMARK  status: ('A' for Active; 'I' for Inactive)
REMARK    1  A    between atoms: N_7  and  C_15
REMARK    2  A    between atoms: C_9  and  C_12
REMARK    3  A    between atoms: C_15  and  C_16
REMARK    4  A    between atoms: N_18  and  C_19
REMARK    5  A    between atoms: C_19  and  C_21
REMARK    6  A    between atoms: C_19  and  C_28
REMARK                            x       y       z     vdW  Elec       q    Type
REMARK                         _______ _______ _______ _____ _____    ______ ____
ROOT
ATOM      1  C   UNL     1      -1.002  -1.780  -1.353  0.00  0.00    +0.231 C 
ATOM      2  O   UNL     1       0.031  -2.401  -1.226  0.00  0.00    -0.274 OA
ATOM      3  N   UNL     1      -1.226  -0.684  -0.600  0.00  0.00    -0.303 N 
ATOM      4  H   UNL     1      -2.053  -0.186  -0.702  0.00  0.00    +0.150 HD
ENDROOT
BRANCH   1   5
ATOM      5  C   UNL     1      -2.036  -2.232  -2.351  0.00  0.00    +0.201 C 
BRANCH   5  12
ATOM      6  C   UNL     1      -3.429  -2.985  -6.082  0.00  0.00    +0.002 A 
ATOM      7  C   UNL     1      -3.797  -4.275  -6.415  0.00  0.00    +0.004 A 
ATOM      8  C   UNL     1      -3.450  -5.328  -5.590  0.00  0.00    +0.047 A 
ATOM      9  C   UNL     1      -2.731  -5.095  -4.426  0.00  0.00    +0.143 A 
ATOM     10  C   UNL     1      -2.357  -3.799  -4.091  0.00  0.00    +0.073 A 
ATOM     11  C   UNL     1      -2.713  -2.745  -4.927  0.00  0.00    +0.027 A 
ATOM     12  N   UNL     1      -1.626  -3.517  -2.932  0.00  0.00    -0.314 N 
ATOM     13  C   UNL     1      -1.722  -4.596  -1.942  0.00  0.00    +0.160 C 
ATOM     14  C   UNL     1      -1.405  -5.927  -2.637  0.00  0.00    +0.275 C 
ATOM     15  O   UNL     1      -2.408  -6.153  -3.633  0.00  0.00    -0.476 OA
BRANCH  14  16
ATOM     16  C   UNL     1      -1.427  -7.046  -1.628  0.00  0.00    +0.253 C 
ATOM     17  O   UNL     1      -2.263  -7.921  -1.710  0.00  0.00    -0.272 OA
ATOM     18  N   UNL     1      -0.517  -7.076  -0.634  0.00  0.00    -0.326 N 
ATOM     19  H   UNL     1       0.152  -6.377  -0.569  0.00  0.00    +0.145 HD
ATOM     20  H   UNL     1      -0.531  -7.796   0.015  0.00  0.00    +0.145 HD
ENDBRANCH  14  16
ENDBRANCH   5  12
ENDBRANCH   1   5
BRANCH   3  21
ATOM     21  C   UNL     1      -0.221  -0.244   0.371  0.00  0.00    +0.140 C 
BRANCH  21  22
ATOM     22  C   UNL     1      -0.376   1.234   0.620  0.00  0.00    -0.022 A 
ATOM     23  C   UNL     1      -1.638   1.790   0.712  0.00  0.00    +0.008 A 
ATOM     24  C   UNL     1      -1.781   3.145   0.945  0.00  0.00    +0.038 A 
ATOM     25  C   UNL     1      -0.660   3.947   1.076  0.00  0.00    +0.123 A 
ATOM     26  C   UNL     1       0.604   3.389   0.979  0.00  0.00    +0.038 A 
ATOM     27  C   UNL     1       0.745   2.033   0.751  0.00  0.00    +0.008 A 
ATOM     28  F   UNL     1      -0.799   5.272   1.299  0.00  0.00    -0.205 F 
ENDBRANCH  21  22
BRANCH  21  29
ATOM     29  C   UNL     1      -0.410  -0.994   1.664  0.00  0.00    +0.014 A 
ATOM     30  C   UNL     1       0.527  -1.503   2.501  0.00  0.00    +0.013 A 
ATOM     31  C   UNL     1       0.117  -2.160   3.646  0.00  0.00    +0.008 A 
ATOM     32  C   UNL     1      -1.210  -2.277   3.898  0.00  0.00    +0.045 A 
ATOM     33  S   UNL     1      -1.927  -1.436   2.496  0.00  0.00    -0.099 S 
ENDBRANCH  21  29
ENDBRANCH   3  21
TORSDOF 6
