REMARK  Name = ZINC35642855
REMARK  9 active torsions:
REMARK  status: ('A' for Active; 'I' for Inactive)
REMARK    1  A    between atoms: C_1  and  C_2
REMARK    2  A    between atoms: C_2  and  O_3
REMARK    3  A    between atoms: O_3  and  C_4
REMARK    4  A    between atoms: C_4  and  C_6
REMARK    5  A    between atoms: C_7  and  C_22
REMARK    6  A    between atoms: N_8  and  C_21
REMARK    7  A    between atoms: C_12  and  C_14
REMARK    8  A    between atoms: C_22  and  N_23
REMARK    9  A    between atoms: C_29  and  C_31
REMARK                            x       y       z     vdW  Elec       q    Type
REMARK                         _______ _______ _______ _____ _____    ______ ____
ROOT
ATOM      1  C   UNL     1       1.021  -2.067  -1.705  0.00  0.00    +0.080 C 
ATOM      2  C   UNL     1       1.394  -3.347  -1.921  0.00  0.00    +0.041 C 
ATOM      3  N   UNL     1       2.188  -3.680  -2.981  0.00  0.00    -0.260 N 
ATOM      4  C   UNL     1       2.651  -2.792  -3.870  0.00  0.00    +0.307 C 
ATOM      5  O   UNL     1       3.353  -3.183  -4.782  0.00  0.00    -0.252 OA
ATOM      6  N   UNL     1       2.365  -1.477  -3.786  0.00  0.00    -0.288 N 
ATOM      7  C   UNL     1       1.508  -1.016  -2.681  0.00  0.00    +0.144 C 
ATOM      8  C   UNL     1       2.555  -5.087  -3.155  0.00  0.00    +0.139 C 
ATOM      9  H   UNL     1       2.711  -0.851  -4.441  0.00  0.00    +0.151 HD
ENDROOT
BRANCH   7  10
ATOM     10  C   UNL     1       2.281   0.018  -1.902  0.00  0.00    -0.022 A 
ATOM     11  C   UNL     1       3.593  -0.226  -1.542  0.00  0.00    +0.007 A 
ATOM     12  C   UNL     1       4.301   0.722  -0.828  0.00  0.00    +0.020 A 
ATOM     13  C   UNL     1       3.697   1.915  -0.474  0.00  0.00    +0.041 A 
ATOM     14  C   UNL     1       2.384   2.159  -0.835  0.00  0.00    +0.020 A 
ATOM     15  C   UNL     1       1.678   1.213  -1.554  0.00  0.00    +0.007 A 
ATOM     16 CL   UNL     1       4.586   3.106   0.423  0.00  0.00    -0.084 Cl
ENDBRANCH   7  10
BRANCH   1  17
ATOM     17  C   UNL     1       0.198  -1.721  -0.608  0.00  0.00    +0.339 C 
ATOM     18  O   UNL     1      -0.977  -1.461  -0.787  0.00  0.00    -0.245 OA
BRANCH  17  19
ATOM     19  O   UNL     1       0.716  -1.679   0.638  0.00  0.00    -0.462 OA
BRANCH  19  21
ATOM     20  C   UNL     1       0.589  -1.328   3.025  0.00  0.00    +0.048 C 
ATOM     21  C   UNL     1      -0.172  -1.322   1.698  0.00  0.00    +0.229 C 
ENDBRANCH  19  21
ENDBRANCH  17  19
ENDBRANCH   1  17
BRANCH   2  22
ATOM     22  C   UNL     1       0.927  -4.425  -0.978  0.00  0.00    +0.136 C 
BRANCH  22  23
ATOM     23  N   UNL     1       0.047  -5.356  -1.696  0.00  0.00    -0.294 NA
ATOM     24  C   UNL     1      -1.193  -4.690  -2.117  0.00  0.00    +0.104 C 
ATOM     25  C   UNL     1      -1.998  -5.637  -3.013  0.00  0.00    +0.123 C 
ATOM     26  N   UNL     1      -2.188  -6.908  -2.299  0.00  0.00    -0.295 N 
ATOM     27  C   UNL     1      -1.004  -7.568  -1.727  0.00  0.00    +0.123 C 
ATOM     28  C   UNL     1      -0.238  -6.545  -0.881  0.00  0.00    +0.104 C 
ATOM     29  C   UNL     1      -3.413  -7.455  -2.172  0.00  0.00    +0.247 C 
ATOM     30  O   UNL     1      -3.567  -8.453  -1.496  0.00  0.00    -0.270 OA
BRANCH  29  31
ATOM     31  C   UNL     1      -4.571  -6.839  -2.855  0.00  0.00    +0.037 A 
ATOM     32  C   UNL     1      -4.402  -6.203  -4.086  0.00  0.00    +0.013 A 
ATOM     33  C   UNL     1      -5.486  -5.631  -4.718  0.00  0.00    +0.001 A 
ATOM     34  C   UNL     1      -6.740  -5.687  -4.135  0.00  0.00    +0.000 A 
ATOM     35  C   UNL     1      -6.914  -6.316  -2.915  0.00  0.00    +0.001 A 
ATOM     36  C   UNL     1      -5.839  -6.897  -2.275  0.00  0.00    +0.013 A 
ENDBRANCH  29  31
ENDBRANCH  22  23
ENDBRANCH   2  22
TORSDOF 7
