REMARK  Name = ZINC00532372
REMARK  5 active torsions:
REMARK  status: ('A' for Active; 'I' for Inactive)
REMARK    1  A    between atoms: C_4  and  C_7
REMARK    2  A    between atoms: C_10  and  S_13
REMARK    3  A    between atoms: N_11  and  N_12
REMARK    4  A    between atoms: S_13  and  C_14
REMARK    5  A    between atoms: C_14  and  C_15
REMARK                            x       y       z     vdW  Elec       q    Type
REMARK                         _______ _______ _______ _____ _____    ______ ____
ROOT
ATOM      1  C   UNL     1      -6.621   5.930  -1.580  0.00  0.00    +0.182 A 
ATOM      2  N   UNL     1      -6.345   5.785  -0.305  0.00  0.00    -0.127 NA
ATOM      3  N   UNL     1      -5.216   5.187  -0.166  0.00  0.00    -0.121 NA
ATOM      4  C   UNL     1      -4.702   4.914  -1.344  0.00  0.00    +0.209 A 
ATOM      5  N   UNL     1      -5.574   5.382  -2.285  0.00  0.00    -0.224 N 
ENDROOT
BRANCH   1   9
ATOM      6  C   UNL     1     -10.083   7.763  -3.221  0.00  0.00    +0.000 A 
ATOM      7  C   UNL     1      -9.773   7.950  -1.886  0.00  0.00    +0.001 A 
ATOM      8  C   UNL     1      -8.650   7.357  -1.347  0.00  0.00    +0.011 A 
ATOM      9  C   UNL     1      -7.826   6.568  -2.151  0.00  0.00    +0.021 A 
ATOM     10  C   UNL     1      -8.143   6.388  -3.499  0.00  0.00    +0.011 A 
ATOM     11  C   UNL     1      -9.272   6.982  -4.024  0.00  0.00    +0.001 A 
ENDBRANCH   1   9
BRANCH   5  12
ATOM     12  N   UNL     1      -5.437   5.317  -3.642  0.00  0.00    -0.295 N 
ATOM     13  H   UNL     1      -5.843   4.468  -4.007  0.00  0.00    +0.163 HD
ATOM     14  H   UNL     1      -5.840   6.129  -4.086  0.00  0.00    +0.163 HD
ENDBRANCH   5  12
BRANCH   4  15
ATOM     15  S   UNL     1      -3.169   4.101  -1.653  0.00  0.00    -0.080 S 
BRANCH  15  16
ATOM     16  C   UNL     1      -2.620   3.811   0.048  0.00  0.00    +0.113 C 
BRANCH  16  17
ATOM     17  C   UNL     1      -1.288   3.106   0.032  0.00  0.00    -0.029 A 
ATOM     18  C   UNL     1      -1.234   1.746   0.017  0.00  0.00    +0.005 A 
ATOM     19  C   UNL     1      -0.013   1.076   0.008  0.00  0.00    +0.001 A 
ATOM     20  C   UNL     1       1.163   1.762   0.000  0.00  0.00    +0.008 A 
ATOM     21  C   UNL     1       1.147   3.167   0.008  0.00  0.00    -0.018 A 
ATOM     22  C   UNL     1      -0.095   3.848   0.024  0.00  0.00    -0.014 A 
ATOM     23  C   UNL     1      -0.111   5.254   0.031  0.00  0.00    +0.009 A 
ATOM     24  C   UNL     1       1.064   5.940   0.023  0.00  0.00    +0.001 A 
ATOM     25  C   UNL     1       2.287   5.270   0.008  0.00  0.00    +0.001 A 
ATOM     26  C   UNL     1       2.340   3.910   0.000  0.00  0.00    +0.008 A 
ENDBRANCH  16  17
ENDBRANCH  15  16
ENDBRANCH   4  15
TORSDOF 5
