REMARK  Name = ZINC32090689
REMARK  4 active torsions:
REMARK  status: ('A' for Active; 'I' for Inactive)
REMARK    1  A    between atoms: C_1  and  C_2
REMARK    2  A    between atoms: C_7  and  C_8
REMARK    3  A    between atoms: C_11  and  O_26
REMARK    4  A    between atoms: C_15  and  C_25
REMARK                            x       y       z     vdW  Elec       q    Type
REMARK                         _______ _______ _______ _____ _____    ______ ____
ROOT
ATOM      1  C   UNL     1       0.243   0.046   2.494  0.00  0.00    +0.063 C 
ATOM      2  C   UNL     1      -0.829  -0.447   3.473  0.00  0.00    +0.108 C 
ATOM      3  C   UNL     1      -0.496  -0.072   4.888  0.00  0.00    +0.190 C 
ATOM      4  N   UNL     1       0.719  -0.004   5.345  0.00  0.00    -0.197 NA
ATOM      5  C   UNL     1       1.761  -0.235   4.497  0.00  0.00    +0.165 A 
ATOM      6  C   UNL     1       1.590  -0.221   3.118  0.00  0.00    +0.027 A 
ATOM      7  C   UNL     1       2.815  -0.482   2.534  0.00  0.00    +0.066 A 
ATOM      8  N   UNL     1       3.706  -0.636   3.486  0.00  0.00    -0.168 NA
ATOM      9  N   UNL     1       3.071  -0.478   4.732  0.00  0.00    -0.194 N 
ATOM     10  C   UNL     1       3.684  -0.555   5.985  0.00  0.00    +0.178 A 
ATOM     11  C   UNL     1       4.858  -1.288   6.147  0.00  0.00    +0.053 A 
ATOM     12  C   UNL     1       5.427  -1.333   7.410  0.00  0.00    +0.045 A 
ATOM     13  C   UNL     1       4.793  -0.645   8.436  0.00  0.00    +0.152 A 
ATOM     14  N   UNL     1       3.682   0.025   8.192  0.00  0.00    -0.136 NA
ATOM     15  N   UNL     1       3.154   0.074   7.023  0.00  0.00    -0.128 NA
ATOM     16 CL   UNL     1       5.460  -0.667  10.039  0.00  0.00    -0.060 Cl
ATOM     17  C   UNL     1       3.083  -0.574   1.054  0.00  0.00    +0.068 C 
ENDROOT
BRANCH   1  24
ATOM     18  C   UNL     1      -0.183   1.496   0.032  0.00  0.00    +0.044 C 
ATOM     19  C   UNL     1      -0.077  -0.007   0.012  0.00  0.00    -0.047 A 
ATOM     20  C   UNL     1      -0.178  -0.692  -1.185  0.00  0.00    +0.003 A 
ATOM     21  C   UNL     1      -0.080  -2.071  -1.202  0.00  0.00    +0.000 A 
ATOM     22  C   UNL     1       0.119  -2.765  -0.024  0.00  0.00    +0.000 A 
ATOM     23  C   UNL     1       0.221  -2.080   1.173  0.00  0.00    +0.004 A 
ATOM     24  C   UNL     1       0.127  -0.701   1.190  0.00  0.00    -0.036 A 
ENDBRANCH   1  24
BRANCH   3  25
ATOM     25  O   UNL     1      -1.512   0.209   5.729  0.00  0.00    -0.495 OA
ATOM     26  H   UNL     1      -1.228   0.443   6.624  0.00  0.00    +0.293 HD
ENDBRANCH   3  25
TORSDOF 2
