REMARK  Name = ZINC13254002
REMARK  8 active torsions:
REMARK  status: ('A' for Active; 'I' for Inactive)
REMARK    1  A    between atoms: C_1  and  N_2
REMARK    2  A    between atoms: C_11  and  S_12
REMARK    3  A    between atoms: S_12  and  C_13
REMARK    4  A    between atoms: C_13  and  C_14
REMARK    5  A    between atoms: N_16  and  CA_17
REMARK    6  A    between atoms: CA_17  and  CB_19
REMARK    7  A    between atoms: CA_17  and  C_30
REMARK    8  A    between atoms: CB_19  and  CG_20
REMARK                            x       y       z     vdW  Elec       q    Type
REMARK                         _______ _______ _______ _____ _____    ______ ____
ROOT
ATOM      1  C   UNK A   0       5.349  -0.321  -0.050  0.00  0.00    +0.224 C 
ATOM      2  O   UNK A   0       5.425   0.889  -0.044  0.00  0.00    -0.275 OA
ATOM      3  N   TRP A   1       6.471  -1.067  -0.065  0.00  0.00    -0.301 N 
ATOM      4  H   TRP A   1       6.410  -2.035  -0.070  0.00  0.00    +0.150 HD
ENDROOT
BRANCH   1   5
ATOM      5  C   UNK A   0       3.999  -0.991  -0.041  0.00  0.00    +0.173 C 
BRANCH   5   6
ATOM      6  S   UNK A   0       2.697   0.273  -0.022  0.00  0.00    -0.078 S 
BRANCH   6  17
ATOM      7  C   UNK A   0      -0.018   1.461   0.010  0.00  0.00    +0.154 C 
ATOM      8  N   UNK A   0       0.002  -0.004   0.002  0.00  0.00    -0.290 N 
ATOM      9  C   UNK A   0      -1.162  -0.680   0.004  0.00  0.00    +0.263 A 
ATOM     10  O   UNK A   0      -2.224  -0.082   0.012  0.00  0.00    -0.267 OA
ATOM     11  C   UNK A   0      -1.135  -2.111  -0.004  0.00  0.00    +0.076 A 
ATOM     12  C   UNK A   0      -2.267  -3.039  -0.002  0.00  0.00    -0.023 A 
ATOM     13  C   UNK A   0      -1.978  -4.356  -0.010  0.00  0.00    -0.004 A 
ATOM     14  S   UNK A   0      -0.208  -4.439  -0.022  0.00  0.00    -0.073 S 
ATOM     15  C   UNK A   0       0.141  -2.699  -0.014  0.00  0.00    +0.117 A 
ATOM     16  N   UNK A   0       1.253  -1.974  -0.015  0.00  0.00    -0.216 NA
ATOM     17  C   UNK A   0       1.200  -0.657  -0.013  0.00  0.00    +0.173 A 
ATOM     18  C   UNK A   0      -2.948  -5.498  -0.009  0.00  0.00    +0.043 C 
ATOM     19  C   UNK A   0      -4.332  -4.958   0.380  0.00  0.00    +0.005 C 
ATOM     20  C   UNK A   0      -4.619  -3.703  -0.450  0.00  0.00    +0.005 C 
ATOM     21  C   UNK A   0      -3.716  -2.559   0.010  0.00  0.00    +0.037 C 
ENDBRANCH   6  17
ENDBRANCH   5   6
ENDBRANCH   1   5
BRANCH   3  22
ATOM     22  CA  TRP A   1       7.783  -0.416  -0.074  0.00  0.00    +0.191 C 
BRANCH  22  23
ATOM     23  C   TRP A   1       8.192  -0.090   1.339  0.00  0.00    +0.376 C 
ATOM     24  O   TRP A   1       7.810  -0.790   2.261  0.00  0.00    -0.244 OA
ATOM     25  OXT TRP A   1       8.904   0.874   1.561  0.00  0.00    -0.244 OA
ENDBRANCH  22  23
BRANCH  22  26
ATOM     26  CB  TRP A   1       8.815  -1.358  -0.699  0.00  0.00    +0.071 C 
BRANCH  26  27
ATOM     27  CG  TRP A   1       8.474  -1.586  -2.148  0.00  0.00    -0.020 A 
ATOM     28  CD1 TRP A   1       7.759  -2.606  -2.649  0.00  0.00    +0.087 A 
ATOM     29  NE1 TRP A   1       7.655  -2.480  -4.008  0.00  0.00    -0.360 N 
ATOM     30  HE1 TRP A   1       7.184  -3.097  -4.590  0.00  0.00    +0.165 HD
ATOM     31  CE2 TRP A   1       8.317  -1.347  -4.425  0.00  0.00    +0.047 A 
ATOM     32  CD2 TRP A   1       8.854  -0.735  -3.278  0.00  0.00    +0.003 A 
ATOM     33  CE3 TRP A   1       9.582   0.451  -3.398  0.00  0.00    +0.010 A 
ATOM     34  CZ3 TRP A   1       9.766   1.012  -4.630  0.00  0.00    +0.001 A 
ATOM     35  CH2 TRP A   1       9.236   0.413  -5.764  0.00  0.00    +0.002 A 
ATOM     36  CZ2 TRP A   1       8.522  -0.761  -5.670  0.00  0.00    +0.026 A 
ENDBRANCH  26  27
ENDBRANCH  22  26
ENDBRANCH   3  22
TORSDOF 7
