REMARK  Name = ZINC19970351
REMARK  4 active torsions:
REMARK  status: ('A' for Active; 'I' for Inactive)
REMARK    1  A    between atoms: C_3  and  C_8
REMARK    2  A    between atoms: C_8  and  C_10
REMARK    3  A    between atoms: C_8  and  N_20
REMARK    4  A    between atoms: C_12  and  N_17
REMARK                            x       y       z     vdW  Elec       q    Type
REMARK                         _______ _______ _______ _____ _____    ______ ____
ROOT
ATOM      1  C   UNL     1       2.452   3.936   0.001  0.00  0.00    -0.013 C 
ENDROOT
BRANCH   1   4
ATOM      2  C   UNL     1      -0.013   1.076   0.008  0.00  0.00    +0.001 A 
ATOM      3  C   UNL     1       1.175   1.783   0.000  0.00  0.00    +0.002 A 
ATOM      4  C   UNL     1       1.157   3.165   0.008  0.00  0.00    -0.057 A 
ATOM      5  C   UNL     1      -0.049   3.841   0.023  0.00  0.00    +0.017 A 
ATOM      6  C   UNL     1      -1.237   3.134   0.030  0.00  0.00    +0.018 A 
ATOM      7  C   UNL     1      -1.219   1.750   0.017  0.00  0.00    +0.015 A 
ATOM      8 BR   UNL     1      -2.887   4.057   0.050  0.00  0.00    -0.050 Br
ENDBRANCH   1   4
BRANCH   1   9
ATOM      9  C   UNL     1       2.746   4.412  -1.399  0.00  0.00    -0.054 A 
ATOM     10  C   UNL     1       3.647   3.723  -2.188  0.00  0.00    +0.035 A 
ATOM     11  C   UNL     1       3.917   4.160  -3.472  0.00  0.00    +0.128 A 
ATOM     12  C   UNL     1       3.285   5.285  -3.967  0.00  0.00    +0.052 A 
ATOM     13  C   UNL     1       2.382   5.974  -3.177  0.00  0.00    +0.043 A 
ATOM     14  C   UNL     1       2.109   5.534  -1.894  0.00  0.00    +0.022 A 
ATOM     15 CL   UNL     1       1.588   7.388  -3.798  0.00  0.00    -0.083 Cl
BRANCH  11  16
ATOM     16  N   UNL     1       4.883   3.422  -4.317  0.00  0.00    +0.056 N 
ATOM     17  O   UNL     1       5.440   2.431  -3.881  0.00  0.00    -0.126 OA
ATOM     18  O   UNL     1       5.120   3.807  -5.448  0.00  0.00    -0.126 OA
ENDBRANCH  11  16
ENDBRANCH   1   9
BRANCH   1  19
ATOM     19  N   UNL     1       2.339   5.093   0.898  0.00  0.00    +0.385 N 
ATOM     20  H   UNL     1       3.284   5.656   0.893  0.00  0.00    -0.089 HD
ATOM     21  H   UNL     1       2.124   4.745   1.920  0.00  0.00    -0.089 HD
ATOM     22  H   UNL     1       1.522   5.745   0.554  0.00  0.00    -0.089 HD
ENDBRANCH   1  19
TORSDOF 4
