REMARK  Name = ZINC39675613
REMARK  10 active torsions:
REMARK  status: ('A' for Active; 'I' for Inactive)
REMARK    1  A    between atoms: C_1  and  N_2
REMARK    2  A    between atoms: N_2  and  C_3
REMARK    3  A    between atoms: N_2  and  C_4
REMARK    4  A    between atoms: C_4  and  C_6
REMARK    5  A    between atoms: C_4  and  C_31
REMARK    6  A    between atoms: C_6  and  N_7
REMARK    7  A    between atoms: C_8  and  C_10
REMARK    8  A    between atoms: C_21  and  C_23
REMARK    9  A    between atoms: C_28  and  O_29
REMARK   10  A    between atoms: O_29  and  C_30
REMARK                            x       y       z     vdW  Elec       q    Type
REMARK                         _______ _______ _______ _____ _____    ______ ____
ROOT
ATOM      1  C   UNL     1      -2.224  -3.069  -1.224  0.00  0.00    +0.100 C 
ATOM      2  C   UNL     1      -2.945  -2.325  -2.370  0.00  0.00    +0.121 C 
ATOM      3  N   UNL     1      -2.979  -3.300  -3.486  0.00  0.00    -0.296 N 
ATOM      4  C   UNL     1      -3.259  -4.600  -2.831  0.00  0.00    +0.115 C 
ATOM      5  C   UNL     1      -2.435  -4.562  -1.528  0.00  0.00    -0.004 C 
ATOM      6  C   UNL     1      -3.210  -5.227  -0.394  0.00  0.00    -0.010 C 
ATOM      7  C   UNL     1      -3.357  -6.722  -0.691  0.00  0.00    -0.082 C 
ATOM      8  N   UNL     1      -2.027  -7.330  -0.825  0.00  0.00    +0.379 N 
ATOM      9  C   UNL     1      -1.325  -6.748  -1.976  0.00  0.00    -0.082 C 
ATOM     10  C   UNL     1      -1.092  -5.255  -1.733  0.00  0.00    -0.010 C 
ATOM     11  C   UNL     1      -2.799  -3.058  -4.800  0.00  0.00    +0.250 C 
ATOM     12  O   UNL     1      -2.484  -1.946  -5.176  0.00  0.00    -0.270 OA
ATOM     13  H   UNL     1      -1.494  -7.158   0.014  0.00  0.00    -0.086 HD
ATOM     14  H   UNL     1      -2.125  -8.325  -0.960  0.00  0.00    -0.086 HD
ENDROOT
BRANCH  11  15
ATOM     15  C   UNL     1      -2.983  -4.144  -5.781  0.00  0.00    +0.078 A 
ATOM     16  C   UNL     1      -3.964  -5.117  -5.576  0.00  0.00    +0.017 A 
ATOM     17  C   UNL     1      -4.132  -6.129  -6.497  0.00  0.00    +0.001 A 
ATOM     18  C   UNL     1      -3.331  -6.186  -7.627  0.00  0.00    +0.004 A 
ATOM     19  C   UNL     1      -2.358  -5.230  -7.841  0.00  0.00    +0.046 A 
ATOM     20  C   UNL     1      -2.179  -4.202  -6.928  0.00  0.00    +0.132 A 
BRANCH  20  21
ATOM     21  O   UNL     1      -1.227  -3.260  -7.140  0.00  0.00    -0.494 OA
ATOM     22  C   UNL     1      -0.446  -3.384  -8.330  0.00  0.00    +0.277 C 
ENDBRANCH  20  21
ENDBRANCH  11  15
BRANCH   1  24
ATOM     23  N   UNL     1      -0.022  -2.915  -0.108  0.00  0.00    -0.316 N 
ATOM     24  C   UNL     1      -0.754  -2.736  -1.225  0.00  0.00    +0.218 C 
ATOM     25  O   UNL     1      -0.230  -2.308  -2.232  0.00  0.00    -0.275 OA
ATOM     26  H   UNL     1      -0.441  -3.258   0.697  0.00  0.00    +0.149 HD
BRANCH  23  27
ATOM     27  C   UNL     1       1.407  -2.592  -0.109  0.00  0.00    +0.093 C 
BRANCH  27  28
ATOM     28  C   UNL     1       1.971  -2.768   1.302  0.00  0.00    -0.021 C 
BRANCH  28  29
ATOM     29  C   UNL     1       1.920  -4.224   1.686  0.00  0.00    -0.059 A 
ATOM     30  C   UNL     1       0.733  -4.783   2.122  0.00  0.00    +0.002 A 
ATOM     31  C   UNL     1       0.687  -6.119   2.473  0.00  0.00    +0.000 A 
ATOM     32  C   UNL     1       1.827  -6.896   2.389  0.00  0.00    +0.000 A 
ATOM     33  C   UNL     1       3.013  -6.338   1.952  0.00  0.00    +0.000 A 
ATOM     34  C   UNL     1       3.059  -5.003   1.596  0.00  0.00    +0.002 A 
ENDBRANCH  28  29
BRANCH  28  36
ATOM     35  C   UNL     1       1.772  -2.066   3.588  0.00  0.00    -0.096 C 
ATOM     36  N   UNL     1       1.169  -1.984   2.251  0.00  0.00    +0.382 N 
ATOM     37  C   UNL     1       1.131  -0.581   1.817  0.00  0.00    -0.096 C 
ATOM     38  H   UNL     1       0.230  -2.352   2.283  0.00  0.00    -0.082 HD
ENDBRANCH  28  36
ENDBRANCH  27  28
ENDBRANCH  23  27
ENDBRANCH   1  24
TORSDOF 7
