REMARK  Name = ZINC09232350
REMARK  10 active torsions:
REMARK  status: ('A' for Active; 'I' for Inactive)
REMARK    1  A    between atoms: C_1  and  C_2
REMARK    2  A    between atoms: C_2  and  O_3
REMARK    3  A    between atoms: O_3  and  C_4
REMARK    4  A    between atoms: C_7  and  N_10
REMARK    5  A    between atoms: C_14  and  C_15
REMARK    6  A    between atoms: C_18  and  O_23
REMARK    7  A    between atoms: C_19  and  O_21
REMARK    8  A    between atoms: O_21  and  C_22
REMARK    9  A    between atoms: O_23  and  C_24
REMARK   10  A    between atoms: C_27  and  N_30
REMARK                            x       y       z     vdW  Elec       q    Type
REMARK                         _______ _______ _______ _____ _____    ______ ____
ROOT
ATOM      1  C   UNL     1       0.523   3.071   0.553  0.00  0.00    -0.020 A 
ATOM      2  C   UNL     1       0.954   4.402   0.618  0.00  0.00    +0.012 A 
ATOM      3  C   UNL     1       0.070   5.395   0.978  0.00  0.00    +0.051 A 
ATOM      4  C   UNL     1      -1.247   5.079   1.285  0.00  0.00    +0.172 A 
ATOM      5  C   UNL     1      -1.683   3.756   1.227  0.00  0.00    +0.163 A 
ATOM      6  C   UNL     1      -0.805   2.754   0.863  0.00  0.00    +0.057 A 
ENDROOT
BRANCH   1  11
ATOM      7  N   UNL     1       3.632   3.405  -2.466  0.00  0.00    -0.224 N 
ATOM      8  C   UNL     1       2.594   3.430  -1.646  0.00  0.00    +0.263 C 
ATOM      9  O   UNL     1       1.824   4.373  -1.617  0.00  0.00    -0.269 OA
ATOM     10  C   UNL     1       2.418   2.258  -0.766  0.00  0.00    +0.078 C 
ATOM     11  C   UNL     1       1.462   2.011   0.165  0.00  0.00    +0.028 C 
ATOM     12  S   UNL     1       3.807   1.250  -1.268  0.00  0.00    -0.061 S 
ATOM     13  C   UNL     1       4.477   2.355  -2.500  0.00  0.00    +0.125 C 
ATOM     14  S   UNL     1       5.859   2.135  -3.487  0.00  0.00    -0.027 S 
BRANCH   7  18
ATOM     15  C   UNL     1       4.293   6.641  -5.014  0.00  0.00    +0.121 A 
ATOM     16  C   UNL     1       3.340   5.686  -5.338  0.00  0.00    +0.047 A 
ATOM     17  C   UNL     1       3.121   4.615  -4.495  0.00  0.00    +0.027 A 
ATOM     18  C   UNL     1       3.854   4.493  -3.323  0.00  0.00    +0.043 A 
ATOM     19  C   UNL     1       4.804   5.452  -2.996  0.00  0.00    +0.027 A 
ATOM     20  C   UNL     1       5.027   6.519  -3.843  0.00  0.00    +0.047 A 
BRANCH  15  21
ATOM     21  O   UNL     1       4.509   7.695  -5.845  0.00  0.00    -0.492 OA
BRANCH  21  23
ATOM     22  C   UNL     1       5.606   9.746  -6.501  0.00  0.00    +0.048 C 
ATOM     23  C   UNL     1       5.506   8.639  -5.449  0.00  0.00    +0.225 C 
ENDBRANCH  21  23
ENDBRANCH  15  21
ENDBRANCH   7  18
ENDBRANCH   1  11
BRANCH   5  24
ATOM     24  O   UNL     1      -2.974   3.452   1.530  0.00  0.00    -0.491 OA
ATOM     25  C   UNL     1      -3.352   2.077   1.450  0.00  0.00    +0.277 C 
ENDBRANCH   5  24
BRANCH   4  26
ATOM     26  O   UNL     1      -2.113   6.063   1.644  0.00  0.00    -0.434 OA
BRANCH  26  27
ATOM     27  C   UNL     1      -2.269   6.323   2.966  0.00  0.00    +0.221 A 
ATOM     28  C   UNL     1      -3.060   7.393   3.368  0.00  0.00    +0.070 A 
ATOM     29  C   UNL     1      -3.216   7.644   4.720  0.00  0.00    +0.039 A 
ATOM     30  C   UNL     1      -2.563   6.819   5.626  0.00  0.00    +0.144 A 
ATOM     31  C   UNL     1      -1.788   5.778   5.155  0.00  0.00    +0.147 A 
ATOM     32  N   UNL     1      -1.663   5.559   3.860  0.00  0.00    -0.219 NA
BRANCH  30  33
ATOM     33  N   UNL     1      -2.695   7.054   7.081  0.00  0.00    +0.058 N 
ATOM     34  O   UNL     1      -2.120   6.327   7.871  0.00  0.00    -0.126 OA
ATOM     35  O   UNL     1      -3.380   7.975   7.490  0.00  0.00    -0.126 OA
ENDBRANCH  30  33
ENDBRANCH  26  27
ENDBRANCH   4  26
TORSDOF 8
