REMARK  Name = ZINC02410840
REMARK  12 active torsions:
REMARK  status: ('A' for Active; 'I' for Inactive)
REMARK    1  A    between atoms: C_1  and  C_2
REMARK    2  A    between atoms: C_2  and  C_4
REMARK    3  A    between atoms: C_2  and  N_12
REMARK    4  A    between atoms: C_4  and  C_5
REMARK    5  A    between atoms: C_5  and  C_6
REMARK    6  A    between atoms: C_13  and  C_15
REMARK    7  A    between atoms: N_26  and  C_29
REMARK    8  A    between atoms: C_27  and  N_28
REMARK    9  A    between atoms: C_29  and  C_30
REMARK   10  A    between atoms: C_30  and  C_31
REMARK   11  A    between atoms: C_31  and  C_32
REMARK   12  A    between atoms: C_31  and  C_33
REMARK                            x       y       z     vdW  Elec       q    Type
REMARK                         _______ _______ _______ _____ _____    ______ ____
ROOT
ATOM      1  C   UNL     1       0.690  -1.079  -3.561  0.00  0.00    +0.103 A 
ATOM      2  C   UNL     1       0.830  -2.476  -4.005  0.00  0.00    +0.122 A 
ATOM      3  C   UNL     1       1.592  -2.411  -5.255  0.00  0.00    +0.162 A 
ATOM      4  N   UNL     1       1.879  -3.524  -5.896  0.00  0.00    -0.226 NA
ATOM      5  C   UNL     1       1.473  -4.701  -5.404  0.00  0.00    +0.092 A 
ATOM      6  C   UNL     1       1.775  -5.896  -6.083  0.00  0.00    +0.030 A 
ATOM      7  C   UNL     1       1.359  -7.087  -5.575  0.00  0.00    +0.002 A 
ATOM      8  C   UNL     1       0.634  -7.146  -4.386  0.00  0.00    +0.002 A 
ATOM      9  C   UNL     1       0.323  -6.013  -3.701  0.00  0.00    +0.030 A 
ATOM     10  C   UNL     1       0.736  -4.761  -4.194  0.00  0.00    +0.090 A 
ATOM     11  N   UNL     1       0.435  -3.640  -3.529  0.00  0.00    -0.241 NA
ATOM     12  N   UNL     1       1.860  -1.079  -5.495  0.00  0.00    -0.312 N 
ATOM     13  C   UNL     1       1.332  -0.296  -4.514  0.00  0.00    +0.112 A 
ENDROOT
BRANCH   1  15
ATOM     14  N   UNL     1       0.688  -0.476  -1.203  0.00  0.00    -0.309 N 
ATOM     15  C   UNL     1       0.006  -0.608  -2.358  0.00  0.00    +0.250 C 
ATOM     16  O   UNL     1      -1.180  -0.334  -2.400  0.00  0.00    -0.270 OA
ATOM     17  H   UNL     1       1.632  -0.695  -1.170  0.00  0.00    +0.149 HD
BRANCH  14  19
ATOM     18  C   UNL     1      -0.019   1.526   0.010  0.00  0.00    +0.028 C 
ATOM     19  C   UNL     1       0.002  -0.004   0.002  0.00  0.00    +0.070 C 
BRANCH  19  20
ATOM     20  C   UNL     1       0.742  -0.511   1.242  0.00  0.00    +0.026 C 
BRANCH  20  21
ATOM     21  C   UNL     1       0.655  -2.037   1.299  0.00  0.00    +0.037 C 
BRANCH  21  22
ATOM     22  C   UNL     1       1.384  -2.537   2.519  0.00  0.00    -0.047 A 
ATOM     23  C   UNL     1       2.731  -2.841   2.444  0.00  0.00    +0.003 A 
ATOM     24  C   UNL     1       3.399  -3.299   3.564  0.00  0.00    +0.000 A 
ATOM     25  C   UNL     1       2.722  -3.452   4.759  0.00  0.00    +0.000 A 
ATOM     26  C   UNL     1       1.375  -3.146   4.835  0.00  0.00    +0.000 A 
ATOM     27  C   UNL     1       0.708  -2.684   3.716  0.00  0.00    +0.003 A 
ENDBRANCH  21  22
ENDBRANCH  20  21
ENDBRANCH  19  20
ENDBRANCH  14  19
ENDBRANCH   1  15
BRANCH  13  28
ATOM     28  N   UNL     1       1.423   1.070  -4.471  0.00  0.00    -0.344 N 
ATOM     29  H   UNL     1       1.023   1.560  -3.735  0.00  0.00    +0.144 HD
ATOM     30  H   UNL     1       1.888   1.548  -5.175  0.00  0.00    +0.144 HD
ENDBRANCH  13  28
BRANCH  12  31
ATOM     31  C   UNL     1       2.607  -0.575  -6.650  0.00  0.00    +0.125 C 
BRANCH  31  32
ATOM     32  C   UNL     1       1.637  -0.286  -7.797  0.00  0.00    +0.024 C 
BRANCH  32  33
ATOM     33  C   UNL     1       2.416   0.240  -9.004  0.00  0.00    -0.016 C 
ATOM     34  C   UNL     1       3.347  -0.855  -9.527  0.00  0.00    +0.007 C 
ATOM     35  C   UNL     1       1.436   0.646 -10.107  0.00  0.00    +0.007 C 
ENDBRANCH  32  33
ENDBRANCH  31  32
ENDBRANCH  12  31
TORSDOF 9
