REMARK  Name = ZINC43220781
REMARK  11 active torsions:
REMARK  status: ('A' for Active; 'I' for Inactive)
REMARK    1  A    between atoms: C_1  and  C_2
REMARK    2  A    between atoms: C_2  and  C_3
REMARK    3  A    between atoms: C_5  and  C_16
REMARK    4  A    between atoms: C_6  and  N_8
REMARK    5  A    between atoms: C_9  and  C_11
REMARK    6  A    between atoms: C_16  and  C_18
REMARK    7  A    between atoms: C_16  and  N_26
REMARK    8  A    between atoms: C_21  and  S_24
REMARK    9  A    between atoms: S_24  and  C_25
REMARK   10  A    between atoms: C_29  and  C_34
REMARK   11  A    between atoms: C_31  and  C_33
REMARK                            x       y       z     vdW  Elec       q    Type
REMARK                         _______ _______ _______ _____ _____    ______ ____
ROOT
ATOM      1  C   UNL     1       3.613  -1.673  -3.161  0.00  0.00    +0.136 C 
ENDROOT
BRANCH   1   2
ATOM      2  N   UNL     1       4.179  -2.357  -1.996  0.00  0.00    -0.303 N 
ATOM      3  C   UNL     1       4.007  -3.722  -1.843  0.00  0.00    +0.216 A 
ATOM      4  N   UNL     1       3.423  -4.413  -2.812  0.00  0.00    -0.220 NA
ATOM      5  C   UNL     1       3.244  -5.718  -2.698  0.00  0.00    +0.044 A 
ATOM      6  C   UNL     1       3.676  -6.362  -1.549  0.00  0.00    +0.046 A 
ATOM      7  C   UNL     1       4.283  -5.610  -0.556  0.00  0.00    +0.044 A 
ATOM      8  N   UNL     1       4.436  -4.308  -0.735  0.00  0.00    -0.220 NA
ATOM      9  C   UNL     1       4.768  -6.268   0.711  0.00  0.00    +0.066 C 
ATOM     10  C   UNL     1       2.578  -6.496  -3.804  0.00  0.00    +0.066 C 
ATOM     11  H   UNL     1       4.675  -1.854  -1.331  0.00  0.00    +0.150 HD
ENDBRANCH   1   2
BRANCH   1  12
ATOM     12  C   UNL     1       4.429  -0.444  -3.467  0.00  0.00    -0.023 A 
ATOM     13  C   UNL     1       4.788   0.417  -2.447  0.00  0.00    +0.007 A 
ATOM     14  C   UNL     1       5.536   1.545  -2.724  0.00  0.00    +0.015 A 
ATOM     15  C   UNL     1       5.927   1.813  -4.030  0.00  0.00    +0.008 A 
ATOM     16  C   UNL     1       5.564   0.945  -5.053  0.00  0.00    +0.015 A 
ATOM     17  C   UNL     1       4.821  -0.183  -4.768  0.00  0.00    +0.007 A 
BRANCH  15  18
ATOM     18  S   UNL     1       6.880   3.251  -4.389  0.00  0.00    -0.129 S 
ATOM     19  C   UNL     1       7.139   3.170  -6.183  0.00  0.00    +0.090 C 
ENDBRANCH  15  18
ENDBRANCH   1  12
BRANCH   1  22
ATOM     20  C   UNL     1       0.490  -0.696  -1.333  0.00  0.00    -0.008 A 
ATOM     21  C   UNL     1       1.776  -1.057  -1.564  0.00  0.00    +0.019 A 
ATOM     22  C   UNL     1       2.191  -1.271  -2.865  0.00  0.00    +0.006 A 
ATOM     23  C   UNL     1       1.291  -1.112  -3.876  0.00  0.00    +0.078 A 
ATOM     24  S   UNL     1      -0.187  -0.655  -2.984  0.00  0.00    -0.078 S 
BRANCH  23  25
ATOM     25  N   UNL     1       1.475  -1.271  -5.251  0.00  0.00    -0.273 N 
ATOM     26  C   UNL     1       0.446  -1.064  -6.097  0.00  0.00    +0.284 C 
ATOM     27  O   UNL     1      -0.643  -0.739  -5.662  0.00  0.00    -0.266 OA
ATOM     28  H   UNL     1       2.343  -1.530  -5.597  0.00  0.00    +0.156 HD
BRANCH  26  29
ATOM     29  C   UNL     1       0.639  -1.231  -7.541  0.00  0.00    +0.189 A 
ATOM     30  C   UNL     1      -0.311  -1.049  -8.504  0.00  0.00    +0.054 A 
ATOM     31  C   UNL     1       0.307  -1.313  -9.736  0.00  0.00    +0.042 A 
ATOM     32  C   UNL     1       1.591  -1.641  -9.474  0.00  0.00    +0.196 A 
ATOM     33  O   UNL     1       1.789  -1.585  -8.151  0.00  0.00    -0.458 OA
ENDBRANCH  26  29
ENDBRANCH  23  25
BRANCH  20  35
ATOM     34  C   UNL     1      -0.165   1.096   0.250  0.00  0.00    +0.009 C 
ATOM     35  C   UNL     1      -0.193  -0.409  -0.021  0.00  0.00    +0.039 C 
ENDBRANCH  20  35
ENDBRANCH   1  22
TORSDOF 7
