REMARK  Name = ZINC13567633
REMARK  5 active torsions:
REMARK  status: ('A' for Active; 'I' for Inactive)
REMARK    1  A    between atoms: C_2  and  C_3
REMARK    2  A    between atoms: C_3  and  N_4
REMARK    3  A    between atoms: C_14  and  C_32
REMARK    4  A    between atoms: C_15  and  N_31
REMARK    5  A    between atoms: N_16  and  C_24
REMARK                            x       y       z     vdW  Elec       q    Type
REMARK                         _______ _______ _______ _____ _____    ______ ____
ROOT
ATOM      1  N   UNL     1       1.454   1.886  -0.551  0.00  0.00    -0.266 N 
ATOM      2  C   UNL     1       0.252   1.398  -1.031  0.00  0.00    +0.041 A 
ATOM      3  C   UNL     1      -0.847   2.092  -1.542  0.00  0.00    +0.024 A 
ATOM      4  C   UNL     1      -1.933   1.340  -1.960  0.00  0.00    +0.002 A 
ATOM      5  C   UNL     1      -1.945  -0.037  -1.873  0.00  0.00    +0.000 A 
ATOM      6  C   UNL     1      -0.860  -0.740  -1.362  0.00  0.00    +0.007 A 
ATOM      7  C   UNL     1       0.226   0.001  -0.948  0.00  0.00    -0.001 A 
ATOM      8  C   UNL     1       1.539  -0.411  -0.357  0.00  0.00    +0.141 C 
ATOM      9  C   UNL     1       2.272   0.898  -0.135  0.00  0.00    +0.240 C 
ATOM     10  O   UNL     1       3.384   1.031   0.329  0.00  0.00    -0.274 OA
ATOM     11  C   UNL     1       1.339  -1.112   0.953  0.00  0.00    +0.089 C 
ATOM     12  C   UNL     1       1.494  -2.458   1.054  0.00  0.00    +0.108 C 
ATOM     13  N   UNL     1       1.848  -3.197  -0.052  0.00  0.00    -0.260 N 
ATOM     14  C   UNL     1       2.428  -2.595  -1.138  0.00  0.00    +0.025 C 
ATOM     15  C   UNL     1       2.311  -1.263  -1.329  0.00  0.00    +0.037 C 
ATOM     16  C   UNL     1       2.904  -0.636  -2.439  0.00  0.00    +0.162 C 
ATOM     17  O   UNL     1       2.794   0.567  -2.573  0.00  0.00    -0.292 OA
ATOM     18  C   UNL     1       3.672  -1.426  -3.463  0.00  0.00    +0.080 C 
ATOM     19  C   UNL     1       3.114  -2.852  -3.511  0.00  0.00    +0.014 C 
ATOM     20  C   UNL     1       3.201  -3.455  -2.108  0.00  0.00    +0.052 C 
ENDROOT
BRANCH  13  21
ATOM     21  C   UNL     1       1.612  -4.577  -0.069  0.00  0.00    +0.041 A 
ATOM     22  C   UNL     1       0.411  -5.072  -0.562  0.00  0.00    +0.024 A 
ATOM     23  C   UNL     1       0.181  -6.433  -0.578  0.00  0.00    +0.003 A 
ATOM     24  C   UNL     1       1.145  -7.304  -0.103  0.00  0.00    +0.020 A 
ATOM     25  C   UNL     1       2.342  -6.815   0.389  0.00  0.00    +0.043 A 
ATOM     26  C   UNL     1       2.580  -5.453   0.402  0.00  0.00    +0.043 A 
ATOM     27 CL   UNL     1       3.549  -7.912   0.983  0.00  0.00    -0.083 Cl
ENDBRANCH  13  21
BRANCH  12  28
ATOM     28  N   UNL     1       1.298  -3.083   2.263  0.00  0.00    -0.345 N 
ATOM     29  H   UNL     1       1.494  -4.029   2.357  0.00  0.00    +0.144 HD
ATOM     30  H   UNL     1       0.964  -2.579   3.021  0.00  0.00    +0.144 HD
ENDBRANCH  12  28
BRANCH  11  31
ATOM     31  C   UNL     1       0.978  -0.354   2.113  0.00  0.00    +0.100 C 
ATOM     32  N   UNL     1       0.693   0.248   3.033  0.00  0.00    -0.191 NA
ENDBRANCH  11  31
BRANCH   1  33
ATOM     33  C   UNL     1       1.798   3.309  -0.500  0.00  0.00    +0.140 C 
BRANCH  33  35
ATOM     34  C   UNL     1       2.224   4.505   1.586  0.00  0.00    +0.005 C 
ATOM     35  C   UNL     1       1.359   3.885   0.822  0.00  0.00    -0.015 C 
ENDBRANCH  33  35
ENDBRANCH   1  33
TORSDOF 5
