REMARK  Name = ZINC08901755
REMARK  8 active torsions:
REMARK  status: ('A' for Active; 'I' for Inactive)
REMARK    1  A    between atoms: C_1  and  C_2
REMARK    2  A    between atoms: C_15  and  C_17
REMARK    3  A    between atoms: C_17  and  S_18
REMARK    4  A    between atoms: S_18  and  C_19
REMARK    5  A    between atoms: C_22  and  C_25
REMARK    6  A    between atoms: N_23  and  C_24
REMARK    7  A    between atoms: C_25  and  O_26
REMARK    8  A    between atoms: O_26  and  C_27
REMARK                            x       y       z     vdW  Elec       q    Type
REMARK                         _______ _______ _______ _____ _____    ______ ____
ROOT
ATOM      1  C   UNL     1      -2.726   2.947  -2.299  0.00  0.00    +0.173 C 
ENDROOT
BRANCH   1  15
ATOM      2  C   UNL     1       0.002  -0.004   0.002  0.00  0.00    +0.029 C 
ATOM      3  C   UNL     1      -0.019   1.526   0.010  0.00  0.00    +0.087 C 
ATOM      4  C   UNL     1       1.417   2.054  -0.000  0.00  0.00    +0.118 C 
ATOM      5  C   UNL     1       1.431   3.509  -0.386  0.00  0.00    +0.219 C 
ATOM      6  O   UNL     1       1.613   4.356   0.463  0.00  0.00    -0.275 OA
ATOM      7  N   UNL     1       1.242   3.880  -1.673  0.00  0.00    -0.284 N 
ATOM      8  C   UNL     1       0.941   2.925  -2.651  0.00  0.00    +0.055 A 
ATOM      9  C   UNL     1       1.633   2.892  -3.850  0.00  0.00    +0.025 A 
ATOM     10  C   UNL     1       1.299   1.955  -4.811  0.00  0.00    +0.002 A 
ATOM     11  C   UNL     1       0.277   1.053  -4.579  0.00  0.00    +0.002 A 
ATOM     12  C   UNL     1      -0.411   1.073  -3.380  0.00  0.00    +0.025 A 
ATOM     13  C   UNL     1      -0.075   2.001  -2.407  0.00  0.00    +0.058 A 
ATOM     14  N   UNL     1      -0.734   2.009  -1.171  0.00  0.00    -0.266 N 
ATOM     15  C   UNL     1      -2.003   2.453  -1.073  0.00  0.00    +0.230 C 
ATOM     16  O   UNL     1      -2.563   2.454   0.003  0.00  0.00    -0.274 OA
ATOM     17  H   UNL     1       1.315   4.815  -1.919  0.00  0.00    +0.155 HD
ENDBRANCH   1  15
BRANCH   1  18
ATOM     18  S   UNL     1      -4.398   3.471  -1.844  0.00  0.00    -0.077 S 
BRANCH  18  19
ATOM     19  C   UNL     1      -4.997   3.986  -3.419  0.00  0.00    +0.192 A 
ATOM     20  N   UNL     1      -4.333   3.963  -4.552  0.00  0.00    -0.122 NA
ATOM     21  N   UNL     1      -5.076   4.408  -5.501  0.00  0.00    -0.130 NA
ATOM     22  C   UNL     1      -6.245   4.746  -5.035  0.00  0.00    +0.172 A 
ATOM     23  N   UNL     1      -6.236   4.489  -3.691  0.00  0.00    -0.306 N 
ATOM     24  C   UNL     1      -7.330   4.708  -2.742  0.00  0.00    +0.153 C 
BRANCH  22  25
ATOM     25  C   UNL     1      -7.393   5.314  -5.828  0.00  0.00    +0.305 C 
BRANCH  25  26
ATOM     26  O   UNL     1      -7.302   6.740  -5.843  0.00  0.00    -0.483 OA
BRANCH  26  27
ATOM     27  C   UNL     1      -8.269   7.413  -6.521  0.00  0.00    +0.139 A 
ATOM     28  C   UNL     1      -9.281   6.715  -7.163  0.00  0.00    +0.047 A 
ATOM     29  C   UNL     1     -10.266   7.401  -7.847  0.00  0.00    +0.004 A 
ATOM     30  C   UNL     1     -10.237   8.783  -7.902  0.00  0.00    +0.002 A 
ATOM     31  C   UNL     1      -9.227   9.481  -7.268  0.00  0.00    +0.023 A 
ATOM     32  C   UNL     1      -8.242   8.800  -6.577  0.00  0.00    +0.083 A 
ATOM     33 CL   UNL     1      -6.973   9.677  -5.781  0.00  0.00    -0.080 Cl
ENDBRANCH  26  27
ENDBRANCH  25  26
ENDBRANCH  22  25
ENDBRANCH  18  19
ENDBRANCH   1  18
TORSDOF 6
