REMARK  Name = ZINC04203115
REMARK  14 active torsions:
REMARK  status: ('A' for Active; 'I' for Inactive)
REMARK    1  A    between atoms: C_1  and  C_2
REMARK    2  A    between atoms: C_2  and  O_3
REMARK    3  A    between atoms: O_3  and  C_4
REMARK    4  A    between atoms: C_4  and  C_6
REMARK    5  A    between atoms: C_9  and  C_12
REMARK    6  A    between atoms: C_14  and  C_32
REMARK    7  A    between atoms: C_16  and  C_25
REMARK    8  A    between atoms: C_18  and  C_20
REMARK    9  A    between atoms: C_20  and  O_22
REMARK   10  A    between atoms: O_22  and  C_23
REMARK   11  A    between atoms: C_23  and  C_24
REMARK   12  A    between atoms: C_32  and  O_34
REMARK   13  A    between atoms: O_34  and  C_35
REMARK   14  A    between atoms: C_35  and  C_36
REMARK                            x       y       z     vdW  Elec       q    Type
REMARK                         _______ _______ _______ _____ _____    ______ ____
ROOT
ATOM      1  C   UNL     1      -0.633   1.606   1.321  0.00  0.00    +0.028 C 
ATOM      2  C   UNL     1      -0.013   1.086   0.008  0.00  0.00    +0.094 C 
ATOM      3  C   UNL     1       1.427   1.642  -0.003  0.00  0.00    -0.025 C 
ATOM      4  C   UNL     1       0.484   2.432   1.993  0.00  0.00    +0.048 C 
ATOM      5  N   UNL     1       1.713   1.893   1.410  0.00  0.00    +0.393 N 
ATOM      6  H   UNL     1       2.478   2.572   1.503  0.00  0.00    -0.084 HD
ATOM      7  H   UNL     1       1.974   1.018   1.880  0.00  0.00    -0.084 HD
ENDROOT
BRANCH   3   8
ATOM      8  C   UNL     1       2.378   0.628  -0.586  0.00  0.00    -0.061 A 
ATOM      9  C   UNL     1       2.841  -0.414   0.196  0.00  0.00    +0.003 A 
ATOM     10  C   UNL     1       3.709  -1.347  -0.340  0.00  0.00    +0.015 A 
ATOM     11  C   UNL     1       4.122  -1.232  -1.655  0.00  0.00    +0.018 A 
ATOM     12  C   UNL     1       3.663  -0.186  -2.435  0.00  0.00    +0.015 A 
ATOM     13  C   UNL     1       2.791   0.743  -1.900  0.00  0.00    +0.003 A 
ATOM     14 BR   UNL     1       5.316  -2.503  -2.387  0.00  0.00    -0.050 Br
ENDBRANCH   3   8
BRANCH   1  18
ATOM     15  C   UNL     1      -1.770  -1.668   3.826  0.00  0.00    +0.059 A 
ATOM     16  C   UNL     1      -2.730  -0.753   3.389  0.00  0.00    +0.015 A 
ATOM     17  C   UNL     1      -2.357   0.301   2.581  0.00  0.00    +0.004 A 
ATOM     18  C   UNL     1      -1.034   0.452   2.204  0.00  0.00    -0.045 A 
ATOM     19  C   UNL     1      -0.079  -0.454   2.629  0.00  0.00    +0.004 A 
ATOM     20  C   UNL     1      -0.438  -1.509   3.442  0.00  0.00    +0.015 A 
BRANCH  15  21
ATOM     21  C   UNL     1      -2.163  -2.799   4.691  0.00  0.00    +0.339 C 
ATOM     22  O   UNL     1      -3.324  -2.934   5.024  0.00  0.00    -0.245 OA
BRANCH  21  23
ATOM     23  O   UNL     1      -1.235  -3.680   5.112  0.00  0.00    -0.461 OA
BRANCH  23  25
ATOM     24  C   UNL     1      -0.505  -5.656   6.333  0.00  0.00    +0.048 C 
ATOM     25  C   UNL     1      -1.692  -4.766   5.960  0.00  0.00    +0.229 C 
ENDBRANCH  23  25
ENDBRANCH  21  23
ENDBRANCH  15  21
ENDBRANCH   1  18
BRANCH   4  26
ATOM     26  C   UNL     1       0.452   2.242   3.488  0.00  0.00    +0.294 C 
ATOM     27  O   UNL     1       1.184   1.434   4.009  0.00  0.00    -0.253 OA
BRANCH  26  28
ATOM     28  O   UNL     1      -0.388   2.970   4.239  0.00  0.00    -0.466 OA
BRANCH  28  29
ATOM     29  C   UNL     1      -0.365   2.733   5.672  0.00  0.00    +0.228 C 
ATOM     30  C   UNL     1      -1.383   3.647   6.356  0.00  0.00    +0.048 C 
ENDBRANCH  28  29
ENDBRANCH  26  28
ENDBRANCH   4  26
BRANCH   2  31
ATOM     31  C   UNL     1      -0.783   1.605  -1.179  0.00  0.00    +0.309 C 
ATOM     32  O   UNL     1      -1.756   2.301  -1.010  0.00  0.00    -0.251 OA
BRANCH  31  33
ATOM     33  O   UNL     1      -0.388   1.293  -2.423  0.00  0.00    -0.465 OA
BRANCH  33  34
ATOM     34  C   UNL     1      -1.177   1.827  -3.519  0.00  0.00    +0.229 C 
ATOM     35  C   UNL     1      -0.579   1.368  -4.850  0.00  0.00    +0.048 C 
ENDBRANCH  33  34
ENDBRANCH  31  33
ENDBRANCH   2  31
TORSDOF 11
