REMARK  Name = ZINC37760969
REMARK  7 active torsions:
REMARK  status: ('A' for Active; 'I' for Inactive)
REMARK    1  A    between atoms: C_1  and  C_2
REMARK    2  A    between atoms: C_2  and  C_3
REMARK    3  A    between atoms: C_2  and  C_4
REMARK    4  A    between atoms: C_5  and  N_19
REMARK    5  A    between atoms: N_8  and  C_11
REMARK    6  A    between atoms: N_9  and  C_10
REMARK    7  A    between atoms: C_11  and  C_18
REMARK                            x       y       z     vdW  Elec       q    Type
REMARK                         _______ _______ _______ _____ _____    ______ ____
ROOT
ATOM      1  C   UNL     1      -1.514  -0.576  -0.171  0.00  0.00    +0.064 A 
ATOM      2  C   UNL     1      -2.264  -1.394  -0.940  0.00  0.00    +0.113 A 
ATOM      3  C   UNL     1      -3.550  -1.570  -0.262  0.00  0.00    +0.289 A 
ATOM      4  O   UNL     1      -4.488  -2.242  -0.651  0.00  0.00    -0.264 OA
ATOM      5  N   UNL     1      -3.498  -0.846   0.875  0.00  0.00    -0.241 N 
ATOM      6  N   UNL     1      -2.241  -0.233   0.942  0.00  0.00    -0.286 N 
ATOM      7  C   UNL     1      -1.778   0.639   2.025  0.00  0.00    +0.170 C 
ENDROOT
BRANCH   5   8
ATOM      8  C   UNL     1      -4.567  -0.727   1.869  0.00  0.00    +0.083 C 
ATOM      9  C   UNL     1      -4.935  -2.125   2.362  0.00  0.00    +0.054 C 
ATOM     10  C   UNL     1      -6.421  -2.163   2.817  0.00  0.00    +0.168 C 
ATOM     11  S   UNL     1      -7.172  -1.106   1.502  0.00  0.00    -0.029 S 
ATOM     12  O   UNL     1      -7.373  -1.888   0.333  0.00  0.00    -0.174 OA
ATOM     13  O   UNL     1      -8.259  -0.375   2.054  0.00  0.00    -0.174 OA
ATOM     14  C   UNL     1      -5.750   0.031   1.234  0.00  0.00    +0.195 C 
ATOM     15  C   UNL     1      -4.044   0.086   3.055  0.00  0.00    +0.038 C 
ENDBRANCH   5   8
BRANCH   1  17
ATOM     16  C   UNL     1      -0.081   1.407  -0.574  0.00  0.00    +0.014 C 
ATOM     17  C   UNL     1      -0.112  -0.120  -0.480  0.00  0.00    +0.033 C 
ATOM     18  C   UNL     1       0.831  -0.581   0.634  0.00  0.00    +0.014 C 
ENDBRANCH   1  17
BRANCH   2  19
ATOM     19  N   UNL     1      -1.880  -1.972  -2.168  0.00  0.00    -0.352 N 
ATOM     20  H   UNL     1      -1.000  -1.792  -2.535  0.00  0.00    +0.143 HD
ATOM     21  H   UNL     1      -2.495  -2.550  -2.646  0.00  0.00    +0.143 HD
ENDBRANCH   2  19
TORSDOF 3
