REMARK  Name = ZINC39665496
REMARK  10 active torsions:
REMARK  status: ('A' for Active; 'I' for Inactive)
REMARK    1  A    between atoms: C_1  and  C_2
REMARK    2  A    between atoms: C_5  and  C_8
REMARK    3  A    between atoms: C_12  and  C_21
REMARK    4  A    between atoms: N_23  and  C_24
REMARK    5  A    between atoms: C_24  and  C_25
REMARK    6  A    between atoms: C_25  and  C_27
REMARK    7  A    between atoms: C_25  and  O_28
REMARK    8  A    between atoms: O_28  and  C_29
REMARK    9  A    between atoms: C_32  and  O_35
REMARK   10  A    between atoms: O_35  and  C_36
REMARK                            x       y       z     vdW  Elec       q    Type
REMARK                         _______ _______ _______ _____ _____    ______ ____
ROOT
ATOM      1  C   UNL     1       0.037  -4.157  -0.044  0.00  0.00    +0.247 C 
ATOM      2  O   UNL     1       0.063  -2.942  -0.038  0.00  0.00    -0.270 OA
ATOM      3  N   UNL     1      -0.034  -4.835   1.118  0.00  0.00    -0.296 N 
ATOM      4  C   UNL     1      -0.163  -4.281   2.487  0.00  0.00    +0.121 C 
ATOM      5  C   UNL     1      -1.139  -5.239   3.205  0.00  0.00    +0.100 C 
ATOM      6  C   UNL     1      -1.026  -6.565   2.434  0.00  0.00    -0.004 C 
ATOM      7  C   UNL     1      -0.006  -6.304   1.316  0.00  0.00    +0.115 C 
ATOM      8  C   UNL     1      -0.527  -7.673   3.358  0.00  0.00    -0.010 C 
ATOM      9  C   UNL     1      -0.479  -8.993   2.584  0.00  0.00    -0.082 C 
ATOM     10  N   UNL     1      -1.819  -9.316   2.079  0.00  0.00    +0.379 N 
ATOM     11  C   UNL     1      -2.252  -8.293   1.120  0.00  0.00    -0.082 C 
ATOM     12  C   UNL     1      -2.376  -6.943   1.832  0.00  0.00    -0.010 C 
ATOM     13  H   UNL     1      -1.797 -10.216   1.622  0.00  0.00    -0.086 HD
ATOM     14  H   UNL     1      -2.469  -9.349   2.850  0.00  0.00    -0.086 HD
ENDROOT
BRANCH   1  19
ATOM     15  C   UNL     1       0.211  -7.015  -5.036  0.00  0.00    +0.044 C 
ATOM     16  C   UNL     1       0.165  -6.267  -3.729  0.00  0.00    -0.050 A 
ATOM     17  C   UNL     1       0.773  -6.802  -2.607  0.00  0.00    +0.004 A 
ATOM     18  C   UNL     1       0.735  -6.122  -1.407  0.00  0.00    +0.013 A 
ATOM     19  C   UNL     1       0.082  -4.891  -1.327  0.00  0.00    +0.037 A 
ATOM     20  C   UNL     1      -0.529  -4.356  -2.462  0.00  0.00    +0.013 A 
ATOM     21  C   UNL     1      -0.479  -5.044  -3.657  0.00  0.00    +0.004 A 
ENDBRANCH   1  19
BRANCH   5  22
ATOM     22  C   UNL     1      -2.546  -4.706   3.133  0.00  0.00    +0.218 C 
ATOM     23  O   UNL     1      -2.916  -4.103   2.148  0.00  0.00    -0.275 OA
ATOM     24  N   UNL     1      -3.394  -4.899   4.163  0.00  0.00    -0.312 N 
ATOM     25  H   UNL     1      -3.098  -5.381   4.951  0.00  0.00    +0.149 HD
BRANCH  24  26
ATOM     26  C   UNL     1      -4.762  -4.380   4.093  0.00  0.00    +0.148 C 
BRANCH  26  27
ATOM     27  C   UNL     1      -5.508  -4.733   5.381  0.00  0.00    +0.187 C 
ATOM     28  C   UNL     1      -6.971  -4.302   5.258  0.00  0.00    +0.053 C 
BRANCH  27  29
ATOM     29  O   UNL     1      -4.903  -4.055   6.483  0.00  0.00    -0.488 OA
BRANCH  29  30
ATOM     30  C   UNL     1      -5.073  -4.604   7.715  0.00  0.00    +0.121 A 
ATOM     31  C   UNL     1      -4.598  -3.945   8.840  0.00  0.00    +0.049 A 
ATOM     32  C   UNL     1      -4.771  -4.504  10.092  0.00  0.00    +0.049 A 
ATOM     33  C   UNL     1      -5.418  -5.723  10.224  0.00  0.00    +0.120 A 
ATOM     34  C   UNL     1      -5.894  -6.381   9.099  0.00  0.00    +0.049 A 
ATOM     35  C   UNL     1      -5.725  -5.821   7.848  0.00  0.00    +0.049 A 
BRANCH  33  36
ATOM     36  O   UNL     1      -5.587  -6.273  11.456  0.00  0.00    -0.495 OA
ATOM     37  C   UNL     1      -6.263  -7.531  11.518  0.00  0.00    +0.277 C 
ENDBRANCH  33  36
ENDBRANCH  29  30
ENDBRANCH  27  29
ENDBRANCH  26  27
ENDBRANCH  24  26
ENDBRANCH   5  22
TORSDOF 7
