REMARK  Name = ZINC35304149
REMARK  15 active torsions:
REMARK  status: ('A' for Active; 'I' for Inactive)
REMARK    1  A    between atoms: C_1  and  C_2
REMARK    2  A    between atoms: C_4  and  C_36
REMARK    3  A    between atoms: C_5  and  S_9
REMARK    4  A    between atoms: C_6  and  C_8
REMARK    5  A    between atoms: S_9  and  N_12
REMARK    6  A    between atoms: N_12  and  C_13
REMARK    7  A    between atoms: C_16  and  C_19
REMARK    8  A    between atoms: C_21  and  C_29
REMARK    9  A    between atoms: C_22  and  C_28
REMARK   10  A    between atoms: N_23  and  C_27
REMARK   11  A    between atoms: C_29  and  O_31
REMARK   12  A    between atoms: O_31  and  C_32
REMARK   13  A    between atoms: C_32  and  C_33
REMARK   14  A    between atoms: C_33  and  C_34
REMARK   15  A    between atoms: C_33  and  C_35
REMARK                            x       y       z     vdW  Elec       q    Type
REMARK                         _______ _______ _______ _____ _____    ______ ____
ROOT
ATOM      1  C   UNL     1       1.691  -3.364   1.950  0.00  0.00    +0.048 A 
ATOM      2  C   UNL     1       0.519  -3.801   2.555  0.00  0.00    +0.025 A 
ATOM      3  C   UNL     1       0.451  -3.904   3.930  0.00  0.00    +0.007 A 
ATOM      4  C   UNL     1       1.546  -3.571   4.706  0.00  0.00    -0.022 A 
ATOM      5  C   UNL     1       2.714  -3.135   4.107  0.00  0.00    +0.007 A 
ATOM      6  C   UNL     1       2.792  -3.036   2.731  0.00  0.00    +0.025 A 
ENDROOT
BRANCH   4   7
ATOM      7  C   UNL     1       1.467  -3.682   6.206  0.00  0.00    +0.141 C 
ATOM      8  C   UNL     1       0.567  -2.573   6.710  0.00  0.00    +0.078 C 
ATOM      9  C   UNL     1      -0.525  -2.925   7.425  0.00  0.00    +0.021 C 
ATOM     10  N   UNL     1      -0.805  -4.235   7.683  0.00  0.00    -0.289 N 
ATOM     11  C   UNL     1      -0.045  -5.254   7.263  0.00  0.00    +0.137 C 
ATOM     12  S   UNL     1      -0.512  -6.853   7.657  0.00  0.00    -0.018 S 
ATOM     13  N   UNL     1       1.075  -5.062   6.539  0.00  0.00    -0.315 N 
ATOM     14  C   UNL     1      -2.005  -4.544   8.465  0.00  0.00    +0.137 C 
ATOM     15  C   UNL     1      -1.448  -1.853   7.945  0.00  0.00    +0.061 C 
ATOM     16  H   UNL     1       1.610  -5.815   6.244  0.00  0.00    +0.149 HD
BRANCH   8  17
ATOM     17  C   UNL     1       0.859  -1.215   6.443  0.00  0.00    +0.339 C 
ATOM     18  O   UNL     1       0.181  -0.337   6.944  0.00  0.00    -0.245 OA
BRANCH  17  19
ATOM     19  O   UNL     1       1.889  -0.894   5.632  0.00  0.00    -0.461 OA
BRANCH  19  20
ATOM     20  C   UNL     1       2.214   0.493   5.516  0.00  0.00    +0.235 C 
BRANCH  20  21
ATOM     21  C   UNL     1       3.305   0.673   4.459  0.00  0.00    +0.020 C 
ATOM     22  C   UNL     1       2.743   0.323   3.080  0.00  0.00    +0.010 C 
ATOM     23  C   UNL     1       3.781   2.127   4.461  0.00  0.00    +0.010 C 
ENDBRANCH  20  21
ENDBRANCH  19  20
ENDBRANCH  17  19
ENDBRANCH   8  17
ENDBRANCH   4   7
BRANCH   1  24
ATOM     24  N   UNL     1       1.764  -3.260   0.559  0.00  0.00    -0.216 N 
ATOM     25  H   UNL     1       1.054  -2.819   0.068  0.00  0.00    +0.174 HD
BRANCH  24  26
ATOM     26  S   UNL     1       3.063  -3.891  -0.251  0.00  0.00    +0.073 S 
ATOM     27  O   UNL     1       4.225  -3.444   0.434  0.00  0.00    -0.150 OA
ATOM     28  O   UNL     1       2.846  -3.632  -1.631  0.00  0.00    -0.150 OA
BRANCH  26  33
ATOM     29  C   UNL     1       2.858  -9.883   0.430  0.00  0.00    +0.044 C 
ATOM     30  C   UNL     1       2.909  -8.386   0.260  0.00  0.00    -0.050 A 
ATOM     31  C   UNL     1       2.153  -7.776  -0.723  0.00  0.00    +0.008 A 
ATOM     32  C   UNL     1       2.200  -6.403  -0.879  0.00  0.00    -0.023 A 
ATOM     33  C   UNL     1       3.003  -5.641  -0.052  0.00  0.00    +0.114 A 
ATOM     34  C   UNL     1       3.759  -6.251   0.932  0.00  0.00    -0.023 A 
ATOM     35  C   UNL     1       3.708  -7.623   1.091  0.00  0.00    +0.008 A 
ATOM     36  C   UNL     1       4.635  -5.420   1.833  0.00  0.00    +0.046 C 
ATOM     37  C   UNL     1       1.376  -5.738  -1.951  0.00  0.00    +0.046 C 
ENDBRANCH  26  33
ENDBRANCH  24  26
ENDBRANCH   1  24
TORSDOF 8
