REMARK  Name = ZINC02585807
REMARK  9 active torsions:
REMARK  status: ('A' for Active; 'I' for Inactive)
REMARK    1  A    between atoms: C_1  and  C_2
REMARK    2  A    between atoms: C_2  and  C_26
REMARK    3  A    between atoms: N_4  and  S_13
REMARK    4  A    between atoms: C_7  and  N_12
REMARK    5  A    between atoms: S_13  and  C_16
REMARK    6  A    between atoms: C_19  and  C_22
REMARK    7  A    between atoms: C_22  and  C_23
REMARK    8  A    between atoms: C_22  and  C_24
REMARK    9  A    between atoms: C_22  and  C_25
REMARK                            x       y       z     vdW  Elec       q    Type
REMARK                         _______ _______ _______ _____ _____    ______ ____
ROOT
ATOM      1  C   UNL     1      -1.142  -4.702  -3.963  0.00  0.00    +0.057 C 
ATOM      2  C   UNL     1       0.133  -4.438  -3.158  0.00  0.00    +0.122 C 
ATOM      3  C   UNL     1      -0.041  -3.168  -2.320  0.00  0.00    +0.179 C 
ATOM      4  N   UNL     1       1.223  -2.923  -1.606  0.00  0.00    -0.196 N 
ATOM      5  C   UNL     1       2.421  -3.118  -2.312  0.00  0.00    +0.095 A 
ATOM      6  C   UNL     1       3.615  -2.641  -1.797  0.00  0.00    +0.051 A 
ATOM      7  C   UNL     1       4.797  -2.839  -2.497  0.00  0.00    +0.027 A 
ATOM      8  C   UNL     1       4.779  -3.514  -3.711  0.00  0.00    +0.026 A 
ATOM      9  C   UNL     1       3.587  -3.988  -4.224  0.00  0.00    +0.049 A 
ATOM     10  C   UNL     1       2.402  -3.792  -3.531  0.00  0.00    +0.144 A 
ATOM     11  O   UNL     1       1.234  -4.256  -4.051  0.00  0.00    -0.483 OA
ATOM     12  C   UNL     1       0.412  -5.625  -2.235  0.00  0.00    +0.057 C 
ENDROOT
BRANCH   7  13
ATOM     13  N   UNL     1       6.006  -2.359  -1.981  0.00  0.00    -0.358 N 
ATOM     14  H   UNL     1       6.018  -1.887  -1.133  0.00  0.00    +0.142 HD
ATOM     15  H   UNL     1       6.832  -2.497  -2.471  0.00  0.00    +0.142 HD
ENDBRANCH   7  13
BRANCH   4  16
ATOM     16  S   UNL     1       1.232  -2.441  -0.022  0.00  0.00    +0.075 S 
ATOM     17  O   UNL     1       2.489  -2.832   0.515  0.00  0.00    -0.150 OA
ATOM     18  O   UNL     1      -0.002  -2.866   0.539  0.00  0.00    -0.150 OA
BRANCH  16  19
ATOM     19  C   UNL     1       1.208  -0.679  -0.013  0.00  0.00    +0.109 A 
ATOM     20  C   UNL     1       0.002  -0.004   0.002  0.00  0.00    +0.029 A 
ATOM     21  C   UNL     1      -0.017   1.378   0.010  0.00  0.00    +0.006 A 
ATOM     22  C   UNL     1       1.171   2.086   0.002  0.00  0.00    -0.042 A 
ATOM     23  C   UNL     1       2.377   1.411  -0.015  0.00  0.00    +0.006 A 
ATOM     24  C   UNL     1       2.396   0.029  -0.021  0.00  0.00    +0.029 A 
BRANCH  22  25
ATOM     25  C   UNL     1       1.151   3.592   0.010  0.00  0.00    -0.013 C 
ATOM     26  C   UNL     1       0.434   4.086   1.268  0.00  0.00    +0.015 C 
ATOM     27  C   UNL     1       2.586   4.122  -0.001  0.00  0.00    +0.015 C 
ATOM     28  C   UNL     1       0.411   4.099  -1.230  0.00  0.00    +0.015 C 
ENDBRANCH  22  25
ENDBRANCH  16  19
ENDBRANCH   4  16
TORSDOF 4
