REMARK  Name = ZINC06258135
REMARK  5 active torsions:
REMARK  status: ('A' for Active; 'I' for Inactive)
REMARK    1  A    between atoms: C_7  and  C_14
REMARK    2  A    between atoms: N_9  and  C_10
REMARK    3  A    between atoms: C_10  and  C_11
REMARK    4  A    between atoms: N_15  and  N_16
REMARK    5  A    between atoms: C_17  and  C_19
REMARK                            x       y       z     vdW  Elec       q    Type
REMARK                         _______ _______ _______ _____ _____    ______ ____
ROOT
ATOM      1  C   UNL     1      -0.017   1.373   0.010  0.00  0.00    +0.001 A 
ATOM      2  C   UNL     1       1.172   2.090   0.002  0.00  0.00    +0.002 A 
ATOM      3  C   UNL     1       2.385   1.438  -0.013  0.00  0.00    +0.026 A 
ATOM      4  C   UNL     1       2.425   0.047  -0.021  0.00  0.00    +0.050 A 
ATOM      5  C   UNL     1       1.222  -0.677  -0.013  0.00  0.00    +0.009 A 
ATOM      6  C   UNL     1       0.002  -0.004   0.002  0.00  0.00    +0.010 A 
ATOM      7  C   UNL     1       1.604  -2.101  -0.024  0.00  0.00    +0.020 A 
ATOM      8  C   UNL     1       2.964  -2.137  -0.037  0.00  0.00    +0.096 A 
ATOM      9  N   UNL     1       3.458  -0.867  -0.035  0.00  0.00    -0.337 N 
ENDROOT
BRANCH   7  10
ATOM     10  C   UNL     1       0.693  -3.256  -0.021  0.00  0.00    +0.140 C 
ATOM     11  N   UNL     1      -0.593  -3.070  -0.008  0.00  0.00    -0.187 NA
BRANCH  11  12
ATOM     12  N   UNL     1      -1.460  -4.170  -0.005  0.00  0.00    -0.203 N 
ATOM     13  C   UNL     1      -2.794  -3.976   0.009  0.00  0.00    +0.263 C 
ATOM     14  O   UNL     1      -3.245  -2.847   0.020  0.00  0.00    -0.268 OA
ATOM     15  H   UNL     1      -1.101  -5.071  -0.013  0.00  0.00    +0.178 HD
BRANCH  13  16
ATOM     16  C   UNL     1      -3.709  -5.136   0.012  0.00  0.00    +0.038 A 
ATOM     17  C   UNL     1      -3.195  -6.435   0.006  0.00  0.00    +0.014 A 
ATOM     18  C   UNL     1      -4.053  -7.513   0.009  0.00  0.00    +0.021 A 
ATOM     19  C   UNL     1      -5.424  -7.311   0.018  0.00  0.00    +0.041 A 
ATOM     20  C   UNL     1      -5.940  -6.026   0.024  0.00  0.00    +0.021 A 
ATOM     21  C   UNL     1      -5.091  -4.939   0.027  0.00  0.00    +0.014 A 
ATOM     22 CL   UNL     1      -6.499  -8.674   0.021  0.00  0.00    -0.084 Cl
ENDBRANCH  13  16
ENDBRANCH  11  12
ENDBRANCH   7  10
BRANCH   9  23
ATOM     23  C   UNL     1       4.881  -0.522  -0.047  0.00  0.00    +0.217 C 
BRANCH  23  24
ATOM     24  C   UNL     1       5.354  -0.291   1.365  0.00  0.00    +0.230 C 
ATOM     25  O   UNL     1       4.578  -0.403   2.290  0.00  0.00    -0.274 OA
ATOM     26  N   UNL     1       6.639   0.041   1.600  0.00  0.00    -0.328 N 
ATOM     27  H   UNL     1       7.260   0.131   0.860  0.00  0.00    +0.145 HD
ATOM     28  H   UNL     1       6.943   0.190   2.509  0.00  0.00    +0.145 HD
ENDBRANCH  23  24
ENDBRANCH   9  23
TORSDOF 5
