REMARK  Name = ZINC08706989
REMARK  9 active torsions:
REMARK  status: ('A' for Active; 'I' for Inactive)
REMARK    1  A    between atoms: C_1  and  C_2
REMARK    2  A    between atoms: C_2  and  C_4
REMARK    3  A    between atoms: C_2  and  S_17
REMARK    4  A    between atoms: N_6  and  C_7
REMARK    5  A    between atoms: C_10  and  S_13
REMARK    6  A    between atoms: S_13  and  N_16
REMARK    7  A    between atoms: S_17  and  C_18
REMARK    8  A    between atoms: N_28  and  C_29
REMARK    9  A    between atoms: C_29  and  C_30
REMARK                            x       y       z     vdW  Elec       q    Type
REMARK                         _______ _______ _______ _____ _____    ______ ____
ROOT
ATOM      1  C   UNL     1      -0.759   1.606  -1.230  0.00  0.00    +0.029 C 
ATOM      2  C   UNL     1      -0.017   1.089   0.004  0.00  0.00    +0.137 C 
ENDROOT
BRANCH   2   3
ATOM      3  C   UNL     1      -0.717   1.571   1.249  0.00  0.00    +0.230 C 
ATOM      4  O   UNL     1      -0.341   2.582   1.803  0.00  0.00    -0.274 OA
ATOM      5  N   UNL     1      -1.761   0.878   1.746  0.00  0.00    -0.285 N 
ATOM      6  H   UNL     1      -2.104   0.108   1.266  0.00  0.00    +0.155 HD
BRANCH   5   7
ATOM      7  C   UNL     1      -2.349   1.270   2.953  0.00  0.00    +0.034 A 
ATOM      8  C   UNL     1      -2.852   0.313   3.825  0.00  0.00    +0.025 A 
ATOM      9  C   UNL     1      -3.427   0.702   5.019  0.00  0.00    +0.030 A 
ATOM     10  C   UNL     1      -3.513   2.044   5.341  0.00  0.00    +0.105 A 
ATOM     11  C   UNL     1      -3.019   3.000   4.473  0.00  0.00    +0.030 A 
ATOM     12  C   UNL     1      -2.437   2.617   3.280  0.00  0.00    +0.025 A 
BRANCH  10  13
ATOM     13  S   UNL     1      -4.253   2.537   6.862  0.00  0.00    +0.056 S 
ATOM     14  O   UNL     1      -4.145   1.429   7.745  0.00  0.00    -0.153 OA
ATOM     15  O   UNL     1      -3.721   3.816   7.177  0.00  0.00    -0.153 OA
BRANCH  13  16
ATOM     16  N   UNL     1      -5.869   2.756   6.572  0.00  0.00    -0.204 NA
ATOM     17  H   UNL     1      -6.226   2.608   5.682  0.00  0.00    +0.144 HD
ATOM     18  H   UNL     1      -6.458   3.031   7.292  0.00  0.00    +0.144 HD
ENDBRANCH  13  16
ENDBRANCH  10  13
ENDBRANCH   5   7
ENDBRANCH   2   3
BRANCH   2  19
ATOM     19  S   UNL     1       1.683   1.710  -0.010  0.00  0.00    -0.075 S 
BRANCH  19  20
ATOM     20  C   UNL     1       2.294   0.895  -1.449  0.00  0.00    +0.173 A 
ATOM     21  N   UNL     1       1.484   0.108  -2.112  0.00  0.00    -0.223 NA
ATOM     22  C   UNL     1       1.887  -0.544  -3.228  0.00  0.00    +0.080 A 
ATOM     23  C   UNL     1       1.022  -1.381  -3.939  0.00  0.00    +0.048 A 
ATOM     24  C   UNL     1       1.479  -2.028  -5.066  0.00  0.00    +0.043 A 
ATOM     25  C   UNL     1       2.788  -1.859  -5.504  0.00  0.00    +0.021 A 
ATOM     26  C   UNL     1       3.652  -1.047  -4.824  0.00  0.00    +0.017 A 
ATOM     27  C   UNL     1       3.216  -0.379  -3.680  0.00  0.00    +0.065 A 
ATOM     28  C   UNL     1       4.104   0.505  -2.914  0.00  0.00    +0.263 A 
ATOM     29  O   UNL     1       5.258   0.688  -3.253  0.00  0.00    -0.267 OA
ATOM     30  N   UNL     1       3.591   1.110  -1.817  0.00  0.00    -0.283 N 
ATOM     31 CL   UNL     1       0.406  -3.067  -5.952  0.00  0.00    -0.083 Cl
BRANCH  30  32
ATOM     32  C   UNL     1       4.436   2.001  -1.018  0.00  0.00    +0.154 C 
BRANCH  32  33
ATOM     33  C   UNL     1       5.134   1.204   0.054  0.00  0.00    -0.013 C 
ATOM     34  C   UNL     1       6.439   1.245   0.155  0.00  0.00    +0.005 C 
ENDBRANCH  32  33
ENDBRANCH  30  32
ENDBRANCH  19  20
ENDBRANCH   2  19
TORSDOF 8
