REMARK  Name = ZINC12710583
REMARK  7 active torsions:
REMARK  status: ('A' for Active; 'I' for Inactive)
REMARK    1  A    between atoms: C_1  and  C_2
REMARK    2  A    between atoms: C_2  and  N_64
REMARK    3  A    between atoms: C_6  and  C_8
REMARK    4  A    between atoms: C_8  and  N_9
REMARK    5  A    between atoms: N_9  and  C_10
REMARK    6  A    between atoms: C_10  and  C_11
REMARK    7  A    between atoms: N_29  and  C_30
REMARK                            x       y       z     vdW  Elec       q    Type
REMARK                         _______ _______ _______ _____ _____    ______ ____
ROOT
ATOM      1  N   UNL     1      -2.077  -0.723  -0.053  0.00  0.00    -0.282 N 
ATOM      2  C   UNL     1      -2.510  -1.105  -1.271  0.00  0.00    +0.307 C 
ATOM      3  O   UNL     1      -3.151  -0.333  -1.958  0.00  0.00    -0.252 OA
ATOM      4  N   UNL     1      -2.232  -2.342  -1.728  0.00  0.00    -0.269 N 
ATOM      5  H   UNL     1      -1.786  -2.983  -1.152  0.00  0.00    +0.156 HD
ENDROOT
BRANCH   4   6
ATOM      6  C   UNL     1      -2.587  -2.703  -3.033  0.00  0.00    +0.035 A 
ATOM      7  C   UNL     1      -2.958  -4.010  -3.317  0.00  0.00    +0.023 A 
ATOM      8  C   UNL     1      -3.312  -4.361  -4.605  0.00  0.00    +0.002 A 
ATOM      9  C   UNL     1      -3.287  -3.415  -5.613  0.00  0.00    +0.000 A 
ATOM     10  C   UNL     1      -2.913  -2.113  -5.334  0.00  0.00    +0.002 A 
ATOM     11  C   UNL     1      -2.563  -1.754  -4.047  0.00  0.00    +0.023 A 
ENDBRANCH   4   6
BRANCH   1  12
ATOM     12  C   UNL     1      -1.304  -1.653   0.774  0.00  0.00    +0.094 C 
BRANCH  12  16
ATOM     13  C   UNL     1      -3.846  -4.045   1.988  0.00  0.00    -0.078 C 
ATOM     14  C   UNL     1      -2.563  -4.624   2.622  0.00  0.00    -0.020 C 
ATOM     15  C   UNL     1      -1.506  -3.510   2.474  0.00  0.00    -0.016 C 
ATOM     16  C   UNL     1      -2.239  -2.352   1.764  0.00  0.00    -0.051 C 
ATOM     17  N   UNL     1      -3.346  -3.022   1.072  0.00  0.00    +0.382 N 
ATOM     18  H   UNL     1      -3.007  -3.461   0.208  0.00  0.00    -0.081 HD
BRANCH  17  20
ATOM     19  C   UNL     1      -5.366  -2.635  -0.313  0.00  0.00    -0.017 C 
ATOM     20  C   UNL     1      -4.423  -2.039   0.733  0.00  0.00    -0.082 C 
ENDBRANCH  17  20
ENDBRANCH  12  16
ENDBRANCH   1  12
BRANCH   1  21
ATOM     21  C   UNL     1      -2.379   0.622   0.443  0.00  0.00    +0.149 C 
BRANCH  21  22
ATOM     22  C   UNL     1      -1.242   1.550   0.102  0.00  0.00    +0.035 A 
ATOM     23  C   UNL     1      -1.290   2.290  -1.035  0.00  0.00    +0.020 A 
ATOM     24  C   UNL     1      -0.174   3.185  -1.335  0.00  0.00    +0.003 A 
ATOM     25  C   UNL     1      -0.172   3.976  -2.490  0.00  0.00    +0.059 A 
ATOM     26  C   UNL     1       0.897   4.809  -2.748  0.00  0.00    +0.163 A 
ATOM     27  C   UNL     1       1.975   4.866  -1.861  0.00  0.00    +0.164 A 
ATOM     28  C   UNL     1       1.983   4.086  -0.717  0.00  0.00    +0.075 A 
ATOM     29  C   UNL     1       0.915   3.242  -0.442  0.00  0.00    +0.053 A 
ATOM     30  N   UNL     1       0.905   2.458   0.694  0.00  0.00    -0.322 N 
ATOM     31  H   UNL     1       1.655   2.497   1.307  0.00  0.00    +0.169 HD
ATOM     32  C   UNL     1      -0.129   1.643   0.963  0.00  0.00    +0.254 A 
ATOM     33  O   UNL     1      -0.103   0.965   1.976  0.00  0.00    -0.268 OA
ATOM     34  O   UNL     1       3.030   5.690  -2.105  0.00  0.00    -0.485 OA
ATOM     35  C   UNL     1       3.169   6.179  -3.443  0.00  0.00    +0.270 C 
ATOM     36  C   UNL     1       1.797   6.673  -3.920  0.00  0.00    +0.270 C 
ATOM     37  O   UNL     1       0.885   5.570  -3.878  0.00  0.00    -0.485 OA
ENDBRANCH  21  22
ENDBRANCH   1  21
TORSDOF 6
