REMARK  Name = ZINC36597826
REMARK  17 active torsions:
REMARK  status: ('A' for Active; 'I' for Inactive)
REMARK    1  A    between atoms: C_1  and  C_2
REMARK    2  A    between atoms: C_5  and  C_7
REMARK    3  A    between atoms: C_7  and  N_8
REMARK    4  A    between atoms: N_8  and  C_9
REMARK    5  A    between atoms: C_9  and  C_11
REMARK    6  A    between atoms: C_9  and  C_18
REMARK    7  A    between atoms: N_20  and  C_21
REMARK    8  A    between atoms: C_21  and  C_22
REMARK    9  A    between atoms: C_21  and  C_23
REMARK   10  A    between atoms: C_21  and  C_24
REMARK   11  A    between atoms: C_24  and  C_25
REMARK   12  A    between atoms: C_25  and  C_26
REMARK   13  A    between atoms: C_25  and  C_27
REMARK   14  A    between atoms: C_25  and  C_28
REMARK   15  A    between atoms: C_29  and  C_31
REMARK   16  A    between atoms: C_35  and  O_38
REMARK   17  A    between atoms: C_36  and  O_37
REMARK                            x       y       z     vdW  Elec       q    Type
REMARK                         _______ _______ _______ _____ _____    ______ ____
ROOT
ATOM      1  N   UNL     1       2.905  -3.673   0.013  0.00  0.00    -0.275 N 
ATOM      2  C   UNL     1       1.640  -4.089   0.217  0.00  0.00    +0.252 C 
ATOM      3  O   UNL     1       1.299  -4.482   1.316  0.00  0.00    -0.270 OA
ENDROOT
BRANCH   2   4
ATOM      4  C   UNL     1       0.668  -4.068  -0.892  0.00  0.00    +0.082 A 
ATOM      5  C   UNL     1       1.017  -3.499  -2.121  0.00  0.00    +0.017 A 
ATOM      6  C   UNL     1       0.107  -3.482  -3.155  0.00  0.00    +0.005 A 
ATOM      7  C   UNL     1      -1.156  -4.025  -2.985  0.00  0.00    +0.049 A 
ATOM      8  C   UNL     1      -1.517  -4.591  -1.774  0.00  0.00    +0.159 A 
ATOM      9  C   UNL     1      -0.607  -4.621  -0.722  0.00  0.00    +0.171 A 
BRANCH   9  10
ATOM     10  O   UNL     1      -0.954  -5.181   0.465  0.00  0.00    -0.503 OA
ATOM     11  H   UNL     1      -1.357  -4.561   1.088  0.00  0.00    +0.292 HD
ENDBRANCH   9  10
BRANCH   8  12
ATOM     12  O   UNL     1      -2.759  -5.122  -1.615  0.00  0.00    -0.503 OA
ATOM     13  H   UNL     1      -2.819  -6.059  -1.846  0.00  0.00    +0.292 HD
ENDBRANCH   8  12
ENDBRANCH   2   4
BRANCH   1  14
ATOM     14  C   UNL     1       3.929  -3.912   1.033  0.00  0.00    +0.183 C 
BRANCH  14  19
ATOM     15  C   UNL     1       4.620  -8.908   1.114  0.00  0.00    +0.086 C 
ATOM     16  C   UNL     1       4.848  -7.442   0.851  0.00  0.00    +0.102 A 
ATOM     17  C   UNL     1       5.907  -6.912   0.214  0.00  0.00    +0.045 A 
ATOM     18  C   UNL     1       5.713  -5.512   0.191  0.00  0.00    +0.046 A 
ATOM     19  C   UNL     1       4.547  -5.269   0.816  0.00  0.00    +0.122 A 
ATOM     20  O   UNL     1       4.024  -6.443   1.208  0.00  0.00    -0.463 OA
ENDBRANCH  14  19
ENDBRANCH   1  14
BRANCH   1  21
ATOM     21  C   UNL     1       3.257  -2.981  -1.230  0.00  0.00    +0.193 C 
BRANCH  21  22
ATOM     22  C   UNL     1       2.458  -1.708  -1.339  0.00  0.00    -0.018 A 
ATOM     23  C   UNL     1       2.103  -1.014  -0.197  0.00  0.00    +0.007 A 
ATOM     24  C   UNL     1       1.370   0.153  -0.297  0.00  0.00    +0.020 A 
ATOM     25  C   UNL     1       0.992   0.628  -1.540  0.00  0.00    +0.041 A 
ATOM     26  C   UNL     1       1.347  -0.067  -2.683  0.00  0.00    +0.020 A 
ATOM     27  C   UNL     1       2.085  -1.231  -2.582  0.00  0.00    +0.007 A 
ATOM     28 CL   UNL     1       0.071   2.094  -1.667  0.00  0.00    -0.084 Cl
ENDBRANCH  21  22
BRANCH  21  29
ATOM     29  C   UNL     1       4.728  -2.652  -1.222  0.00  0.00    +0.239 C 
ATOM     30  O   UNL     1       5.442  -3.085  -0.343  0.00  0.00    -0.273 OA
ATOM     31  N   UNL     1       5.250  -1.876  -2.193  0.00  0.00    -0.308 N 
ATOM     32  H   UNL     1       4.668  -1.472  -2.856  0.00  0.00    +0.149 HD
BRANCH  31  33
ATOM     33  C   UNL     1       6.695  -1.642  -2.246  0.00  0.00    +0.030 C 
ATOM     34  C   UNL     1       7.096  -0.673  -1.132  0.00  0.00    +0.031 C 
ATOM     35  C   UNL     1       7.433  -2.969  -2.059  0.00  0.00    +0.031 C 
BRANCH  33  36
ATOM     36  C   UNL     1       7.064  -1.040  -3.603  0.00  0.00    +0.031 C 
BRANCH  36  37
ATOM     37  C   UNL     1       6.335  -1.799  -4.713  0.00  0.00    -0.036 C 
ATOM     38  C   UNL     1       4.865  -1.373  -4.742  0.00  0.00    +0.010 C 
ATOM     39  C   UNL     1       6.984  -1.479  -6.061  0.00  0.00    +0.010 C 
ATOM     40  C   UNL     1       6.425  -3.303  -4.448  0.00  0.00    +0.010 C 
ENDBRANCH  36  37
ENDBRANCH  33  36
ENDBRANCH  31  33
ENDBRANCH  21  29
ENDBRANCH   1  21
TORSDOF 11
