REMARK  Name = ZINC01711657
REMARK  16 active torsions:
REMARK  status: ('A' for Active; 'I' for Inactive)
REMARK    1  A    between atoms: C_1  and  O_2
REMARK    2  A    between atoms: O_2  and  C_3
REMARK    3  A    between atoms: C_5  and  C_13
REMARK    4  A    between atoms: C_7  and  O_11
REMARK    5  A    between atoms: C_8  and  O_9
REMARK    6  A    between atoms: O_9  and  C_10
REMARK    7  A    between atoms: O_11  and  C_12
REMARK    8  A    between atoms: C_14  and  C_25
REMARK    9  A    between atoms: C_19  and  N_24
REMARK   10  A    between atoms: C_21  and  N_23
REMARK   11  A    between atoms: C_27  and  O_35
REMARK   12  A    between atoms: C_28  and  O_33
REMARK   13  A    between atoms: C_29  and  O_31
REMARK   14  A    between atoms: O_31  and  C_32
REMARK   15  A    between atoms: O_33  and  C_34
REMARK   16  A    between atoms: O_35  and  C_36
REMARK                            x       y       z     vdW  Elec       q    Type
REMARK                         _______ _______ _______ _____ _____    ______ ____
ROOT
ATOM      1  C   UNL     1       2.743   0.150   4.205  0.00  0.00    +0.098 A 
ATOM      2  C   UNL     1       2.347  -0.106   5.540  0.00  0.00    +0.099 A 
ATOM      3  N   UNL     1       2.627   0.762   6.497  0.00  0.00    -0.225 NA
ATOM      4  C   UNL     1       3.287   1.889   6.204  0.00  0.00    +0.160 A 
ATOM      5  C   UNL     1       3.680   2.140   4.866  0.00  0.00    +0.127 A 
ATOM      6  N   UNL     1       3.400   1.257   3.907  0.00  0.00    -0.240 NA
ATOM      7  C   UNL     1       4.379   3.339   4.570  0.00  0.00    +0.057 A 
ATOM      8  C   UNL     1       4.645   4.211   5.608  0.00  0.00    +0.066 A 
ATOM      9  C   UNL     1       4.224   3.894   6.902  0.00  0.00    +0.097 A 
ATOM     10  N   UNL     1       3.575   2.775   7.163  0.00  0.00    -0.327 N 
ATOM     11  H   UNL     1       3.300   2.591   8.075  0.00  0.00    +0.169 HD
ENDROOT
BRANCH   1  14
ATOM     12  C   UNL     1       1.611  -1.308   0.928  0.00  0.00    +0.166 A 
ATOM     13  C   UNL     1       1.907  -0.392   1.922  0.00  0.00    +0.059 A 
ATOM     14  C   UNL     1       2.425  -0.829   3.140  0.00  0.00    +0.010 A 
ATOM     15  C   UNL     1       2.644  -2.190   3.355  0.00  0.00    +0.059 A 
ATOM     16  C   UNL     1       2.347  -3.103   2.359  0.00  0.00    +0.166 A 
ATOM     17  C   UNL     1       1.825  -2.666   1.146  0.00  0.00    +0.204 A 
BRANCH  12  19
ATOM     18  C   UNL     1       0.912   0.525  -0.416  0.00  0.00    +0.277 C 
ATOM     19  O   UNL     1       1.106  -0.882  -0.261  0.00  0.00    -0.491 OA
ENDBRANCH  12  19
BRANCH  17  20
ATOM     20  O   UNL     1       1.528  -3.565   0.170  0.00  0.00    -0.488 OA
ATOM     21  C   UNL     1       2.567  -3.883  -0.758  0.00  0.00    +0.277 C 
ENDBRANCH  17  20
BRANCH  16  22
ATOM     22  O   UNL     1       2.561  -4.430   2.568  0.00  0.00    -0.491 OA
ATOM     23  C   UNL     1       3.093  -4.809   3.838  0.00  0.00    +0.277 C 
ENDBRANCH  16  22
ENDBRANCH   1  14
BRANCH   2  24
ATOM     24  C   UNL     1       1.617  -1.352   5.866  0.00  0.00    +0.010 A 
ATOM     25  C   UNL     1       0.561  -1.774   5.058  0.00  0.00    +0.059 A 
ATOM     26  C   UNL     1      -0.120  -2.938   5.364  0.00  0.00    +0.166 A 
ATOM     27  C   UNL     1       0.247  -3.688   6.477  0.00  0.00    +0.204 A 
ATOM     28  C   UNL     1       1.300  -3.269   7.285  0.00  0.00    +0.166 A 
ATOM     29  C   UNL     1       1.987  -2.108   6.979  0.00  0.00    +0.059 A 
BRANCH  28  30
ATOM     30  O   UNL     1       1.656  -4.003   8.372  0.00  0.00    -0.491 OA
ATOM     31  C   UNL     1       2.746  -3.513   9.157  0.00  0.00    +0.277 C 
ENDBRANCH  28  30
BRANCH  27  32
ATOM     32  O   UNL     1      -0.424  -4.832   6.777  0.00  0.00    -0.488 OA
ATOM     33  C   UNL     1       0.070  -6.044   6.203  0.00  0.00    +0.277 C 
ENDBRANCH  27  32
BRANCH  26  34
ATOM     34  O   UNL     1      -1.150  -3.350   4.577  0.00  0.00    -0.491 OA
ATOM     35  C   UNL     1      -1.473  -2.532   3.450  0.00  0.00    +0.277 C 
ENDBRANCH  26  34
ENDBRANCH   2  24
BRANCH   9  36
ATOM     36  N   UNL     1       4.496   4.776   7.936  0.00  0.00    -0.345 N 
ATOM     37  H   UNL     1       4.973   5.601   7.758  0.00  0.00    +0.144 HD
ATOM     38  H   UNL     1       4.209   4.567   8.839  0.00  0.00    +0.144 HD
ENDBRANCH   9  36
BRANCH   7  39
ATOM     39  N   UNL     1       4.785   3.626   3.274  0.00  0.00    -0.356 N 
ATOM     40  H   UNL     1       4.591   3.004   2.556  0.00  0.00    +0.142 HD
ATOM     41  H   UNL     1       5.262   4.450   3.087  0.00  0.00    +0.142 HD
ENDBRANCH   7  39
TORSDOF 10
