REMARK  Name = ZINC08435989
REMARK  3 active torsions:
REMARK  status: ('A' for Active; 'I' for Inactive)
REMARK    1  A    between atoms: C_4  and  C_7
REMARK    2  A    between atoms: C_9  and  N_56
REMARK    3  A    between atoms: C_21  and  N_56
REMARK                            x       y       z     vdW  Elec       q    Type
REMARK                         _______ _______ _______ _____ _____    ______ ____
ROOT
ATOM      1  C   UNL     1      -5.465   3.690   0.124  0.00  0.00    +0.019 C 
ATOM      2  C   UNL     1      -4.766   4.796   0.066  0.00  0.00    -0.006 C 
ATOM      3  C   UNL     1      -3.288   4.953   0.146  0.00  0.00    +0.058 C 
ATOM      4  N   UNL     1      -2.567   3.722  -0.157  0.00  0.00    -0.329 N 
ATOM      5  C   UNL     1      -1.241   3.608  -0.536  0.00  0.00    +0.068 A 
ATOM      6  C   UNL     1      -0.222   4.522  -0.756  0.00  0.00    +0.028 A 
ATOM      7  C   UNL     1       1.029   4.079  -1.133  0.00  0.00    +0.002 A 
ATOM      8  C   UNL     1       1.275   2.723  -1.294  0.00  0.00    +0.002 A 
ATOM      9  C   UNL     1       0.276   1.801  -1.080  0.00  0.00    +0.030 A 
ATOM     10  C   UNL     1      -0.999   2.234  -0.704  0.00  0.00    +0.090 A 
ATOM     11  N   UNL     1      -2.160   1.585  -0.426  0.00  0.00    -0.222 NA
ATOM     12  C   UNL     1      -3.086   2.455  -0.111  0.00  0.00    +0.173 A 
ATOM     13  S   UNL     1      -4.759   2.091   0.312  0.00  0.00    -0.051 S 
ENDROOT
BRANCH   1  17
ATOM     14  C   UNL     1      -9.695   3.983  -0.163  0.00  0.00    +0.000 A 
ATOM     15  C   UNL     1      -9.124   3.188   0.815  0.00  0.00    +0.001 A 
ATOM     16  C   UNL     1      -7.752   3.089   0.912  0.00  0.00    +0.009 A 
ATOM     17  C   UNL     1      -6.939   3.792   0.024  0.00  0.00    -0.012 A 
ATOM     18  C   UNL     1      -7.520   4.596  -0.956  0.00  0.00    +0.009 A 
ATOM     19  C   UNL     1      -8.895   4.683  -1.048  0.00  0.00    +0.001 A 
ENDBRANCH   1  17
BRANCH   3  20
ATOM     20  N   UNL     1      -2.931   5.381   1.511  0.00  0.00    +0.399 N 
ATOM     21  H   UNL     1      -2.073   4.899   1.805  0.00  0.00    -0.082 HD
ATOM     22  H   UNL     1      -3.696   5.141   2.153  0.00  0.00    -0.082 HD
BRANCH  20  23
ATOM     23  C   UNL     1      -2.705   6.839   1.548  0.00  0.00    -0.064 C 
ATOM     24  C   UNL     1      -1.481   7.191   0.701  0.00  0.00    -0.009 C 
ATOM     25  C   UNL     1      -1.245   8.702   0.749  0.00  0.00    -0.012 C 
ATOM     26  C   UNL     1      -2.473   9.427   0.195  0.00  0.00    +0.007 C 
ATOM     27  C   UNL     1      -3.698   9.075   1.042  0.00  0.00    -0.012 C 
ATOM     28  C   UNL     1      -3.934   7.564   0.995  0.00  0.00    -0.009 C 
ATOM     29  C   UNL     1      -3.459   9.509   2.489  0.00  0.00    +0.007 C 
ATOM     30  C   UNL     1      -2.231   8.784   3.043  0.00  0.00    -0.012 C 
ATOM     31  C   UNL     1      -1.006   9.136   2.196  0.00  0.00    +0.007 C 
ATOM     32  C   UNL     1      -2.466   7.273   2.996  0.00  0.00    -0.009 C 
ENDBRANCH  20  23
ENDBRANCH   3  20
TORSDOF 3
