REMARK  Name = ZINC15280331
REMARK  5 active torsions:
REMARK  status: ('A' for Active; 'I' for Inactive)
REMARK    1  A    between atoms: C_4  and  N_7
REMARK    2  A    between atoms: C_11  and  S_13
REMARK    3  A    between atoms: S_13  and  C_14
REMARK    4  A    between atoms: C_14  and  C_15
REMARK    5  A    between atoms: N_20  and  C_21
REMARK                            x       y       z     vdW  Elec       q    Type
REMARK                         _______ _______ _______ _____ _____    ______ ____
ROOT
ATOM      1  C   UNL     1       1.292   2.340  -1.076  0.00  0.00    +0.231 C 
ATOM      2  O   UNL     1       2.206   1.566  -1.267  0.00  0.00    -0.274 OA
ATOM      3  N   UNL     1       1.521   3.668  -1.085  0.00  0.00    -0.239 N 
ATOM      4  C   UNL     1       2.765   4.136  -1.306  0.00  0.00    +0.306 C 
ATOM      5  O   UNL     1       3.681   3.361  -1.497  0.00  0.00    -0.252 OA
ATOM      6  N   UNL     1       2.993   5.464  -1.316  0.00  0.00    -0.294 N 
ATOM      7  H   UNL     1       0.789   4.287  -0.933  0.00  0.00    +0.159 HD
ATOM      8  H   UNL     1       2.262   6.083  -1.163  0.00  0.00    +0.151 HD
ENDROOT
BRANCH   6   9
ATOM      9  C   UNL     1       4.346   5.973  -1.556  0.00  0.00    +0.037 C 
ATOM     10  C   UNL     1       5.290   5.443  -0.474  0.00  0.00    +0.029 C 
ATOM     11  C   UNL     1       6.702   5.975  -0.725  0.00  0.00    -0.008 C 
ATOM     12  C   UNL     1       6.687   7.504  -0.684  0.00  0.00    +0.007 C 
ATOM     13  C   UNL     1       5.743   8.034  -1.765  0.00  0.00    -0.008 C 
ATOM     14  C   UNL     1       4.330   7.503  -1.514  0.00  0.00    +0.029 C 
ATOM     15  C   UNL     1       6.228   7.566  -3.139  0.00  0.00    +0.007 C 
ATOM     16  C   UNL     1       6.243   6.037  -3.180  0.00  0.00    -0.008 C 
ATOM     17  C   UNL     1       7.187   5.507  -2.099  0.00  0.00    +0.007 C 
ATOM     18  C   UNL     1       4.831   5.505  -2.929  0.00  0.00    +0.029 C 
ENDBRANCH   6   9
BRANCH   1  19
ATOM     19  C   UNL     1      -0.099   1.816  -0.829  0.00  0.00    +0.172 C 
BRANCH  19  20
ATOM     20  S   UNL     1      -0.081   0.003  -0.879  0.00  0.00    -0.088 S 
BRANCH  20  25
ATOM     21  N   UNL     1      -5.309  -2.331   0.039  0.00  0.00    -0.292 N 
ATOM     22  C   UNL     1      -4.170  -1.557  -0.154  0.00  0.00    +0.187 A 
ATOM     23  N   UNL     1      -4.040  -0.244  -0.145  0.00  0.00    -0.125 NA
ATOM     24  N   UNL     1      -2.805   0.323  -0.361  0.00  0.00    -0.133 NA
ATOM     25  C   UNL     1      -1.757  -0.449  -0.577  0.00  0.00    +0.160 A 
ATOM     26  S   UNL     1      -2.493  -2.074  -0.487  0.00  0.00    -0.024 S 
ATOM     27  H   UNL     1      -5.236  -3.296   0.090  0.00  0.00    +0.154 HD
BRANCH  21  31
ATOM     28  C   UNL     1      -9.033  -0.502   0.396  0.00  0.00    +0.000 A 
ATOM     29  C   UNL     1      -8.020   0.127  -0.304  0.00  0.00    +0.002 A 
ATOM     30  C   UNL     1      -6.783  -0.476  -0.424  0.00  0.00    +0.023 A 
ATOM     31  C   UNL     1      -6.558  -1.717   0.159  0.00  0.00    +0.033 A 
ATOM     32  C   UNL     1      -7.580  -2.349   0.857  0.00  0.00    +0.023 A 
ATOM     33  C   UNL     1      -8.812  -1.738   0.977  0.00  0.00    +0.002 A 
ENDBRANCH  21  31
ENDBRANCH  20  25
ENDBRANCH  19  20
ENDBRANCH   1  19
TORSDOF 5
