REMARK  Name = ZINC39637210
REMARK  9 active torsions:
REMARK  status: ('A' for Active; 'I' for Inactive)
REMARK    1  A    between atoms: C_1  and  C_2
REMARK    2  A    between atoms: C_7  and  N_12
REMARK    3  A    between atoms: C_9  and  C_11
REMARK    4  A    between atoms: C_13  and  C_15
REMARK    5  A    between atoms: C_26  and  C_28
REMARK    6  A    between atoms: C_31  and  O_36
REMARK    7  A    between atoms: C_33  and  O_34
REMARK    8  A    between atoms: O_34  and  C_35
REMARK    9  A    between atoms: O_36  and  C_37
REMARK                            x       y       z     vdW  Elec       q    Type
REMARK                         _______ _______ _______ _____ _____    ______ ____
ROOT
ATOM      1  C   UNL     1      -2.285  -4.284   1.747  0.00  0.00    +0.100 C 
ATOM      2  C   UNL     1      -3.145  -3.490   2.756  0.00  0.00    +0.121 C 
ATOM      3  N   UNL     1      -4.051  -4.501   3.352  0.00  0.00    -0.296 N 
ATOM      4  C   UNL     1      -3.201  -5.705   3.518  0.00  0.00    +0.115 C 
ATOM      5  C   UNL     1      -2.323  -5.736   2.252  0.00  0.00    -0.004 C 
ATOM      6  C   UNL     1      -0.916  -6.213   2.598  0.00  0.00    -0.010 C 
ATOM      7  C   UNL     1      -0.972  -7.677   3.041  0.00  0.00    -0.082 C 
ATOM      8  N   UNL     1      -1.536  -8.496   1.961  0.00  0.00    +0.379 N 
ATOM      9  C   UNL     1      -2.923  -8.092   1.698  0.00  0.00    -0.082 C 
ATOM     10  C   UNL     1      -2.949  -6.645   1.198  0.00  0.00    -0.010 C 
ATOM     11  C   UNL     1      -5.353  -4.359   3.670  0.00  0.00    +0.250 C 
ATOM     12  O   UNL     1      -5.942  -3.336   3.376  0.00  0.00    -0.270 OA
ATOM     13  H   UNL     1      -0.986  -8.371   1.124  0.00  0.00    -0.086 HD
ATOM     14  H   UNL     1      -1.516  -9.468   2.232  0.00  0.00    -0.086 HD
ENDROOT
BRANCH  11  15
ATOM     15  C   UNL     1      -6.062  -5.441   4.373  0.00  0.00    +0.079 A 
ATOM     16  C   UNL     1      -5.391  -6.219   5.322  0.00  0.00    +0.020 A 
ATOM     17  C   UNL     1      -6.056  -7.229   5.978  0.00  0.00    +0.046 A 
ATOM     18  C   UNL     1      -7.397  -7.480   5.700  0.00  0.00    +0.124 A 
ATOM     19  C   UNL     1      -8.072  -6.715   4.761  0.00  0.00    +0.092 A 
ATOM     20  C   UNL     1      -7.415  -5.692   4.099  0.00  0.00    +0.136 A 
BRANCH  20  21
ATOM     21  O   UNL     1      -8.075  -4.938   3.184  0.00  0.00    -0.494 OA
ATOM     22  C   UNL     1      -9.450  -5.251   2.957  0.00  0.00    +0.277 C 
ENDBRANCH  20  21
BRANCH  18  23
ATOM     23  O   UNL     1      -8.046  -8.479   6.351  0.00  0.00    -0.495 OA
ATOM     24  C   UNL     1      -7.292  -9.229   7.305  0.00  0.00    +0.277 C 
ENDBRANCH  18  23
ENDBRANCH  11  15
BRANCH   1  26
ATOM     25  N   UNL     1      -0.072  -3.990   0.681  0.00  0.00    -0.312 N 
ATOM     26  C   UNL     1      -0.869  -3.767   1.745  0.00  0.00    +0.218 C 
ATOM     27  O   UNL     1      -0.447  -3.149   2.699  0.00  0.00    -0.275 OA
ATOM     28  H   UNL     1      -0.409  -4.485  -0.082  0.00  0.00    +0.149 HD
BRANCH  25  34
ATOM     29  C   UNL     1       2.195  -4.459  -2.939  0.00  0.00    +0.008 C 
ATOM     30  C   UNL     1       1.722  -4.645  -1.496  0.00  0.00    -0.009 C 
ATOM     31  C   UNL     1       2.634  -5.649  -0.787  0.00  0.00    +0.003 C 
ATOM     32  C   UNL     1       2.162  -5.834   0.657  0.00  0.00    +0.002 C 
ATOM     33  C   UNL     1       2.215  -4.491   1.388  0.00  0.00    +0.022 C 
ATOM     34  C   UNL     1       1.304  -3.488   0.678  0.00  0.00    +0.076 C 
ATOM     35  C   UNL     1       1.776  -3.302  -0.765  0.00  0.00    +0.009 C 
ATOM     36  C   UNL     1       0.865  -2.298  -1.474  0.00  0.00    +0.009 C 
ENDBRANCH  25  34
ENDBRANCH   1  26
TORSDOF 5
