REMARK  Name = ZINC04811431
REMARK  8 active torsions:
REMARK  status: ('A' for Active; 'I' for Inactive)
REMARK    1  A    between atoms: C_1  and  C_2
REMARK    2  A    between atoms: C_2  and  O_3
REMARK    3  A    between atoms: O_3  and  C_4
REMARK    4  A    between atoms: C_10  and  N_27
REMARK    5  A    between atoms: C_14  and  N_17
REMARK    6  A    between atoms: C_18  and  C_19
REMARK    7  A    between atoms: C_22  and  O_25
REMARK    8  A    between atoms: O_25  and  C_26
REMARK                            x       y       z     vdW  Elec       q    Type
REMARK                         _______ _______ _______ _____ _____    ______ ____
ROOT
ATOM      1  C   UNL     1      -0.133   5.163   0.032  0.00  0.00    +0.121 A 
ATOM      2  C   UNL     1      -1.366   5.824   0.042  0.00  0.00    +0.048 A 
ATOM      3  C   UNL     1      -2.533   5.128   0.043  0.00  0.00    +0.030 A 
ATOM      4  C   UNL     1      -2.513   3.717   0.035  0.00  0.00    +0.049 A 
ATOM      5  C   UNL     1      -1.262   3.049   0.031  0.00  0.00    +0.023 A 
ATOM      6  C   UNL     1      -0.073   3.800   0.024  0.00  0.00    +0.057 A 
ATOM      7  C   UNL     1      -1.215   1.639   0.017  0.00  0.00    +0.043 A 
ATOM      8  C   UNL     1      -2.437   0.944   0.019  0.00  0.00    +0.020 A 
ATOM      9  C   UNL     1      -2.482  -0.462   0.010  0.00  0.00    +0.014 A 
ATOM     10  C   UNL     1      -3.680  -1.098   0.012  0.00  0.00    +0.028 A 
ATOM     11  C   UNL     1      -4.890  -0.381   0.022  0.00  0.00    +0.066 A 
ATOM     12  C   UNL     1      -4.905   1.004   0.030  0.00  0.00    +0.054 A 
ATOM     13  C   UNL     1      -3.688   1.707   0.029  0.00  0.00    +0.051 A 
ATOM     14  N   UNL     1      -3.730   3.079   0.038  0.00  0.00    -0.354 N 
ATOM     15  H   UNL     1      -4.617   3.596   0.045  0.00  0.00    +0.166 HD
ENDROOT
BRANCH   7  16
ATOM     16  N   UNL     1      -0.011   0.966   0.007  0.00  0.00    -0.357 N 
ATOM     17  H   UNL     1       0.002  -0.004   0.002  0.00  0.00    +0.142 HD
ATOM     18  H   UNL     1       0.822   1.462   0.002  0.00  0.00    +0.142 HD
ENDBRANCH   7  16
BRANCH  11  19
ATOM     19  N   UNL     1      -6.074  -1.063   0.023  0.00  0.00    -0.255 NA
ATOM     20  C   UNL     1      -6.244  -2.076  -0.781  0.00  0.00    +0.119 C 
BRANCH  20  21
ATOM     21  C   UNL     1      -7.518  -2.811  -0.780  0.00  0.00    -0.007 A 
ATOM     22  C   UNL     1      -8.548  -2.429   0.087  0.00  0.00    +0.013 A 
ATOM     23  C   UNL     1      -9.740  -3.117   0.081  0.00  0.00    +0.046 A 
ATOM     24  C   UNL     1      -9.919  -4.195  -0.777  0.00  0.00    +0.120 A 
ATOM     25  C   UNL     1      -8.897  -4.582  -1.637  0.00  0.00    +0.046 A 
ATOM     26  C   UNL     1      -7.703  -3.897  -1.642  0.00  0.00    +0.013 A 
BRANCH  24  27
ATOM     27  O   UNL     1     -11.095  -4.874  -0.776  0.00  0.00    -0.495 OA
ATOM     28  C   UNL     1     -12.102  -4.424   0.132  0.00  0.00    +0.277 C 
ENDBRANCH  24  27
ENDBRANCH  20  21
ENDBRANCH  11  19
BRANCH   1  29
ATOM     29  O   UNL     1       1.018   5.886   0.030  0.00  0.00    -0.492 OA
BRANCH  29  31
ATOM     30  C   UNL     1       2.280   7.947   0.034  0.00  0.00    +0.048 C 
ATOM     31  C   UNL     1       0.890   7.310   0.038  0.00  0.00    +0.225 C 
ENDBRANCH  29  31
ENDBRANCH   1  29
TORSDOF 6
