REMARK  Name = ZINC16853011
REMARK  11 active torsions:
REMARK  status: ('A' for Active; 'I' for Inactive)
REMARK    1  A    between atoms: C_1  and  C_2
REMARK    2  A    between atoms: C_2  and  C_3
REMARK    3  A    between atoms: C_3  and  C_4
REMARK    4  A    between atoms: C_4  and  C_5
REMARK    5  A    between atoms: C_5  and  C_7
REMARK    6  A    between atoms: C_5  and  C_22
REMARK    7  A    between atoms: C_8  and  C_21
REMARK    8  A    between atoms: C_10  and  C_15
REMARK    9  A    between atoms: N_24  and  N_25
REMARK   10  A    between atoms: C_26  and  C_27
REMARK   11  A    between atoms: C_28  and  C_37
REMARK                            x       y       z     vdW  Elec       q    Type
REMARK                         _______ _______ _______ _____ _____    ______ ____
ROOT
ATOM      1  C   UNL     1       0.353   1.045   0.276  0.00  0.00    +0.114 C 
ENDROOT
BRANCH   1   2
ATOM      2  C   UNL     1      -0.545   1.552   1.375  0.00  0.00    +0.050 A 
ATOM      3  C   UNL     1      -1.308   0.687   2.102  0.00  0.00    +0.050 A 
ATOM      4  N   UNL     1      -2.095   1.144   3.074  0.00  0.00    -0.234 NA
ATOM      5  C   UNL     1      -2.165   2.429   3.353  0.00  0.00    +0.141 A 
ATOM      6  N   UNL     1      -1.430   3.343   2.658  0.00  0.00    -0.307 N 
ATOM      7  H   UNL     1      -1.494   4.286   2.876  0.00  0.00    +0.170 HD
ATOM      8  C   UNL     1      -0.613   2.929   1.665  0.00  0.00    +0.256 A 
ATOM      9  O   UNL     1       0.052   3.732   1.033  0.00  0.00    -0.267 OA
ATOM     10  C   UNL     1      -1.258  -0.790   1.807  0.00  0.00    +0.066 C 
BRANCH   5  11
ATOM     11  C   UNL     1      -3.057   2.889   4.437  0.00  0.00    +0.017 A 
ATOM     12  C   UNL     1      -3.140   4.247   4.748  0.00  0.00    +0.011 A 
ATOM     13  C   UNL     1      -3.979   4.670   5.758  0.00  0.00    +0.001 A 
ATOM     14  C   UNL     1      -4.729   3.751   6.470  0.00  0.00    +0.000 A 
ATOM     15  C   UNL     1      -4.648   2.402   6.170  0.00  0.00    +0.001 A 
ATOM     16  C   UNL     1      -3.817   1.966   5.159  0.00  0.00    +0.011 A 
ENDBRANCH   5  11
ENDBRANCH   1   2
BRANCH   1  17
ATOM     17  C   UNL     1      -0.126   1.576  -1.050  0.00  0.00    +0.240 C 
ATOM     18  O   UNL     1      -1.101   2.297  -1.098  0.00  0.00    -0.273 OA
ATOM     19  N   UNL     1       0.528   1.251  -2.183  0.00  0.00    -0.206 N 
ATOM     20  H   UNL     1       1.308   0.676  -2.144  0.00  0.00    +0.177 HD
BRANCH  19  21
ATOM     21  N   UNL     1       0.082   1.746  -3.415  0.00  0.00    -0.187 NA
ATOM     22  C   UNL     1       0.713   1.433  -4.507  0.00  0.00    +0.145 C 
BRANCH  22  23
ATOM     23  C   UNL     1       0.244   1.952  -5.803  0.00  0.00    +0.078 A 
ATOM     24  C   UNL     1       0.895   1.634  -6.963  0.00  0.00    +0.031 A 
ATOM     25  N   UNL     1       0.435   2.131  -8.147  0.00  0.00    -0.311 N 
ATOM     26  H   UNL     1       0.913   1.897  -8.994  0.00  0.00    +0.170 HD
ATOM     27  C   UNL     1      -0.644   2.927  -8.200  0.00  0.00    +0.327 A 
ATOM     28  O   UNL     1      -1.016   3.346  -9.279  0.00  0.00    -0.247 OA
ATOM     29  N   UNL     1      -1.326   3.276  -7.095  0.00  0.00    -0.275 N 
ATOM     30  H   UNL     1      -2.124   3.874  -7.170  0.00  0.00    +0.173 HD
ATOM     31  C   UNL     1      -0.939   2.822  -5.884  0.00  0.00    +0.263 A 
ATOM     32  O   UNL     1      -1.555   3.129  -4.880  0.00  0.00    -0.267 OA
ATOM     33  C   UNL     1       2.110   0.742  -6.934  0.00  0.00    +0.064 C 
ENDBRANCH  22  23
ENDBRANCH  19  21
ENDBRANCH   1  17
BRANCH   1  34
ATOM     34  C   UNL     1       1.786   1.519   0.528  0.00  0.00    +0.018 C 
BRANCH  34  35
ATOM     35  C   UNL     1       2.317   0.880   1.812  0.00  0.00    +0.001 C 
BRANCH  35  37
ATOM     36  C   UNL     1       4.280   0.714   3.349  0.00  0.00    +0.004 C 
ATOM     37  C   UNL     1       3.749   1.354   2.064  0.00  0.00    -0.003 C 
ENDBRANCH  35  37
ENDBRANCH  34  35
ENDBRANCH   1  34
TORSDOF 8
