REMARK  Name = ZINC58946005
REMARK  5 active torsions:
REMARK  status: ('A' for Active; 'I' for Inactive)
REMARK    1  A    between atoms: C_1  and  C_2
REMARK    2  A    between atoms: C_2  and  N_3
REMARK    3  A    between atoms: C_7  and  C_19
REMARK    4  A    between atoms: N_11  and  C_12
REMARK    5  A    between atoms: N_21  and  C_22
REMARK                            x       y       z     vdW  Elec       q    Type
REMARK                         _______ _______ _______ _____ _____    ______ ____
ROOT
ATOM      1  N   UNL     1       0.677  -0.465  -1.212  0.00  0.00    -0.251 N 
ATOM      2  C   UNL     1      -0.049  -0.679  -2.298  0.00  0.00    +0.223 C 
ATOM      3  O   UNL     1      -1.209  -0.332  -2.233  0.00  0.00    -0.275 OA
ATOM      4  C   UNL     1       0.369  -1.292  -3.590  0.00  0.00    +0.120 C 
ATOM      5  C   UNL     1       1.858  -1.087  -3.880  0.00  0.00    +0.149 C 
ATOM      6  S   UNL     1       2.795  -1.634  -2.415  0.00  0.00    -0.077 S 
ATOM      7  C   UNL     1       2.045  -0.655  -1.140  0.00  0.00    +0.164 C 
ATOM      8  N   UNL     1       2.757  -0.135  -0.168  0.00  0.00    -0.226 NA
ENDROOT
BRANCH   8   9
ATOM      9  C   UNL     1       4.111  -0.342  -0.124  0.00  0.00    +0.067 A 
ATOM     10  C   UNL     1       4.634  -1.615  -0.356  0.00  0.00    +0.029 A 
ATOM     11  C   UNL     1       5.997  -1.816  -0.311  0.00  0.00    +0.022 A 
ATOM     12  C   UNL     1       6.848  -0.758  -0.036  0.00  0.00    +0.041 A 
ATOM     13  C   UNL     1       6.335   0.507   0.195  0.00  0.00    +0.022 A 
ATOM     14  C   UNL     1       4.973   0.722   0.147  0.00  0.00    +0.029 A 
ATOM     15 CL   UNL     1       8.563  -1.020   0.019  0.00  0.00    -0.084 Cl
ENDBRANCH   8   9
BRANCH   5  16
ATOM     16  C   UNL     1       2.261  -1.905  -5.079  0.00  0.00    +0.231 C 
ATOM     17  O   UNL     1       1.688  -2.945  -5.325  0.00  0.00    -0.274 OA
ATOM     18  N   UNL     1       3.259  -1.481  -5.880  0.00  0.00    -0.284 N 
ATOM     19  H   UNL     1       3.673  -0.617  -5.723  0.00  0.00    +0.155 HD
BRANCH  18  20
ATOM     20  C   UNL     1       3.699  -2.286  -6.936  0.00  0.00    +0.036 A 
ATOM     21  C   UNL     1       5.043  -2.303  -7.285  0.00  0.00    +0.043 A 
ATOM     22  C   UNL     1       5.475  -3.100  -8.329  0.00  0.00    +0.044 A 
ATOM     23  C   UNL     1       4.569  -3.879  -9.026  0.00  0.00    +0.040 A 
ATOM     24  C   UNL     1       3.229  -3.863  -8.682  0.00  0.00    +0.044 A 
ATOM     25  C   UNL     1       2.793  -3.073  -7.635  0.00  0.00    +0.043 A 
ATOM     26 CL   UNL     1       2.096  -4.842  -9.560  0.00  0.00    -0.083 Cl
ATOM     27 CL   UNL     1       7.155  -3.122  -8.765  0.00  0.00    -0.083 Cl
ENDBRANCH  18  20
ENDBRANCH   5  16
BRANCH   1  29
ATOM     28  C   UNL     1      -0.041   1.541  -0.010  0.00  0.00    +0.025 C 
ATOM     29  C   UNL     1      -0.012   0.011  -0.010  0.00  0.00    +0.112 C 
ENDBRANCH   1  29
TORSDOF 4
