REMARK  Name = ZINC48530042
REMARK  4 active torsions:
REMARK  status: ('A' for Active; 'I' for Inactive)
REMARK    1  A    between atoms: C_3  and  C_9
REMARK    2  A    between atoms: C_11  and  C_12
REMARK    3  A    between atoms: C_11  and  C_14
REMARK    4  A    between atoms: C_14  and  C_16
REMARK                            x       y       z     vdW  Elec       q    Type
REMARK                         _______ _______ _______ _____ _____    ______ ____
ROOT
ATOM      1  C   UNL     1       3.661   2.165   0.005  0.00  0.00    +0.208 C 
ATOM      2  O   UNL     1       3.652   3.509  -0.114  0.00  0.00    -0.286 OA
ATOM      3  C   UNL     1       4.870   1.480   0.065  0.00  0.00    +0.146 C 
ENDROOT
BRANCH   1   6
ATOM      4  C   UNL     1       0.920  -0.080   1.234  0.00  0.00    +0.039 A 
ATOM      5  C   UNL     1       2.111   0.612   1.177  0.00  0.00    +0.015 A 
ATOM      6  C   UNL     1       2.392   1.424   0.073  0.00  0.00    +0.036 A 
ATOM      7  C   UNL     1       1.461   1.528  -0.967  0.00  0.00    +0.027 A 
ATOM      8  C   UNL     1       0.274   0.831  -0.897  0.00  0.00    +0.053 A 
ATOM      9  C   UNL     1       0.002   0.028   0.201  0.00  0.00    +0.124 A 
ATOM     10  F   UNL     1      -1.163  -0.653   0.263  0.00  0.00    -0.205 F 
ATOM     11  I   UNL     1       1.870   2.741  -2.626  0.00  0.00    -0.043 I 
ENDBRANCH   1   6
BRANCH   3  12
ATOM     12  C   UNL     1       6.102   2.208   0.131  0.00  0.00    +0.107 C 
ATOM     13  N   UNL     1       7.079   2.784   0.183  0.00  0.00    -0.191 NA
ENDBRANCH   3  12
BRANCH   3  14
ATOM     14  C   UNL     1       4.884   0.014   0.061  0.00  0.00    +0.208 C 
ATOM     15  O   UNL     1       4.516  -0.595  -0.927  0.00  0.00    -0.286 OA
BRANCH  14  16
ATOM     16  C   UNL     1       5.343  -0.722   1.252  0.00  0.00    +0.030 A 
ATOM     17  C   UNL     1       5.283  -2.162   1.319  0.00  0.00    +0.019 A 
ATOM     18  C   UNL     1       5.733  -2.714   2.464  0.00  0.00    +0.046 A 
ATOM     19  S   UNL     1       6.227  -1.300   3.426  0.00  0.00    -0.104 S 
ATOM     20  C   UNL     1       5.854  -0.068   2.350  0.00  0.00    +0.057 A 
ENDBRANCH  14  16
ENDBRANCH   3  14
TORSDOF 4
