REMARK  Name = ZINC29678507
REMARK  12 active torsions:
REMARK  status: ('A' for Active; 'I' for Inactive)
REMARK    1  A    between atoms: C_1  and  C_2
REMARK    2  A    between atoms: C_5  and  O_28
REMARK    3  A    between atoms: C_6  and  C_8
REMARK    4  A    between atoms: C_8  and  C_10
REMARK    5  A    between atoms: C_8  and  N_11
REMARK    6  A    between atoms: N_11  and  C_12
REMARK    7  A    between atoms: C_12  and  C_14
REMARK    8  A    between atoms: C_12  and  C_15
REMARK    9  A    between atoms: N_17  and  C_18
REMARK   10  A    between atoms: C_20  and  N_25
REMARK   11  A    between atoms: C_23  and  C_24
REMARK   12  A    between atoms: O_28  and  C_29
REMARK                            x       y       z     vdW  Elec       q    Type
REMARK                         _______ _______ _______ _____ _____    ______ ____
ROOT
ATOM      1  C   UNL     1       4.858   1.485  -0.251  0.00  0.00    +0.014 C 
ATOM      2  C   UNL     1       4.829   0.611  -1.506  0.00  0.00    -0.004 C 
ENDROOT
BRANCH   1   3
ATOM      3  C   UNL     1       3.550   2.222  -0.121  0.00  0.00    +0.203 C 
ATOM      4  O   UNL     1       3.535   3.434  -0.115  0.00  0.00    -0.277 OA
ATOM      5  N   UNL     1       2.397   1.533  -0.012  0.00  0.00    -0.287 N 
ATOM      6  H   UNL     1       2.416   0.436   0.057  0.00  0.00    +0.155 HD
BRANCH   5   7
ATOM      7  C   UNL     1       1.175   2.215   0.013  0.00  0.00    +0.038 A 
ATOM      8  C   UNL     1       1.084   3.458   0.626  0.00  0.00    +0.056 A 
ATOM      9  C   UNL     1      -0.123   4.128   0.650  0.00  0.00    +0.128 A 
ATOM     10  C   UNL     1      -1.241   3.562   0.064  0.00  0.00    +0.033 A 
ATOM     11  C   UNL     1      -1.153   2.327  -0.551  0.00  0.00    +0.007 A 
ATOM     12  C   UNL     1       0.050   1.649  -0.574  0.00  0.00    -0.029 A 
ATOM     13  C   UNL     1       0.144   0.301  -1.239  0.00  0.00    +0.045 C 
BRANCH   9  14
ATOM     14  N   UNL     1      -0.221   5.453   1.302  0.00  0.00    +0.056 N 
ATOM     15  O   UNL     1       0.763   5.952   1.818  0.00  0.00    -0.126 OA
ATOM     16  O   UNL     1      -1.286   6.044   1.324  0.00  0.00    -0.126 OA
ENDBRANCH   9  14
ENDBRANCH   5   7
ENDBRANCH   1   3
BRANCH   1  17
ATOM     17  N   UNL     1       5.958   2.453  -0.353  0.00  0.00    +0.391 N 
ATOM     18  H   UNL     1       5.716   3.329   0.267  0.00  0.00    -0.084 HD
ATOM     19  H   UNL     1       6.057   2.764  -1.404  0.00  0.00    -0.084 HD
BRANCH  17  20
ATOM     20  C   UNL     1       7.223   1.863   0.104  0.00  0.00    -0.039 C 
ATOM     21  C   UNL     1       7.330   2.002   1.624  0.00  0.00    -0.009 C 
BRANCH  20  27
ATOM     22  C   UNL     1       9.109   5.960  -2.064  0.00  0.00    +0.044 C 
ATOM     23  C   UNL     1       9.280   4.541  -1.586  0.00  0.00    -0.050 A 
ATOM     24  C   UNL     1      10.495   3.900  -1.747  0.00  0.00    +0.007 A 
ATOM     25  C   UNL     1      10.654   2.600  -1.309  0.00  0.00    +0.046 A 
ATOM     26  C   UNL     1       9.596   1.938  -0.704  0.00  0.00    +0.122 A 
ATOM     27  C   UNL     1       8.377   2.581  -0.548  0.00  0.00    -0.020 A 
ATOM     28  C   UNL     1       8.222   3.882  -0.987  0.00  0.00    +0.009 A 
BRANCH  26  29
ATOM     29  O   UNL     1       9.751   0.660  -0.268  0.00  0.00    -0.495 OA
ATOM     30  C   UNL     1      11.034   0.061  -0.461  0.00  0.00    +0.277 C 
ENDBRANCH  26  29
ENDBRANCH  20  27
ENDBRANCH  17  20
ENDBRANCH   1  17
TORSDOF 7
