REMARK  Name = ZINC39159047
REMARK  6 active torsions:
REMARK  status: ('A' for Active; 'I' for Inactive)
REMARK    1  A    between atoms: C_1  and  C_2
REMARK    2  A    between atoms: C_2  and  C_3
REMARK    3  A    between atoms: C_2  and  C_4
REMARK    4  A    between atoms: C_2  and  N_5
REMARK    5  A    between atoms: C_10  and  C_14
REMARK    6  A    between atoms: C_14  and  C_15
REMARK                            x       y       z     vdW  Elec       q    Type
REMARK                         _______ _______ _______ _____ _____    ______ ____
ROOT
ATOM      1  N   UNL     1       0.688  -0.476  -1.203  0.00  0.00    -0.311 N 
ATOM      2  C   UNL     1       1.986  -0.128  -1.429  0.00  0.00    +0.201 C 
ATOM      3  N   UNL     1       2.585   0.629  -0.536  0.00  0.00    -0.146 NA
ATOM      4  C   UNL     1       3.863   1.002  -0.709  0.00  0.00    +0.266 C 
ATOM      5  O   UNL     1       4.438   1.700   0.102  0.00  0.00    -0.271 OA
ATOM      6  C   UNL     1       4.555   0.507  -1.966  0.00  0.00    +0.218 C 
ATOM      7  N   UNL     1       3.752  -0.333  -2.871  0.00  0.00    -0.196 NA
ATOM      8  N   UNL     1       2.582  -0.591  -2.563  0.00  0.00    -0.254 N 
ATOM      9  H   UNL     1       0.218  -1.037  -1.840  0.00  0.00    +0.149 HD
ATOM     10  H   UNL     1       2.061  -1.148  -3.162  0.00  0.00    +0.191 HD
ENDROOT
BRANCH   1  12
ATOM     11  C   UNL     1      -0.019   1.526   0.010  0.00  0.00    +0.031 C 
ATOM     12  C   UNL     1       0.002  -0.004   0.002  0.00  0.00    +0.026 C 
ATOM     13  C   UNL     1       0.742  -0.511   1.242  0.00  0.00    +0.031 C 
ATOM     14  C   UNL     1      -1.433  -0.534   0.013  0.00  0.00    +0.031 C 
ENDBRANCH   1  12
BRANCH   6  15
ATOM     15  C   UNL     1       5.034   1.728  -2.754  0.00  0.00    +0.073 C 
BRANCH  15  16
ATOM     16  C   UNL     1       5.833   1.273  -3.948  0.00  0.00    -0.045 A 
ATOM     17  C   UNL     1       7.199   1.091  -3.836  0.00  0.00    +0.004 A 
ATOM     18  C   UNL     1       7.932   0.673  -4.931  0.00  0.00    +0.000 A 
ATOM     19  C   UNL     1       7.300   0.438  -6.138  0.00  0.00    +0.000 A 
ATOM     20  C   UNL     1       5.934   0.620  -6.249  0.00  0.00    +0.000 A 
ATOM     21  C   UNL     1       5.200   1.033  -5.153  0.00  0.00    +0.004 A 
ENDBRANCH  15  16
ENDBRANCH   6  15
TORSDOF 3
