REMARK  Name = ZINC34782494
REMARK  7 active torsions:
REMARK  status: ('A' for Active; 'I' for Inactive)
REMARK    1  A    between atoms: C_8  and  C_10
REMARK    2  A    between atoms: C_10  and  C_12
REMARK    3  A    between atoms: C_10  and  C_14
REMARK    4  A    between atoms: C_14  and  C_16
REMARK    5  A    between atoms: C_14  and  N_28
REMARK    6  A    between atoms: C_19  and  C_21
REMARK    7  A    between atoms: C_29  and  N_30
REMARK                            x       y       z     vdW  Elec       q    Type
REMARK                         _______ _______ _______ _____ _____    ______ ____
ROOT
ATOM      1  C   UNL     1       3.923  -4.274   1.190  0.00  0.00    +0.196 C 
ENDROOT
BRANCH   1   2
ATOM      2  N   UNL     1       5.120  -3.429   1.183  0.00  0.00    -0.258 N 
ATOM      3  C   UNL     1       5.471  -2.520   2.147  0.00  0.00    +0.117 A 
ATOM      4  C   UNL     1       6.649  -1.940   1.772  0.00  0.00    +0.114 A 
ATOM      5  C   UNL     1       7.038  -2.501   0.547  0.00  0.00    +0.266 A 
ATOM      6  O   UNL     1       8.043  -2.219  -0.084  0.00  0.00    -0.266 OA
ATOM      7  N   UNL     1       6.110  -3.412   0.192  0.00  0.00    -0.261 N 
ATOM      8  H   UNL     1       6.124  -3.957  -0.610  0.00  0.00    +0.190 HD
BRANCH   3   9
ATOM      9  N   UNL     1       4.764  -2.242   3.289  0.00  0.00    -0.343 N 
ATOM     10  H   UNL     1       3.933  -2.709   3.470  0.00  0.00    +0.144 HD
ATOM     11  H   UNL     1       5.095  -1.579   3.915  0.00  0.00    +0.144 HD
ENDBRANCH   3   9
ENDBRANCH   1   2
BRANCH   1  12
ATOM     12  C   UNL     1       4.332  -5.724   1.178  0.00  0.00    +0.132 A 
ATOM     13  C   UNL     1       3.741  -6.712   1.878  0.00  0.00    +0.047 A 
ATOM     14  C   UNL     1       4.434  -7.902   1.577  0.00  0.00    +0.050 A 
ATOM     15  C   UNL     1       5.419  -7.571   0.700  0.00  0.00    +0.135 A 
ATOM     16  O   UNL     1       5.341  -6.247   0.464  0.00  0.00    -0.457 OA
BRANCH  15  17
ATOM     17  C   UNL     1       6.401  -8.502   0.106  0.00  0.00    +0.019 A 
ATOM     18  C   UNL     1       6.364  -9.860   0.430  0.00  0.00    +0.011 A 
ATOM     19  C   UNL     1       7.283 -10.724  -0.127  0.00  0.00    +0.002 A 
ATOM     20  C   UNL     1       8.241 -10.249  -1.005  0.00  0.00    +0.020 A 
ATOM     21  C   UNL     1       8.284  -8.904  -1.331  0.00  0.00    +0.042 A 
ATOM     22  C   UNL     1       7.365  -8.029  -0.784  0.00  0.00    +0.031 A 
ATOM     23 CL   UNL     1       9.490  -8.317  -2.433  0.00  0.00    -0.084 Cl
ENDBRANCH  15  17
ENDBRANCH   1  12
BRANCH   1  24
ATOM     24  C   UNL     1       3.078  -3.972  -0.050  0.00  0.00    +0.179 C 
BRANCH  24  32
ATOM     25  C   UNL     1      -0.016   1.357   0.009  0.00  0.00    +0.002 A 
ATOM     26  C   UNL     1       1.156   2.100   0.002  0.00  0.00    +0.001 A 
ATOM     27  C   UNL     1       2.375   1.449  -0.013  0.00  0.00    +0.017 A 
ATOM     28  C   UNL     1       2.404   0.076  -0.021  0.00  0.00    +0.039 A 
ATOM     29  C   UNL     1       1.226  -0.705  -0.013  0.00  0.00    +0.079 A 
ATOM     30  C   UNL     1       0.002  -0.004   0.002  0.00  0.00    +0.029 A 
ATOM     31  N   UNL     1       1.464  -2.033  -0.023  0.00  0.00    -0.243 NA
ATOM     32  C   UNL     1       2.669  -2.521  -0.038  0.00  0.00    +0.099 A 
ATOM     33  S   UNL     1       3.669  -1.167  -0.040  0.00  0.00    -0.071 S 
ENDBRANCH  24  32
BRANCH  24  34
ATOM     34  C   UNL     1       3.867  -4.249  -1.261  0.00  0.00    +0.075 C 
ATOM     35  N   UNL     1       4.476  -4.463  -2.196  0.00  0.00    -0.196 NA
ENDBRANCH  24  34
ENDBRANCH   1  24
TORSDOF 7
