REMARK  Name = ZINC64717591
REMARK  5 active torsions:
REMARK  status: ('A' for Active; 'I' for Inactive)
REMARK    1  A    between atoms: C_7  and  C_10
REMARK    2  A    between atoms: C_10  and  C_11
REMARK    3  A    between atoms: C_11  and  N_12
REMARK    4  A    between atoms: C_13  and  C_15
REMARK    5  A    between atoms: N_26  and  C_28
REMARK                            x       y       z     vdW  Elec       q    Type
REMARK                         _______ _______ _______ _____ _____    ______ ____
ROOT
ATOM      1  N   UNL     1      -0.458  -4.798  -1.460  0.00  0.00    -0.315 N 
ATOM      2  C   UNL     1      -0.811  -5.380  -2.623  0.00  0.00    +0.220 C 
ATOM      3  O   UNL     1      -0.371  -4.957  -3.671  0.00  0.00    -0.275 OA
ATOM      4  H   UNL     1      -0.810  -5.136  -0.622  0.00  0.00    +0.149 HD
ENDROOT
BRANCH   2   5
ATOM      5  C   UNL     1      -1.752  -6.557  -2.622  0.00  0.00    +0.122 C 
ATOM      6  C   UNL     1      -1.112  -7.784  -1.894  0.00  0.00    +0.155 C 
ATOM      7  C   UNL     1       0.260  -8.018  -2.537  0.00  0.00    +0.004 C 
ATOM      8  C   UNL     1       0.046  -8.537  -3.753  0.00  0.00    +0.008 C 
ATOM      9  C   UNL     1      -1.436  -8.579  -3.862  0.00  0.00    +0.116 C 
ATOM     10  C   UNL     1      -1.952  -7.104  -4.046  0.00  0.00    +0.127 C 
ATOM     11  C   UNL     1      -3.384  -7.326  -4.444  0.00  0.00    +0.223 C 
ATOM     12  O   UNL     1      -4.287  -6.532  -4.286  0.00  0.00    -0.275 OA
ATOM     13  N   UNL     1      -3.507  -8.554  -5.008  0.00  0.00    -0.295 N 
ATOM     14  C   UNL     1      -2.190  -9.297  -4.937  0.00  0.00    +0.148 C 
ATOM     15  O   UNL     1      -1.897  -8.875  -2.498  0.00  0.00    -0.359 OA
BRANCH  13  16
ATOM     16  C   UNL     1      -4.734  -9.067  -5.623  0.00  0.00    +0.076 C 
ATOM     17  C   UNL     1      -5.197  -8.120  -6.749  0.00  0.00    +0.022 C 
ATOM     18  C   UNL     1      -6.743  -8.133  -6.645  0.00  0.00    +0.002 C 
ATOM     19  C   UNL     1      -6.982  -8.176  -5.115  0.00  0.00    +0.002 C 
ATOM     20  C   UNL     1      -5.869  -9.103  -4.584  0.00  0.00    +0.022 C 
ENDBRANCH  13  16
ENDBRANCH   2   5
BRANCH   1  21
ATOM     21  C   UNL     1       0.457  -3.653  -1.462  0.00  0.00    +0.108 C 
BRANCH  21  22
ATOM     22  C   UNL     1       0.691  -3.186  -0.024  0.00  0.00    +0.052 C 
BRANCH  22  29
ATOM     23  C   UNL     1      -0.016   1.348   0.009  0.00  0.00    +0.001 A 
ATOM     24  C   UNL     1       1.166   2.101   0.002  0.00  0.00    +0.002 A 
ATOM     25  C   UNL     1       2.391   1.535  -0.013  0.00  0.00    +0.026 A 
ATOM     26  C   UNL     1       2.529   0.120  -0.022  0.00  0.00    +0.043 A 
ATOM     27  N   UNL     1       3.587  -0.654  -0.037  0.00  0.00    -0.380 N 
ATOM     28  C   UNL     1       3.143  -2.053  -0.041  0.00  0.00    +0.144 C 
ATOM     29  C   UNL     1       1.631  -2.008  -0.025  0.00  0.00    -0.040 C 
ATOM     30  C   UNL     1       1.295  -0.698  -0.014  0.00  0.00    -0.001 A 
ATOM     31  C   UNL     1       0.002  -0.004   0.002  0.00  0.00    +0.010 A 
ATOM     32  H   UNL     1       4.509  -0.353  -0.045  0.00  0.00    +0.160 HD
ENDBRANCH  22  29
ENDBRANCH  21  22
ENDBRANCH   1  21
TORSDOF 5
