REMARK  Name = ZINC24032703
REMARK  10 active torsions:
REMARK  status: ('A' for Active; 'I' for Inactive)
REMARK    1  A    between atoms: C_1  and  C_2
REMARK    2  A    between atoms: C_2  and  O_3
REMARK    3  A    between atoms: O_3  and  C_4
REMARK    4  A    between atoms: C_4  and  C_6
REMARK    5  A    between atoms: C_7  and  C_19
REMARK    6  A    between atoms: C_12  and  C_14
REMARK    7  A    between atoms: C_19  and  S_20
REMARK    8  A    between atoms: S_20  and  C_21
REMARK    9  A    between atoms: N_26  and  C_27
REMARK   10  A    between atoms: C_32  and  C_33
REMARK                            x       y       z     vdW  Elec       q    Type
REMARK                         _______ _______ _______ _____ _____    ______ ____
ROOT
ATOM      1  C   UNL     1       3.337  -9.458   1.682  0.00  0.00    +0.082 C 
ATOM      2  C   UNL     1       3.605  -8.792   0.539  0.00  0.00    +0.034 C 
ATOM      3  N   UNL     1       4.201  -9.418  -0.519  0.00  0.00    -0.272 N 
ATOM      4  C   UNL     1       4.569 -10.705  -0.508  0.00  0.00    +0.304 C 
ATOM      5  O   UNL     1       5.098 -11.174  -1.497  0.00  0.00    -0.252 OA
ATOM      6  N   UNL     1       4.366 -11.500   0.561  0.00  0.00    -0.285 N 
ATOM      7  C   UNL     1       3.724 -10.921   1.753  0.00  0.00    +0.179 C 
ATOM      8  H   UNL     1       4.403  -8.860  -1.445  0.00  0.00    +0.156 HD
ATOM      9  H   UNL     1       4.668 -12.558   0.558  0.00  0.00    +0.151 HD
ENDROOT
BRANCH   7  10
ATOM     10  C   UNL     1       4.664 -11.097   2.918  0.00  0.00    +0.130 A 
ATOM     11  C   UNL     1       4.330 -11.564   4.135  0.00  0.00    +0.047 A 
ATOM     12  C   UNL     1       5.510 -11.562   4.913  0.00  0.00    +0.041 A 
ATOM     13  C   UNL     1       6.495 -11.094   4.125  0.00  0.00    +0.195 A 
ATOM     14  O   UNL     1       5.978 -10.819   2.917  0.00  0.00    -0.466 OA
ENDBRANCH   7  10
BRANCH   1  15
ATOM     15  C   UNL     1       2.715  -8.812   2.776  0.00  0.00    +0.339 C 
ATOM     16  O   UNL     1       1.524  -8.959   2.973  0.00  0.00    -0.245 OA
BRANCH  15  17
ATOM     17  O   UNL     1       3.444  -8.033   3.603  0.00  0.00    -0.462 OA
BRANCH  17  19
ATOM     18  C   UNL     1       3.735  -6.574   5.507  0.00  0.00    +0.048 C 
ATOM     19  C   UNL     1       2.752  -7.412   4.687  0.00  0.00    +0.229 C 
ENDBRANCH  17  19
ENDBRANCH  15  17
ENDBRANCH   1  15
BRANCH   2  20
ATOM     20  C   UNL     1       3.236  -7.335   0.426  0.00  0.00    +0.127 C 
BRANCH  20  21
ATOM     21  S   UNL     1       4.731  -6.319   0.578  0.00  0.00    -0.091 S 
BRANCH  21  22
ATOM     22  C   UNL     1       4.139  -4.666   0.427  0.00  0.00    +0.160 A 
ATOM     23  N   UNL     1       2.907  -4.232   0.245  0.00  0.00    -0.133 NA
ATOM     24  N   UNL     1       2.663  -2.881   0.159  0.00  0.00    -0.125 NA
ATOM     25  C   UNL     1       3.663  -2.026   0.247  0.00  0.00    +0.187 A 
ATOM     26  S   UNL     1       5.049  -3.129   0.479  0.00  0.00    -0.024 S 
ATOM     27  N   UNL     1       3.643  -0.637   0.183  0.00  0.00    -0.292 N 
ATOM     28  H   UNL     1       4.587  -0.073   0.198  0.00  0.00    +0.154 HD
BRANCH  27  29
ATOM     29  C   UNL     1       2.425   0.041   0.100  0.00  0.00    +0.037 A 
ATOM     30  C   UNL     1       1.242  -0.670  -0.059  0.00  0.00    +0.023 A 
ATOM     31  C   UNL     1       0.039   0.003  -0.140  0.00  0.00    +0.003 A 
ATOM     32  C   UNL     1       0.010   1.384  -0.063  0.00  0.00    +0.020 A 
ATOM     33  C   UNL     1       1.186   2.095   0.095  0.00  0.00    +0.046 A 
ATOM     34  C   UNL     1       2.394   1.428   0.176  0.00  0.00    -0.011 A 
ATOM     35  C   UNL     1       3.675   2.203   0.349  0.00  0.00    +0.047 C 
ATOM     36 CL   UNL     1       1.145   3.828   0.190  0.00  0.00    -0.083 Cl
ENDBRANCH  27  29
ENDBRANCH  21  22
ENDBRANCH  20  21
ENDBRANCH   2  20
TORSDOF 8
