REMARK  Name = ZINC09797943
REMARK  11 active torsions:
REMARK  status: ('A' for Active; 'I' for Inactive)
REMARK    1  A    between atoms: C_1  and  C_2
REMARK    2  A    between atoms: C_2  and  C_3
REMARK    3  A    between atoms: N_5  and  C_6
REMARK    4  A    between atoms: C_9  and  C_12
REMARK    5  A    between atoms: C_12  and  C_14
REMARK    6  A    between atoms: C_14  and  S_15
REMARK    7  A    between atoms: S_15  and  C_16
REMARK    8  A    between atoms: C_20  and  S_27
REMARK    9  A    between atoms: N_24  and  C_25
REMARK   10  A    between atoms: C_25  and  C_26
REMARK   11  A    between atoms: S_27  and  N_30
REMARK                            x       y       z     vdW  Elec       q    Type
REMARK                         _______ _______ _______ _____ _____    ______ ____
ROOT
ATOM      1  C   UNL     1      -6.708   7.200  -0.502  0.00  0.00    +0.170 A 
ATOM      2  N   UNL     1      -5.564   7.836  -0.569  0.00  0.00    -0.222 NA
ATOM      3  C   UNL     1      -5.790   9.171  -0.687  0.00  0.00    +0.092 A 
ATOM      4  C   UNL     1      -4.949  10.281  -0.794  0.00  0.00    +0.058 A 
ATOM      5  C   UNL     1      -5.491  11.542  -0.903  0.00  0.00    +0.107 A 
ATOM      6  C   UNL     1      -6.866  11.719  -0.908  0.00  0.00    +0.030 A 
ATOM      7  C   UNL     1      -7.711  10.633  -0.803  0.00  0.00    +0.030 A 
ATOM      8  C   UNL     1      -7.183   9.355  -0.693  0.00  0.00    +0.070 A 
ATOM      9  N   UNL     1      -7.740   8.092  -0.580  0.00  0.00    -0.319 N 
ENDROOT
BRANCH   5  10
ATOM     10  S   UNL     1      -4.429  12.941  -1.038  0.00  0.00    +0.056 S 
ATOM     11  O   UNL     1      -3.195  12.466  -1.558  0.00  0.00    -0.153 OA
ATOM     12  O   UNL     1      -5.182  13.963  -1.677  0.00  0.00    -0.153 OA
BRANCH  10  13
ATOM     13  N   UNL     1      -4.121  13.472   0.500  0.00  0.00    -0.204 NA
ATOM     14  H   UNL     1      -3.279  13.908   0.703  0.00  0.00    +0.144 HD
ATOM     15  H   UNL     1      -4.783  13.348   1.198  0.00  0.00    +0.144 HD
ENDBRANCH  10  13
ENDBRANCH   5  10
BRANCH   9  16
ATOM     16  C   UNL     1      -9.169   7.773  -0.547  0.00  0.00    +0.121 C 
ATOM     17  C   UNL     1      -9.663   7.792   0.901  0.00  0.00    +0.027 C 
ENDBRANCH   9  16
BRANCH   1  18
ATOM     18  S   UNL     1      -6.888   5.455  -0.343  0.00  0.00    -0.080 S 
BRANCH  18  19
ATOM     19  C   UNL     1      -5.147   4.960  -0.312  0.00  0.00    +0.157 C 
BRANCH  19  20
ATOM     20  C   UNL     1      -5.053   3.462  -0.177  0.00  0.00    +0.173 C 
ATOM     21  O   UNL     1      -6.063   2.794  -0.109  0.00  0.00    -0.291 OA
BRANCH  20  25
ATOM     22  C   UNL     1      -1.259   1.584  -0.038  0.00  0.00    +0.033 A 
ATOM     23  C   UNL     1      -1.344   2.968  -0.157  0.00  0.00    +0.024 A 
ATOM     24  C   UNL     1      -2.570   3.580  -0.207  0.00  0.00    +0.013 A 
ATOM     25  C   UNL     1      -3.737   2.811  -0.129  0.00  0.00    +0.018 A 
ATOM     26  C   UNL     1      -3.647   1.419  -0.004  0.00  0.00    +0.013 A 
ATOM     27  C   UNL     1      -2.417   0.815   0.041  0.00  0.00    +0.024 A 
BRANCH  22  30
ATOM     28  C   UNL     1       1.022   1.578   0.619  0.00  0.00    +0.217 C 
ATOM     29  O   UNL     1       0.887   2.699   1.061  0.00  0.00    -0.275 OA
ATOM     30  N   UNL     1      -0.011   0.966   0.007  0.00  0.00    -0.286 N 
ATOM     31  H   UNL     1       0.115   0.097  -0.405  0.00  0.00    +0.155 HD
BRANCH  28  33
ATOM     32  C   UNL     1       3.339   1.778   1.479  0.00  0.00    +0.013 C 
ATOM     33  C   UNL     1       2.346   0.870   0.753  0.00  0.00    +0.093 C 
ENDBRANCH  28  33
ENDBRANCH  22  30
ENDBRANCH  20  25
ENDBRANCH  19  20
ENDBRANCH  18  19
ENDBRANCH   1  18
TORSDOF 9
