REMARK  Name = ZINC59165508
REMARK  11 active torsions:
REMARK  status: ('A' for Active; 'I' for Inactive)
REMARK    1  A    between atoms: C_2  and  C_3
REMARK    2  A    between atoms: C_3  and  O_4
REMARK    3  A    between atoms: O_4  and  C_5
REMARK    4  A    between atoms: C_8  and  C_12
REMARK    5  A    between atoms: N_13  and  N_14
REMARK    6  A    between atoms: C_15  and  C_17
REMARK    7  A    between atoms: C_17  and  N_18
REMARK    8  A    between atoms: N_18  and  C_19
REMARK    9  A    between atoms: N_18  and  C_26
REMARK   10  A    between atoms: C_19  and  C_20
REMARK   11  A    between atoms: C_26  and  C_27
REMARK                            x       y       z     vdW  Elec       q    Type
REMARK                         _______ _______ _______ _____ _____    ______ ____
ROOT
ATOM      1  N   UNL     1       2.931  11.766  -1.681  0.00  0.00    -0.209 N 
ATOM      2  C   UNL     1       4.258  11.822  -1.456  0.00  0.00    +0.216 C 
ATOM      3  O   UNL     1       5.003  12.236  -2.320  0.00  0.00    -0.276 OA
ATOM      4  H   UNL     1       2.335  11.435  -0.991  0.00  0.00    +0.177 HD
ENDROOT
BRANCH   1   6
ATOM      5  C   UNL     1       1.132  12.130  -3.130  0.00  0.00    +0.138 C 
ATOM      6  N   UNL     1       2.410  12.185  -2.913  0.00  0.00    -0.188 NA
BRANCH   5  10
ATOM      7  C   UNL     1      -0.446  13.402  -6.861  0.00  0.00    +0.136 A 
ATOM      8  C   UNL     1      -1.300  12.928  -5.873  0.00  0.00    +0.047 A 
ATOM      9  C   UNL     1      -0.792  12.514  -4.661  0.00  0.00    +0.013 A 
ATOM     10  C   UNL     1       0.585  12.572  -4.425  0.00  0.00    -0.004 A 
ATOM     11  C   UNL     1       1.440  13.050  -5.421  0.00  0.00    +0.028 A 
ATOM     12  C   UNL     1       0.924  13.456  -6.633  0.00  0.00    +0.060 A 
ATOM     13 BR   UNL     1       2.081  14.095  -7.986  0.00  0.00    -0.046 Br
BRANCH   7  14
ATOM     14  O   UNL     1      -0.951  13.809  -8.055  0.00  0.00    -0.478 OA
BRANCH  14  15
ATOM     15  C   UNL     1      -2.368  13.727  -8.221  0.00  0.00    +0.317 C 
BRANCH  15  17
ATOM     16  C   UNL     1      -3.023  14.588 -10.636  0.00  0.00    +0.007 C 
ATOM     17  C   UNL     1      -2.732  14.206  -9.565  0.00  0.00    -0.065 C 
ENDBRANCH  15  17
ENDBRANCH  14  15
ENDBRANCH   7  14
ENDBRANCH   5  10
ENDBRANCH   1   6
BRANCH   2  18
ATOM     18  C   UNL     1       4.818  11.371  -0.132  0.00  0.00    +0.021 C 
BRANCH  18  19
ATOM     19  N   UNL     1       6.255  11.672  -0.079  0.00  0.00    +0.391 N 
ATOM     20  H   UNL     1       6.711  11.277  -0.888  0.00  0.00    -0.080 HD
BRANCH  19  21
ATOM     21  C   UNL     1       6.450  13.129  -0.070  0.00  0.00    -0.042 C 
BRANCH  21  22
ATOM     22  C   UNL     1       7.923  13.438  -0.140  0.00  0.00    -0.064 A 
ATOM     23  C   UNL     1       8.660  13.559   1.023  0.00  0.00    +0.002 A 
ATOM     24  C   UNL     1      10.011  13.844   0.959  0.00  0.00    +0.000 A 
ATOM     25  C   UNL     1      10.626  14.007  -0.268  0.00  0.00    +0.000 A 
ATOM     26  C   UNL     1       9.889  13.885  -1.432  0.00  0.00    +0.000 A 
ATOM     27  C   UNL     1       8.539  13.596  -1.368  0.00  0.00    +0.002 A 
ENDBRANCH  21  22
ENDBRANCH  19  21
BRANCH  19  28
ATOM     28  C   UNL     1       6.832  11.093   1.141  0.00  0.00    -0.042 C 
BRANCH  28  29
ATOM     29  C   UNL     1       6.755   9.590   1.069  0.00  0.00    -0.064 A 
ATOM     30  C   UNL     1       5.716   8.921   1.688  0.00  0.00    +0.002 A 
ATOM     31  C   UNL     1       5.645   7.542   1.622  0.00  0.00    +0.000 A 
ATOM     32  C   UNL     1       6.612   6.832   0.936  0.00  0.00    +0.000 A 
ATOM     33  C   UNL     1       7.651   7.502   0.316  0.00  0.00    +0.000 A 
ATOM     34  C   UNL     1       7.720   8.881   0.379  0.00  0.00    +0.002 A 
ENDBRANCH  28  29
ENDBRANCH  19  28
ENDBRANCH  18  19
ENDBRANCH   2  18
TORSDOF 11
