REMARK  Name = ZINC07553155
REMARK  7 active torsions:
REMARK  status: ('A' for Active; 'I' for Inactive)
REMARK    1  A    between atoms: C_1  and  C_2
REMARK    2  A    between atoms: C_2  and  O_3
REMARK    3  A    between atoms: O_3  and  C_4
REMARK    4  A    between atoms: C_4  and  C_6
REMARK    5  A    between atoms: C_7  and  C_24
REMARK    6  A    between atoms: C_12  and  C_14
REMARK    7  A    between atoms: C_16  and  N_21
REMARK                            x       y       z     vdW  Elec       q    Type
REMARK                         _______ _______ _______ _____ _____    ______ ____
ROOT
ATOM      1  C   UNL     1       0.167   0.204  -0.158  0.00  0.00    +0.078 C 
ATOM      2  C   UNL     1       0.388   1.536  -0.214  0.00  0.00    +0.019 C 
ATOM      3  N   UNL     1       1.642   2.049  -0.051  0.00  0.00    -0.300 N 
ATOM      4  C   UNL     1       2.729   1.299   0.171  0.00  0.00    +0.135 C 
ATOM      5  S   UNL     1       4.245   2.072   0.357  0.00  0.00    -0.019 S 
ATOM      6  N   UNL     1       2.668  -0.045   0.253  0.00  0.00    -0.315 N 
ATOM      7  C   UNL     1       1.359  -0.699   0.091  0.00  0.00    +0.142 C 
ATOM      8  C   UNL     1      -0.768   2.469  -0.466  0.00  0.00    +0.061 C 
ATOM      9  H   UNL     1       1.802   3.136  -0.100  0.00  0.00    +0.154 HD
ATOM     10  H   UNL     1       3.567  -0.652   0.436  0.00  0.00    +0.149 HD
ENDROOT
BRANCH   7  11
ATOM     11  C   UNL     1       1.461  -1.663  -1.062  0.00  0.00    -0.002 A 
ATOM     12  C   UNL     1       2.248  -1.352  -2.155  0.00  0.00    +0.040 A 
ATOM     13  C   UNL     1       2.342  -2.236  -3.214  0.00  0.00    +0.127 A 
ATOM     14  C   UNL     1       1.649  -3.432  -3.180  0.00  0.00    +0.034 A 
ATOM     15  C   UNL     1       0.862  -3.744  -2.087  0.00  0.00    +0.022 A 
ATOM     16  C   UNL     1       0.771  -2.861  -1.026  0.00  0.00    +0.046 A 
ATOM     17 CL   UNL     1      -0.212  -3.255   0.349  0.00  0.00    -0.083 Cl
BRANCH  13  18
ATOM     18  N   UNL     1       3.185  -1.902  -4.384  0.00  0.00    +0.056 N 
ATOM     19  O   UNL     1       3.795  -0.849  -4.414  0.00  0.00    -0.126 OA
ATOM     20  O   UNL     1       3.268  -2.681  -5.316  0.00  0.00    -0.126 OA
ENDBRANCH  13  18
ENDBRANCH   7  11
BRANCH   1  21
ATOM     21  C   UNL     1      -1.132  -0.329  -0.327  0.00  0.00    +0.339 C 
ATOM     22  O   UNL     1      -1.791  -0.645   0.646  0.00  0.00    -0.245 OA
BRANCH  21  23
ATOM     23  O   UNL     1      -1.640  -0.487  -1.567  0.00  0.00    -0.462 OA
BRANCH  23  25
ATOM     24  C   UNL     1      -3.430  -0.934  -3.127  0.00  0.00    +0.048 C 
ATOM     25  C   UNL     1      -2.995  -0.931  -1.661  0.00  0.00    +0.229 C 
ENDBRANCH  23  25
ENDBRANCH  21  23
ENDBRANCH   1  21
TORSDOF 5
