REMARK  Name = ZINC55165869
REMARK  9 active torsions:
REMARK  status: ('A' for Active; 'I' for Inactive)
REMARK    1  A    between atoms: C_1  and  C_2
REMARK    2  A    between atoms: C_2  and  C_3
REMARK    3  A    between atoms: C_3  and  C_5
REMARK    4  A    between atoms: C_3  and  N_6
REMARK    5  A    between atoms: N_14  and  C_22
REMARK    6  A    between atoms: C_22  and  C_24
REMARK    7  A    between atoms: C_22  and  C_25
REMARK    8  A    between atoms: N_27  and  C_28
REMARK    9  A    between atoms: C_28  and  C_29
REMARK                            x       y       z     vdW  Elec       q    Type
REMARK                         _______ _______ _______ _____ _____    ______ ____
ROOT
ATOM      1  N   UNL     1       1.815   0.425  -1.139  0.00  0.00    +0.382 N 
ATOM      2  C   UNL     1       2.479  -0.055  -2.357  0.00  0.00    -0.076 C 
ATOM      3  C   UNL     1       3.950   0.370  -2.341  0.00  0.00    +0.016 C 
ATOM      4  C   UNL     1       4.035   1.896  -2.275  0.00  0.00    +0.106 C 
ATOM      5  C   UNL     1       3.271   2.393  -1.046  0.00  0.00    +0.016 C 
ATOM      6  C   UNL     1       1.826   1.893  -1.112  0.00  0.00    -0.076 C 
ATOM      7  C   UNL     1       5.478   2.320  -2.176  0.00  0.00    +0.244 C 
ATOM      8  O   UNL     1       6.001   2.414  -1.086  0.00  0.00    -0.273 OA
ATOM      9  N   UNL     1       6.194   2.594  -3.283  0.00  0.00    -0.256 N 
ATOM     10  C   UNL     1       5.601   2.539  -4.550  0.00  0.00    +0.058 A 
ATOM     11  C   UNL     1       6.379   2.541  -5.696  0.00  0.00    +0.025 A 
ATOM     12  C   UNL     1       5.775   2.490  -6.939  0.00  0.00    +0.002 A 
ATOM     13  C   UNL     1       4.397   2.437  -7.045  0.00  0.00    +0.002 A 
ATOM     14  C   UNL     1       3.612   2.433  -5.905  0.00  0.00    +0.025 A 
ATOM     15  C   UNL     1       4.210   2.483  -4.659  0.00  0.00    +0.050 A 
ATOM     16  N   UNL     1       3.441   2.475  -3.486  0.00  0.00    -0.329 N 
ATOM     17  H   UNL     1       2.543   2.840  -3.476  0.00  0.00    +0.147 HD
ATOM     18  H   UNL     1       2.303   0.071  -0.330  0.00  0.00    -0.081 HD
ENDROOT
BRANCH   1  19
ATOM     19  C   UNL     1       0.426  -0.053  -1.120  0.00  0.00    -0.072 C 
ATOM     20  C   UNL     1      -0.276   0.368  -2.413  0.00  0.00    -0.013 C 
BRANCH  19  22
ATOM     21  C   UNL     1       1.001  -1.995   0.343  0.00  0.00    +0.002 C 
ATOM     22  C   UNL     1       0.413  -1.579  -1.007  0.00  0.00    -0.019 C 
ENDBRANCH  19  22
ENDBRANCH   1  19
BRANCH   9  23
ATOM     23  C   UNL     1       7.608   2.954  -3.160  0.00  0.00    +0.164 C 
ATOM     24  C   UNL     1       7.747   4.169  -2.240  0.00  0.00    +0.038 C 
BRANCH  23  25
ATOM     25  C   UNL     1       8.374   1.794  -2.578  0.00  0.00    +0.234 C 
ATOM     26  O   UNL     1       7.795   0.767  -2.294  0.00  0.00    -0.274 OA
ATOM     27  N   UNL     1       9.702   1.897  -2.373  0.00  0.00    -0.314 N 
ATOM     28  H   UNL     1      10.165   2.719  -2.600  0.00  0.00    +0.149 HD
BRANCH  27  29
ATOM     29  C   UNL     1      10.446   0.769  -1.808  0.00  0.00    +0.101 C 
ATOM     30  C   UNL     1      11.923   1.146  -1.679  0.00  0.00    +0.024 C 
ENDBRANCH  27  29
ENDBRANCH  23  25
ENDBRANCH   9  23
TORSDOF 5
