REMARK  Name = ZINC61719143
REMARK  3 active torsions:
REMARK  status: ('A' for Active; 'I' for Inactive)
REMARK    1  A    between atoms: C_1  and  O_2
REMARK    2  A    between atoms: O_2  and  C_3
REMARK    3  A    between atoms: C_5  and  C_13
REMARK                            x       y       z     vdW  Elec       q    Type
REMARK                         _______ _______ _______ _____ _____    ______ ____
ROOT
ATOM      1  C   UNL     1      -4.871   0.264   0.037  0.00  0.00    -0.021 C 
ATOM      2  C   UNL     1      -5.228   0.663   1.471  0.00  0.00    +0.064 C 
ATOM      3  C   UNL     1      -5.266   2.199   1.488  0.00  0.00    +0.000 C 
ATOM      4  C   UNL     1      -5.481   2.551  -0.007  0.00  0.00    -0.080 C 
ATOM      5  N   UNL     1      -4.680   1.522  -0.721  0.00  0.00    +0.385 N 
ATOM      6  C   UNL     1      -4.230   0.130   2.461  0.00  0.00    -0.010 A 
ATOM      7  C   UNL     1      -2.872   0.290   2.617  0.00  0.00    +0.044 A 
ATOM      8  C   UNL     1      -2.213  -0.348   3.655  0.00  0.00    +0.124 A 
ATOM      9  C   UNL     1      -2.926  -1.147   4.534  0.00  0.00    +0.040 A 
ATOM     10  C   UNL     1      -4.287  -1.309   4.380  0.00  0.00    +0.026 A 
ATOM     11  C   UNL     1      -4.956  -0.670   3.338  0.00  0.00    +0.038 A 
ATOM     12  N   UNL     1      -6.307  -0.678   2.981  0.00  0.00    -0.285 N 
ATOM     13  C   UNL     1      -6.549   0.081   1.894  0.00  0.00    +0.226 C 
ATOM     14  O   UNL     1      -7.623   0.260   1.361  0.00  0.00    -0.275 OA
ATOM     15  F   UNL     1      -0.880  -0.192   3.810  0.00  0.00    -0.205 F 
ATOM     16  H   UNL     1      -3.705   1.782  -0.725  0.00  0.00    -0.085 HD
ATOM     17  H   UNL     1      -6.990  -1.173   3.459  0.00  0.00    +0.155 HD
ATOM     18  H   UNL     1      -5.015   1.413  -1.667  0.00  0.00    -0.085 HD
ENDROOT
BRANCH   1  21
ATOM     19  C   UNL     1      -2.483  -2.665   0.102  0.00  0.00    +0.165 A 
ATOM     20  C   UNL     1      -3.653  -1.921   0.109  0.00  0.00    +0.051 A 
ATOM     21  C   UNL     1      -3.597  -0.542   0.028  0.00  0.00    -0.053 A 
ATOM     22  C   UNL     1      -2.376   0.099  -0.061  0.00  0.00    +0.051 A 
ATOM     23  C   UNL     1      -1.200  -0.639  -0.069  0.00  0.00    +0.166 A 
ATOM     24  C   UNL     1      -1.252  -2.023   0.019  0.00  0.00    +0.204 A 
ATOM     25  O   UNL     1      -0.110  -2.765   0.025  0.00  0.00    -0.482 OA
ATOM     26  C   UNL     1       1.081  -2.116  -0.434  0.00  0.00    +0.270 C 
ATOM     27  C   UNL     1       1.158  -0.732   0.226  0.00  0.00    +0.270 C 
ATOM     28  O   UNL     1      -0.007   0.009  -0.162  0.00  0.00    -0.485 OA
BRANCH  19  30
ATOM     29  C   UNL     1      -3.838  -4.613   0.264  0.00  0.00    +0.277 C 
ATOM     30  O   UNL     1      -2.540  -4.021   0.182  0.00  0.00    -0.491 OA
ENDBRANCH  19  30
ENDBRANCH   1  21
TORSDOF 2
