REMARK  Name = ZINC39710967
REMARK  10 active torsions:
REMARK  status: ('A' for Active; 'I' for Inactive)
REMARK    1  A    between atoms: C_1  and  C_2
REMARK    2  A    between atoms: C_8  and  C_14
REMARK    3  A    between atoms: C_14  and  C_16
REMARK    4  A    between atoms: C_14  and  N_28
REMARK    5  A    between atoms: N_20  and  C_21
REMARK    6  A    between atoms: C_21  and  C_22
REMARK    7  A    between atoms: N_28  and  C_29
REMARK    8  A    between atoms: N_28  and  C_35
REMARK    9  A    between atoms: C_29  and  C_30
REMARK   10  A    between atoms: C_35  and  C_36
REMARK                            x       y       z     vdW  Elec       q    Type
REMARK                         _______ _______ _______ _____ _____    ______ ____
ROOT
ATOM      1  C   UNL     1      -1.404  -2.564   5.071  0.00  0.00    +0.019 C 
ENDROOT
BRANCH   1   9
ATOM      2  C   UNL     1       1.183  -5.726   0.490  0.00  0.00    +0.045 C 
ATOM      3  C   UNL     1       1.513  -5.647   1.958  0.00  0.00    -0.029 A 
ATOM      4  C   UNL     1       2.325  -6.581   2.518  0.00  0.00    +0.005 A 
ATOM      5  C   UNL     1       2.670  -6.566   3.870  0.00  0.00    +0.001 A 
ATOM      6  C   UNL     1       2.207  -5.602   4.707  0.00  0.00    +0.009 A 
ATOM      7  C   UNL     1       1.327  -4.563   4.169  0.00  0.00    -0.007 A 
ATOM      8  C   UNL     1       0.838  -3.576   4.972  0.00  0.00    -0.006 C 
ATOM      9  C   UNL     1      -0.065  -2.542   4.330  0.00  0.00    +0.092 C 
ATOM     10  C   UNL     1      -0.351  -2.689   2.853  0.00  0.00    +0.223 C 
ATOM     11  O   UNL     1      -1.069  -1.887   2.286  0.00  0.00    -0.275 OA
ATOM     12  N   UNL     1       0.184  -3.693   2.178  0.00  0.00    -0.284 N 
ATOM     13  C   UNL     1       0.984  -4.602   2.737  0.00  0.00    +0.043 A 
ATOM     14  H   UNL     1      -0.011  -3.770   1.231  0.00  0.00    +0.155 HD
ENDBRANCH   1   9
BRANCH   1  15
ATOM     15  C   UNL     1      -2.027  -3.930   4.941  0.00  0.00    +0.139 A 
ATOM     16  N   UNL     1      -1.402  -5.082   4.973  0.00  0.00    -0.115 NA
ATOM     17  N   UNL     1      -2.279  -6.015   4.829  0.00  0.00    -0.023 NA
ATOM     18  N   UNL     1      -3.447  -5.488   4.706  0.00  0.00    -0.044 NA
ATOM     19  N   UNL     1      -3.334  -4.205   4.775  0.00  0.00    -0.226 N 
BRANCH  19  20
ATOM     20  C   UNL     1      -4.424  -3.229   4.686  0.00  0.00    +0.182 C 
BRANCH  20  21
ATOM     21  C   UNL     1      -4.676  -2.889   3.240  0.00  0.00    -0.026 A 
ATOM     22  C   UNL     1      -3.985  -1.850   2.644  0.00  0.00    +0.005 A 
ATOM     23  C   UNL     1      -4.216  -1.538   1.317  0.00  0.00    +0.000 A 
ATOM     24  C   UNL     1      -5.138  -2.263   0.587  0.00  0.00    +0.000 A 
ATOM     25  C   UNL     1      -5.828  -3.302   1.182  0.00  0.00    +0.000 A 
ATOM     26  C   UNL     1      -5.594  -3.618   2.507  0.00  0.00    +0.005 A 
ENDBRANCH  20  21
ENDBRANCH  19  20
ENDBRANCH   1  15
BRANCH   1  27
ATOM     27  N   UNL     1      -1.184  -2.259   6.490  0.00  0.00    +0.392 N 
ATOM     28  H   UNL     1      -0.323  -2.687   6.796  0.00  0.00    -0.080 HD
BRANCH  27  29
ATOM     29  C   UNL     1      -1.099  -0.804   6.672  0.00  0.00    -0.034 C 
BRANCH  29  30
ATOM     30  C   UNL     1       0.170  -0.292   6.040  0.00  0.00    -0.027 A 
ATOM     31  C   UNL     1       0.329   0.406   4.889  0.00  0.00    +0.009 A 
ATOM     32  C   UNL     1       1.603   0.775   4.500  0.00  0.00    +0.008 A 
ATOM     33  C   UNL     1       2.655   0.429   5.281  0.00  0.00    +0.045 A 
ATOM     34  S   UNL     1       1.853  -0.441   6.617  0.00  0.00    -0.103 S 
ENDBRANCH  29  30
ENDBRANCH  27  29
BRANCH  27  35
ATOM     35  C   UNL     1      -2.302  -2.787   7.284  0.00  0.00    -0.045 C 
BRANCH  35  36
ATOM     36  C   UNL     1      -2.004  -4.233   7.686  0.00  0.00    +0.102 C 
ATOM     37  C   UNL     1      -3.201  -4.817   8.467  0.00  0.00    +0.032 C 
ATOM     38  C   UNL     1      -2.497  -5.656   9.568  0.00  0.00    +0.030 C 
ATOM     39  C   UNL     1      -1.237  -4.795   9.834  0.00  0.00    +0.160 C 
ATOM     40  O   UNL     1      -0.861  -4.273   8.548  0.00  0.00    -0.378 OA
ENDBRANCH  35  36
ENDBRANCH  27  35
ENDBRANCH   1  27
TORSDOF 9
