REMARK  Name = ZINC36643614
REMARK  11 active torsions:
REMARK  status: ('A' for Active; 'I' for Inactive)
REMARK    1  A    between atoms: C_1  and  N_2
REMARK    2  A    between atoms: N_2  and  C_3
REMARK    3  A    between atoms: N_2  and  C_4
REMARK    4  A    between atoms: C_4  and  C_5
REMARK    5  A    between atoms: C_5  and  C_6
REMARK    6  A    between atoms: C_6  and  N_7
REMARK    7  A    between atoms: C_12  and  O_17
REMARK    8  A    between atoms: O_17  and  C_18
REMARK    9  A    between atoms: C_19  and  C_21
REMARK   10  A    between atoms: C_24  and  S_27
REMARK   11  A    between atoms: S_27  and  N_30
REMARK                            x       y       z     vdW  Elec       q    Type
REMARK                         _______ _______ _______ _____ _____    ______ ____
ROOT
ATOM      1  N   UNL     1       0.134  -0.200   5.002  0.00  0.00    -0.246 N 
ATOM      2  C   UNL     1      -0.775  -1.029   5.637  0.00  0.00    +0.168 A 
ATOM      3  N   UNL     1      -1.599  -0.749   6.620  0.00  0.00    -0.224 NA
ATOM      4  C   UNL     1      -2.439  -1.666   7.147  0.00  0.00    +0.084 A 
ATOM      5  C   UNL     1      -3.368  -1.494   8.200  0.00  0.00    +0.074 A 
ATOM      6  C   UNL     1      -4.154  -2.541   8.620  0.00  0.00    +0.122 A 
ATOM      7  C   UNL     1      -4.063  -3.797   8.028  0.00  0.00    +0.047 A 
ATOM      8  C   UNL     1      -3.164  -3.996   6.997  0.00  0.00    +0.021 A 
ATOM      9  C   UNL     1      -2.377  -2.955   6.573  0.00  0.00    +0.041 A 
ATOM     10  S   UNL     1      -1.131  -2.752   5.322  0.00  0.00    -0.052 S 
ATOM     11  C   UNL     1       0.257   1.085   5.388  0.00  0.00    +0.252 C 
ATOM     12  O   UNL     1      -0.378   1.498   6.338  0.00  0.00    -0.270 OA
ENDROOT
BRANCH  11  13
ATOM     13  C   UNL     1       1.165   1.993   4.656  0.00  0.00    +0.037 A 
ATOM     14  C   UNL     1       1.325   1.861   3.275  0.00  0.00    +0.015 A 
ATOM     15  C   UNL     1       2.174   2.711   2.598  0.00  0.00    +0.029 A 
ATOM     16  C   UNL     1       2.867   3.693   3.284  0.00  0.00    +0.106 A 
ATOM     17  C   UNL     1       2.713   3.830   4.652  0.00  0.00    +0.029 A 
ATOM     18  C   UNL     1       1.862   2.990   5.341  0.00  0.00    +0.015 A 
BRANCH  16  19
ATOM     19  S   UNL     1       3.950   4.775   2.411  0.00  0.00    +0.061 S 
ATOM     20  O   UNL     1       4.895   5.254   3.358  0.00  0.00    -0.153 OA
ATOM     21  O   UNL     1       4.337   4.093   1.226  0.00  0.00    -0.153 OA
BRANCH  19  22
ATOM     22  N   UNL     1       3.054   6.083   1.933  0.00  0.00    -0.177 NA
ATOM     23  C   UNL     1       2.390   6.037   0.650  0.00  0.00    +0.109 C 
ATOM     24  C   UNL     1       3.340   6.581  -0.446  0.00  0.00    +0.017 C 
ATOM     25  C   UNL     1       3.502   8.036  -0.305  0.00  0.00    +0.001 C 
ATOM     26  C   UNL     1       4.149   8.473   1.005  0.00  0.00    +0.001 C 
ATOM     27  C   UNL     1       3.090   8.581   2.074  0.00  0.00    +0.017 C 
ATOM     28  C   UNL     1       2.962   7.246   2.838  0.00  0.00    +0.109 C 
ENDBRANCH  19  22
ENDBRANCH  16  19
ENDBRANCH  11  13
BRANCH   6  29
ATOM     29  O   UNL     1      -5.037  -2.345   9.634  0.00  0.00    -0.495 OA
ATOM     30  C   UNL     1      -5.829  -3.466  10.031  0.00  0.00    +0.277 C 
ENDBRANCH   6  29
BRANCH   1  31
ATOM     31  C   UNL     1       0.961  -0.720   3.911  0.00  0.00    +0.114 C 
BRANCH  31  32
ATOM     32  C   UNL     1       0.104  -0.884   2.654  0.00  0.00    +0.001 C 
BRANCH  32  33
ATOM     33  C   UNL     1       0.996  -1.277   1.475  0.00  0.00    -0.078 C 
BRANCH  33  35
ATOM     34  C   UNL     1      -0.410  -0.138  -0.100  0.00  0.00    -0.097 C 
ATOM     35  N   UNL     1       0.173  -1.435   0.269  0.00  0.00    +0.376 N 
ATOM     36  C   UNL     1       1.009  -1.928  -0.834  0.00  0.00    -0.097 C 
ATOM     37  H   UNL     1      -0.567  -2.097   0.451  0.00  0.00    -0.083 HD
ENDBRANCH  33  35
ENDBRANCH  32  33
ENDBRANCH  31  32
ENDBRANCH   1  31
TORSDOF 8
