REMARK  Name = ZINC38965213
REMARK  10 active torsions:
REMARK  status: ('A' for Active; 'I' for Inactive)
REMARK    1  A    between atoms: C_1  and  C_2
REMARK    2  A    between atoms: C_2  and  C_3
REMARK    3  A    between atoms: C_2  and  O_4
REMARK    4  A    between atoms: O_4  and  C_5
REMARK    5  A    between atoms: C_5  and  C_6
REMARK    6  A    between atoms: C_6  and  C_7
REMARK    7  A    between atoms: C_7  and  N_8
REMARK    8  A    between atoms: N_8  and  C_9
REMARK    9  A    between atoms: N_12  and  S_13
REMARK   10  A    between atoms: S_13  and  C_16
REMARK                            x       y       z     vdW  Elec       q    Type
REMARK                         _______ _______ _______ _____ _____    ______ ____
ROOT
ATOM      1  C   UNL     1      -5.903  -2.149  -3.745  0.00  0.00    +0.217 C 
ATOM      2  C   UNL     1      -7.264  -1.492  -3.739  0.00  0.00    +0.167 C 
ATOM      3  N   UNL     1      -7.384  -0.223  -3.481  0.00  0.00    -0.112 NA
ATOM      4  N   UNL     1      -8.349  -2.238  -4.003  0.00  0.00    -0.338 N 
ATOM      5  C   UNL     1      -8.254  -3.525  -4.267  0.00  0.00    +0.064 A 
ATOM      6  C   UNL     1      -9.421  -4.282  -4.541  0.00  0.00    +0.028 A 
ATOM      7  C   UNL     1      -9.330  -5.603  -4.812  0.00  0.00    +0.002 A 
ATOM      8  C   UNL     1      -8.105  -6.290  -4.838  0.00  0.00    +0.002 A 
ATOM      9  C   UNL     1      -6.933  -5.664  -4.591  0.00  0.00    +0.027 A 
ATOM     10  C   UNL     1      -6.947  -4.225  -4.287  0.00  0.00    +0.060 A 
ATOM     11  N   UNL     1      -5.836  -3.588  -4.044  0.00  0.00    -0.362 N 
ATOM     12  H   UNL     1      -4.985  -4.053  -4.060  0.00  0.00    +0.162 HD
ATOM     13  H   UNL     1      -9.224  -1.819  -3.999  0.00  0.00    +0.167 HD
ENDROOT
BRANCH   3  14
ATOM     14  S   UNL     1      -8.881   0.484  -3.477  0.00  0.00    +0.102 S 
ATOM     15  O   UNL     1      -9.360   0.429  -4.814  0.00  0.00    -0.146 OA
ATOM     16  O   UNL     1      -9.596  -0.085  -2.388  0.00  0.00    -0.146 OA
BRANCH  14  17
ATOM     17  C   UNL     1      -8.652   2.188  -3.093  0.00  0.00    +0.141 A 
ATOM     18  C   UNL     1      -8.958   3.135  -4.011  0.00  0.00    +0.031 A 
ATOM     19  C   UNL     1      -8.789   4.493  -3.741  0.00  0.00    +0.004 A 
ATOM     20  C   UNL     1      -8.312   4.923  -2.550  0.00  0.00    +0.031 A 
ATOM     21  C   UNL     1      -7.970   3.986  -1.538  0.00  0.00    +0.102 A 
ATOM     22  C   UNL     1      -8.152   2.567  -1.817  0.00  0.00    +0.127 A 
ATOM     23  N   UNL     1      -7.804   1.782  -0.796  0.00  0.00    -0.189 NA
ATOM     24  S   UNL     1      -7.314   2.778   0.369  0.00  0.00    +0.117 S 
ATOM     25  N   UNL     1      -7.491   4.223  -0.316  0.00  0.00    -0.191 NA
ENDBRANCH  14  17
ENDBRANCH   3  14
BRANCH   1  26
ATOM     26  N   UNL     1      -5.296  -1.937  -2.424  0.00  0.00    -0.291 NA
ATOM     27  H   UNL     1      -5.319  -2.783  -1.876  0.00  0.00    +0.124 HD
BRANCH  26  28
ATOM     28  C   UNL     1      -3.923  -1.429  -2.551  0.00  0.00    +0.085 C 
BRANCH  28  29
ATOM     29  C   UNL     1      -3.326  -1.221  -1.157  0.00  0.00    +0.043 C 
BRANCH  29  30
ATOM     30  C   UNL     1      -1.896  -0.693  -1.289  0.00  0.00    +0.161 C 
BRANCH  30  31
ATOM     31  O   UNL     1      -1.339  -0.499   0.012  0.00  0.00    -0.377 OA
BRANCH  31  33
ATOM     32  C   UNL     1      -0.019   1.526   0.010  0.00  0.00    +0.037 C 
ATOM     33  C   UNL     1       0.002  -0.004   0.002  0.00  0.00    +0.112 C 
ATOM     34  C   UNL     1       0.742  -0.511   1.242  0.00  0.00    +0.037 C 
ENDBRANCH  31  33
ENDBRANCH  30  31
ENDBRANCH  29  30
ENDBRANCH  28  29
ENDBRANCH  26  28
ENDBRANCH   1  26
TORSDOF 8
