REMARK  Name = ZINC64485431
REMARK  7 active torsions:
REMARK  status: ('A' for Active; 'I' for Inactive)
REMARK    1  A    between atoms: C_1  and  C_2
REMARK    2  A    between atoms: C_2  and  C_3
REMARK    3  A    between atoms: C_2  and  N_13
REMARK    4  A    between atoms: N_5  and  C_6
REMARK    5  A    between atoms: C_20  and  C_22
REMARK    6  A    between atoms: C_27  and  O_28
REMARK    7  A    between atoms: O_28  and  C_29
REMARK                            x       y       z     vdW  Elec       q    Type
REMARK                         _______ _______ _______ _____ _____    ______ ____
ROOT
ATOM      1  N   UNL     1       0.874  -1.613   1.540  0.00  0.00    +0.388 N 
ATOM      2  C   UNL     1       2.235  -1.222   1.901  0.00  0.00    -0.076 C 
ATOM      3  C   UNL     1       2.775  -2.188   2.932  0.00  0.00    +0.000 C 
ATOM      4  C   UNL     1       3.556  -3.310   2.223  0.00  0.00    +0.106 C 
ATOM      5  N   UNL     1       2.874  -3.730   0.982  0.00  0.00    -0.299 N 
ATOM      6  C   UNL     1       1.437  -3.888   0.903  0.00  0.00    +0.089 C 
ATOM      7  C   UNL     1       0.784  -2.550   0.486  0.00  0.00    -0.059 C 
ATOM      8  C   UNL     1       3.616  -3.974  -0.116  0.00  0.00    +0.250 C 
ATOM      9  O   UNL     1       3.072  -4.221  -1.175  0.00  0.00    -0.270 OA
ATOM     10  H   UNL     1       0.432  -2.008   2.356  0.00  0.00    -0.081 HD
ENDROOT
BRANCH   8  11
ATOM     11  C   UNL     1       5.089  -3.941  -0.034  0.00  0.00    +0.078 A 
ATOM     12  C   UNL     1       5.748  -4.573   1.024  0.00  0.00    +0.017 A 
ATOM     13  C   UNL     1       7.123  -4.539   1.095  0.00  0.00    +0.001 A 
ATOM     14  C   UNL     1       7.858  -3.881   0.122  0.00  0.00    +0.004 A 
ATOM     15  C   UNL     1       7.219  -3.252  -0.928  0.00  0.00    +0.046 A 
ATOM     16  C   UNL     1       5.836  -3.280  -1.018  0.00  0.00    +0.132 A 
BRANCH  16  17
ATOM     17  O   UNL     1       5.207  -2.667  -2.053  0.00  0.00    -0.494 OA
ATOM     18  C   UNL     1       6.034  -2.014  -3.018  0.00  0.00    +0.277 C 
ENDBRANCH  16  17
ENDBRANCH   8  11
BRANCH   1  20
ATOM     19  C   UNL     1       0.153   0.598   2.305  0.00  0.00    -0.004 C 
ATOM     20  C   UNL     1       0.133  -0.406   1.151  0.00  0.00    +0.016 C 
BRANCH  20  21
ATOM     21  C   UNL     1      -1.293  -0.774   0.830  0.00  0.00    +0.203 C 
ATOM     22  O   UNL     1      -1.823  -1.704   1.401  0.00  0.00    -0.277 OA
ATOM     23  N   UNL     1      -1.980  -0.069  -0.090  0.00  0.00    -0.285 N 
ATOM     24  H   UNL     1      -1.579   0.714  -0.501  0.00  0.00    +0.155 HD
BRANCH  23  25
ATOM     25  C   UNL     1      -3.273  -0.465  -0.454  0.00  0.00    +0.069 A 
ATOM     26  C   UNL     1      -4.071  -1.151   0.451  0.00  0.00    +0.026 A 
ATOM     27  C   UNL     1      -5.346  -1.540   0.089  0.00  0.00    +0.002 A 
ATOM     28  C   UNL     1      -5.829  -1.248  -1.173  0.00  0.00    +0.003 A 
ATOM     29  C   UNL     1      -5.038  -0.565  -2.078  0.00  0.00    +0.040 A 
ATOM     30  C   UNL     1      -3.762  -0.167  -1.721  0.00  0.00    +0.144 A 
ATOM     31  F   UNL     1      -2.991   0.505  -2.604  0.00  0.00    -0.204 F 
ENDBRANCH  23  25
ENDBRANCH  20  21
ENDBRANCH   1  20
TORSDOF 5
