REMARK  Name = ZINC59927078
REMARK  5 active torsions:
REMARK  status: ('A' for Active; 'I' for Inactive)
REMARK    1  A    between atoms: C_1  and  C_2
REMARK    2  A    between atoms: C_2  and  C_4
REMARK    3  A    between atoms: C_2  and  S_12
REMARK    4  A    between atoms: S_12  and  C_13
REMARK    5  A    between atoms: N_17  and  C_18
REMARK                            x       y       z     vdW  Elec       q    Type
REMARK                         _______ _______ _______ _____ _____    ______ ____
ROOT
ATOM      1  S   UNL     1       0.851  -0.589  -1.490  0.00  0.00    -0.076 S 
ENDROOT
BRANCH   1   2
ATOM      2  C   UNL     1      -0.189  -0.057  -2.809  0.00  0.00    +0.215 A 
ATOM      3  N   UNL     1      -1.314   0.616  -2.695  0.00  0.00    -0.101 NA
ATOM      4  N   UNL     1      -1.821   0.844  -3.853  0.00  0.00    -0.022 NA
ATOM      5  N   UNL     1      -1.075   0.344  -4.777  0.00  0.00    -0.038 NA
ATOM      6  N   UNL     1       0.021  -0.258  -4.134  0.00  0.00    -0.187 N 
BRANCH   6   7
ATOM      7  C   UNL     1       1.099  -0.925  -4.734  0.00  0.00    +0.070 A 
ATOM      8  C   UNL     1       2.367  -0.841  -4.175  0.00  0.00    +0.028 A 
ATOM      9  C   UNL     1       3.427  -1.499  -4.768  0.00  0.00    +0.002 A 
ATOM     10  C   UNL     1       3.226  -2.241  -5.917  0.00  0.00    +0.000 A 
ATOM     11  C   UNL     1       1.964  -2.326  -6.476  0.00  0.00    +0.002 A 
ATOM     12  C   UNL     1       0.900  -1.675  -5.885  0.00  0.00    +0.028 A 
ENDBRANCH   6   7
ENDBRANCH   1   2
BRANCH   1  14
ATOM     13  C   UNL     1      -0.019   1.526   0.010  0.00  0.00    +0.024 C 
ATOM     14  C   UNL     1       0.002  -0.004   0.002  0.00  0.00    +0.081 C 
BRANCH  14  15
ATOM     15  C   UNL     1       0.731  -0.503   1.223  0.00  0.00    -0.033 A 
ATOM     16  C   UNL     1       2.050  -0.147   1.433  0.00  0.00    +0.007 A 
ATOM     17  C   UNL     1       2.720  -0.604   2.553  0.00  0.00    +0.040 A 
ATOM     18  C   UNL     1       2.070  -1.418   3.464  0.00  0.00    +0.142 A 
ATOM     19  C   UNL     1       0.748  -1.774   3.253  0.00  0.00    +0.076 A 
ATOM     20  C   UNL     1       0.078  -1.312   2.134  0.00  0.00    +0.027 A 
ATOM     21 CL   UNL     1      -0.070  -2.795   4.394  0.00  0.00    -0.081 Cl
ATOM     22  F   UNL     1       2.724  -1.865   4.558  0.00  0.00    -0.204 F 
ENDBRANCH  14  15
ENDBRANCH   1  14
TORSDOF 4
