REMARK  Name = ZINC03315261
REMARK  9 active torsions:
REMARK  status: ('A' for Active; 'I' for Inactive)
REMARK    1  A    between atoms: C_1  and  C_2
REMARK    2  A    between atoms: C_2  and  N_3
REMARK    3  A    between atoms: C_4  and  C_36
REMARK    4  A    between atoms: C_10  and  C_12
REMARK    5  A    between atoms: N_14  and  N_15
REMARK    6  A    between atoms: C_16  and  C_18
REMARK    7  A    between atoms: C_19  and  C_27
REMARK    8  A    between atoms: C_27  and  S_28
REMARK    9  A    between atoms: S_28  and  C_29
REMARK                            x       y       z     vdW  Elec       q    Type
REMARK                         _______ _______ _______ _____ _____    ______ ____
ROOT
ATOM      1  N   UNL     1       3.372  -5.627   3.425  0.00  0.00    -0.228 N 
ATOM      2  C   UNL     1       3.256  -4.724   2.430  0.00  0.00    +0.296 C 
ATOM      3  O   UNL     1       3.127  -3.543   2.692  0.00  0.00    -0.265 OA
ATOM      4  H   UNL     1       3.474  -6.568   3.216  0.00  0.00    +0.173 HD
ENDROOT
BRANCH   2   5
ATOM      5  C   UNL     1       3.285  -5.167   1.029  0.00  0.00    +0.196 A 
ATOM      6  C   UNL     1       3.178  -4.351  -0.051  0.00  0.00    +0.021 A 
ATOM      7  C   UNL     1       3.264  -5.219  -1.225  0.00  0.00    +0.025 A 
ATOM      8  C   UNL     1       3.227  -4.998  -2.604  0.00  0.00    +0.012 A 
ATOM      9  C   UNL     1       3.338  -6.056  -3.462  0.00  0.00    +0.001 A 
ATOM     10  C   UNL     1       3.487  -7.346  -2.972  0.00  0.00    +0.004 A 
ATOM     11  C   UNL     1       3.526  -7.585  -1.616  0.00  0.00    +0.047 A 
ATOM     12  C   UNL     1       3.416  -6.525  -0.723  0.00  0.00    +0.136 A 
ATOM     13  O   UNL     1       3.420  -6.447   0.622  0.00  0.00    -0.450 OA
BRANCH   6  14
ATOM     14  C   UNL     1       3.010  -2.853  -0.042  0.00  0.00    +0.114 C 
BRANCH  14  15
ATOM     15  S   UNL     1       1.244  -2.443  -0.022  0.00  0.00    -0.120 S 
BRANCH  15  16
ATOM     16  C   UNL     1       1.216  -0.681  -0.013  0.00  0.00    +0.008 A 
ATOM     17  C   UNL     1       0.002  -0.004   0.002  0.00  0.00    +0.016 A 
ATOM     18  C   UNL     1      -0.017   1.377   0.010  0.00  0.00    +0.021 A 
ATOM     19  C   UNL     1       1.171   2.086   0.002  0.00  0.00    +0.041 A 
ATOM     20  C   UNL     1       2.382   1.415  -0.013  0.00  0.00    +0.021 A 
ATOM     21  C   UNL     1       2.407   0.034  -0.021  0.00  0.00    +0.016 A 
ATOM     22 CL   UNL     1       1.144   3.822   0.012  0.00  0.00    -0.084 Cl
ENDBRANCH  15  16
ENDBRANCH  14  15
ENDBRANCH   6  14
ENDBRANCH   2   5
BRANCH   1  25
ATOM     23  C   UNL     1       3.459  -6.107   5.755  0.00  0.00    +0.260 C 
ATOM     24  O   UNL     1       3.588  -7.287   5.493  0.00  0.00    -0.269 OA
ATOM     25  N   UNL     1       3.344  -5.205   4.760  0.00  0.00    -0.230 N 
ATOM     26  H   UNL     1       3.241  -4.263   4.969  0.00  0.00    +0.173 HD
BRANCH  23  34
ATOM     27  N   UNL     1       3.380  -4.689  11.170  0.00  0.00    -0.328 N 
ATOM     28  C   UNL     1       3.527  -5.944  11.675  0.00  0.00    +0.108 A 
ATOM     29  N   UNL     1       3.610  -6.809  10.707  0.00  0.00    -0.233 NA
ATOM     30  C   UNL     1       3.521  -6.166   9.514  0.00  0.00    +0.090 A 
ATOM     31  C   UNL     1       3.372  -4.795   9.796  0.00  0.00    +0.069 A 
ATOM     32  C   UNL     1       3.254  -3.877   8.759  0.00  0.00    +0.029 A 
ATOM     33  C   UNL     1       3.287  -4.301   7.462  0.00  0.00    +0.015 A 
ATOM     34  C   UNL     1       3.430  -5.662   7.163  0.00  0.00    +0.040 A 
ATOM     35  C   UNL     1       3.550  -6.595   8.188  0.00  0.00    +0.043 A 
ATOM     36  C   UNL     1       3.586  -6.282  13.142  0.00  0.00    +0.086 C 
BRANCH  27  38
ATOM     37  C   UNL     1       4.641  -2.861  12.194  0.00  0.00    +0.027 C 
ATOM     38  C   UNL     1       3.252  -3.451  11.945  0.00  0.00    +0.120 C 
ENDBRANCH  27  38
ENDBRANCH  23  34
ENDBRANCH   1  25
TORSDOF 7
