REMARK  Name = ZINC09307277
REMARK  4 active torsions:
REMARK  status: ('A' for Active; 'I' for Inactive)
REMARK    1  A    between atoms: C_1  and  C_2
REMARK    2  A    between atoms: C_2  and  C_4
REMARK    3  A    between atoms: C_6  and  C_31
REMARK    4  A    between atoms: C_34  and  N_37
REMARK                            x       y       z     vdW  Elec       q    Type
REMARK                         _______ _______ _______ _____ _____    ______ ____
ROOT
ATOM      1  C   UNL     1      -2.384   7.717   0.719  0.00  0.00    +0.149 C 
ATOM      2  C   UNL     1      -2.180   6.276   1.259  0.00  0.00    +0.070 C 
ATOM      3  C   UNL     1      -1.716   5.461   0.033  0.00  0.00    +0.127 C 
ATOM      4  C   UNL     1      -2.202   6.298  -1.149  0.00  0.00    +0.119 C 
ATOM      5  N   UNL     1      -1.947   7.685  -0.673  0.00  0.00    -0.311 N 
ATOM      6  C   UNL     1      -2.451   8.591  -1.571  0.00  0.00    +0.038 A 
ATOM      7  C   UNL     1      -3.161   9.719  -1.208  0.00  0.00    +0.025 A 
ATOM      8  C   UNL     1      -3.645  10.574  -2.181  0.00  0.00    +0.022 A 
ATOM      9  C   UNL     1      -3.423  10.309  -3.523  0.00  0.00    +0.042 A 
ATOM     10  C   UNL     1      -2.712   9.187  -3.906  0.00  0.00    +0.029 A 
ATOM     11  C   UNL     1      -2.220   8.322  -2.938  0.00  0.00    -0.003 A 
ATOM     12  C   UNL     1      -1.449   7.109  -3.300  0.00  0.00    +0.007 C 
ATOM     13  C   UNL     1      -1.432   6.094  -2.419  0.00  0.00    -0.003 C 
ATOM     14 CL   UNL     1      -4.040  11.394  -4.730  0.00  0.00    -0.084 Cl
ATOM     15  C   UNL     1      -2.316   4.083   0.034  0.00  0.00    +0.180 C 
ATOM     16  O   UNL     1      -3.496   3.807   0.048  0.00  0.00    -0.291 OA
ATOM     17  C   UNL     1      -1.196   3.139   0.017  0.00  0.00    +0.029 A 
ATOM     18  C   UNL     1      -1.218   1.741  -0.001  0.00  0.00    +0.012 A 
ATOM     19  C   UNL     1       0.009   1.090  -0.013  0.00  0.00    +0.001 A 
ATOM     20  C   UNL     1       1.205   1.780  -0.018  0.00  0.00    +0.001 A 
ATOM     21  C   UNL     1       1.255   3.168  -0.006  0.00  0.00    +0.012 A 
ATOM     22  C   UNL     1       0.034   3.848   0.011  0.00  0.00    +0.029 A 
ATOM     23  C   UNL     1      -0.223   5.290   0.026  0.00  0.00    +0.180 C 
ATOM     24  O   UNL     1       0.607   6.174   0.032  0.00  0.00    -0.291 OA
ENDROOT
BRANCH   2  25
ATOM     25  C   UNL     1      -1.121   6.261   2.330  0.00  0.00    -0.041 A 
ATOM     26  C   UNL     1      -1.189   5.339   3.358  0.00  0.00    +0.006 A 
ATOM     27  C   UNL     1      -0.215   5.322   4.338  0.00  0.00    +0.033 A 
ATOM     28  C   UNL     1       0.823   6.235   4.296  0.00  0.00    +0.126 A 
ATOM     29  C   UNL     1       0.889   7.160   3.272  0.00  0.00    +0.033 A 
ATOM     30  C   UNL     1      -0.083   7.174   2.288  0.00  0.00    +0.006 A 
BRANCH  28  31
ATOM     31  N   UNL     1       1.863   6.221   5.349  0.00  0.00    +0.056 N 
ATOM     32  O   UNL     1       2.777   7.025   5.313  0.00  0.00    -0.126 OA
ATOM     33  O   UNL     1       1.805   5.406   6.252  0.00  0.00    -0.126 OA
ENDBRANCH  28  31
ENDBRANCH   2  25
BRANCH   1  35
ATOM     34  C   UNL     1      -4.414   8.608   2.097  0.00  0.00    +0.088 C 
ATOM     35  C   UNL     1      -3.839   8.102   0.799  0.00  0.00    +0.151 C 
ATOM     36  O   UNL     1      -4.543   8.007  -0.177  0.00  0.00    -0.296 OA
ENDBRANCH   1  35
TORSDOF 3
