REMARK  Name = ZINC47963606
REMARK  6 active torsions:
REMARK  status: ('A' for Active; 'I' for Inactive)
REMARK    1  A    between atoms: C_1  and  N_2
REMARK    2  A    between atoms: N_2  and  C_3
REMARK    3  A    between atoms: N_2  and  C_4
REMARK    4  A    between atoms: C_4  and  C_10
REMARK    5  A    between atoms: C_10  and  N_11
REMARK    6  A    between atoms: C_12  and  C_14
REMARK                            x       y       z     vdW  Elec       q    Type
REMARK                         _______ _______ _______ _____ _____    ______ ____
ROOT
ATOM      1  N   UNL     1      -1.410  -0.098   2.380  0.00  0.00    -0.309 N 
ATOM      2  C   UNL     1      -1.825   0.420   3.553  0.00  0.00    +0.299 C 
ATOM      3  O   UNL     1      -2.814   1.123   3.590  0.00  0.00    -0.265 OA
ATOM      4  H   UNL     1      -0.619  -0.659   2.350  0.00  0.00    +0.149 HD
ENDROOT
BRANCH   2   5
ATOM      5  C   UNL     1      -1.067   0.130   4.807  0.00  0.00    +0.305 C 
ATOM      6  O   UNL     1      -0.078  -0.572   4.770  0.00  0.00    -0.265 OA
ATOM      7  N   UNL     1      -1.482   0.648   5.980  0.00  0.00    -0.257 N 
ATOM      8  C   UNL     1      -0.780   0.380   7.142  0.00  0.00    +0.166 A 
ATOM      9  N   UNL     1       0.303  -0.344   7.301  0.00  0.00    -0.225 NA
ATOM     10  C   UNL     1       0.887  -0.523   8.505  0.00  0.00    +0.080 A 
ATOM     11  C   UNL     1       2.047  -1.272   8.811  0.00  0.00    +0.029 A 
ATOM     12  C   UNL     1       2.510  -1.352  10.098  0.00  0.00    +0.002 A 
ATOM     13  C   UNL     1       1.863  -0.706  11.142  0.00  0.00    +0.001 A 
ATOM     14  C   UNL     1       0.726   0.036  10.880  0.00  0.00    +0.017 A 
ATOM     15  C   UNL     1       0.255   0.122   9.593  0.00  0.00    +0.041 A 
ATOM     16  S   UNL     1      -1.114   0.936   8.807  0.00  0.00    -0.052 S 
ATOM     17  H   UNL     1      -2.273   1.210   6.010  0.00  0.00    +0.157 HD
ENDBRANCH   2   5
BRANCH   1  18
ATOM     18  C   UNL     1      -2.153   0.187   1.150  0.00  0.00    +0.093 C 
BRANCH  18  19
ATOM     19  C   UNL     1      -1.399  -0.396  -0.048  0.00  0.00    -0.050 C 
ATOM     20  C   UNL     1      -2.106   0.012  -1.342  0.00  0.00    -0.010 C 
ATOM     21  C   UNL     1      -3.539  -0.524  -1.332  0.00  0.00    -0.001 C 
ATOM     22  C   UNL     1      -3.512  -2.050  -1.224  0.00  0.00    -0.000 C 
ATOM     23  C   UNL     1      -2.805  -2.458   0.071  0.00  0.00    -0.001 C 
ATOM     24  C   UNL     1      -1.372  -1.922   0.060  0.00  0.00    -0.010 C 
BRANCH  19  26
ATOM     25  C   UNL     1       0.690  -0.413  -1.227  0.00  0.00    -0.096 C 
ATOM     26  N   UNL     1      -0.023   0.119  -0.058  0.00  0.00    +0.381 N 
ATOM     27  C   UNL     1      -0.050   1.586  -0.126  0.00  0.00    -0.096 C 
ATOM     28  H   UNL     1       0.450  -0.171   0.785  0.00  0.00    -0.082 HD
ENDBRANCH  19  26
ENDBRANCH  18  19
ENDBRANCH   1  18
TORSDOF 4
