REMARK  Name = ZINC19833564
REMARK  8 active torsions:
REMARK  status: ('A' for Active; 'I' for Inactive)
REMARK    1  A    between atoms: C_1  and  C_2
REMARK    2  A    between atoms: C_3  and  C_25
REMARK    3  A    between atoms: C_4  and  C_16
REMARK    4  A    between atoms: C_9  and  C_13
REMARK    5  A    between atoms: C_9  and  C_14
REMARK    6  A    between atoms: C_19  and  O_24
REMARK    7  A    between atoms: C_20  and  O_22
REMARK    8  A    between atoms: O_22  and  C_23
REMARK                            x       y       z     vdW  Elec       q    Type
REMARK                         _______ _______ _______ _____ _____    ______ ____
ROOT
ATOM      1  C   UNL     1      -0.018   1.503   0.010  0.00  0.00    +0.066 C 
ATOM      2  C   UNL     1       0.002  -0.004   0.002  0.00  0.00    +0.053 C 
ATOM      3  C   UNL     1      -1.183  -0.671   0.004  0.00  0.00    +0.062 C 
ATOM      4  C   UNL     1      -1.133  -2.188  -0.005  0.00  0.00    +0.096 C 
ATOM      5  C   UNL     1       0.255  -2.801  -0.017  0.00  0.00    +0.029 C 
ATOM      6  C   UNL     1       0.405  -4.135  -0.029  0.00  0.00    +0.162 C 
ATOM      7  C   UNL     1       1.771  -4.768  -0.038  0.00  0.00    +0.086 C 
ATOM      8  C   UNL     1       2.757  -3.832  -0.744  0.00  0.00    -0.023 C 
ATOM      9  C   UNL     1       2.757  -2.480  -0.026  0.00  0.00    +0.062 C 
ATOM     10  C   UNL     1       1.354  -1.923  -0.016  0.00  0.00    +0.050 C 
ATOM     11  N   UNL     1       1.176  -0.623  -0.013  0.00  0.00    -0.255 NA
ATOM     12  C   UNL     1       2.328  -3.639  -2.200  0.00  0.00    +0.011 C 
ATOM     13  C   UNL     1       4.162  -4.438  -0.697  0.00  0.00    +0.011 C 
ATOM     14  O   UNL     1      -0.689  -4.923  -0.032  0.00  0.00    -0.292 OA
ENDROOT
BRANCH   4  15
ATOM     15  C   UNL     1      -1.856  -2.692   1.217  0.00  0.00    -0.031 A 
ATOM     16  C   UNL     1      -1.418  -2.327   2.477  0.00  0.00    +0.008 A 
ATOM     17  C   UNL     1      -2.078  -2.786   3.602  0.00  0.00    +0.049 A 
ATOM     18  C   UNL     1      -3.181  -3.614   3.468  0.00  0.00    +0.158 A 
ATOM     19  C   UNL     1      -3.622  -3.981   2.200  0.00  0.00    +0.162 A 
ATOM     20  C   UNL     1      -2.959  -3.513   1.077  0.00  0.00    +0.054 A 
BRANCH  19  21
ATOM     21  O   UNL     1      -4.705  -4.793   2.064  0.00  0.00    -0.491 OA
ATOM     22  C   UNL     1      -5.101  -5.128   0.732  0.00  0.00    +0.277 C 
ENDBRANCH  19  21
BRANCH  18  23
ATOM     23  O   UNL     1      -3.831  -4.067   4.573  0.00  0.00    -0.503 OA
ATOM     24  H   UNL     1      -4.547  -3.490   4.872  0.00  0.00    +0.292 HD
ENDBRANCH  18  23
ENDBRANCH   4  15
BRANCH   3  25
ATOM     25  C   UNL     1      -2.431   0.031   0.015  0.00  0.00    +0.098 C 
ATOM     26  N   UNL     1      -3.421   0.588   0.024  0.00  0.00    -0.191 NA
ENDBRANCH   3  25
TORSDOF 4
