REMARK  Name = ZINC36637871
REMARK  8 active torsions:
REMARK  status: ('A' for Active; 'I' for Inactive)
REMARK    1  A    between atoms: C_1  and  C_2
REMARK    2  A    between atoms: C_2  and  N_3
REMARK    3  A    between atoms: N_3  and  C_4
REMARK    4  A    between atoms: N_3  and  C_6
REMARK    5  A    between atoms: C_4  and  C_5
REMARK    6  A    between atoms: C_6  and  C_7
REMARK    7  A    between atoms: C_7  and  N_8
REMARK    8  A    between atoms: C_19  and  C_21
REMARK                            x       y       z     vdW  Elec       q    Type
REMARK                         _______ _______ _______ _____ _____    ______ ____
ROOT
ATOM      1  N   UNL     1      -1.021  -3.667  -2.075  0.00  0.00    -0.248 N 
ATOM      2  C   UNL     1      -1.201  -4.581  -1.051  0.00  0.00    +0.168 A 
ATOM      3  N   UNL     1      -1.278  -4.364   0.242  0.00  0.00    -0.224 NA
ATOM      4  C   UNL     1      -1.458  -5.362   1.135  0.00  0.00    +0.080 A 
ATOM      5  C   UNL     1      -1.556  -5.265   2.543  0.00  0.00    +0.030 A 
ATOM      6  C   UNL     1      -1.739  -6.386   3.310  0.00  0.00    +0.017 A 
ATOM      7  C   UNL     1      -1.834  -7.648   2.740  0.00  0.00    +0.019 A 
ATOM      8  C   UNL     1      -1.742  -7.779   1.366  0.00  0.00    +0.032 A 
ATOM      9  C   UNL     1      -1.559  -6.662   0.590  0.00  0.00    +0.042 A 
ATOM     10  S   UNL     1      -1.398  -6.354  -1.153  0.00  0.00    -0.052 S 
ATOM     11 BR   UNL     1      -2.086  -9.172   3.831  0.00  0.00    -0.050 Br
ATOM     12  C   UNL     1      -0.975  -4.089  -3.354  0.00  0.00    +0.254 C 
ATOM     13  O   UNL     1      -1.177  -5.259  -3.616  0.00  0.00    -0.270 OA
ENDROOT
BRANCH  12  14
ATOM     14  C   UNL     1      -0.680  -3.134  -4.432  0.00  0.00    +0.064 A 
ATOM     15  C   UNL     1      -1.476  -1.945  -4.629  0.00  0.00    +0.042 A 
ATOM     16  C   UNL     1      -1.100  -1.153  -5.654  0.00  0.00    +0.080 A 
ATOM     17  S   UNL     1       0.305  -2.008  -6.333  0.00  0.00    -0.064 S 
ATOM     18  C   UNL     1       0.374  -3.328  -5.301  0.00  0.00    +0.091 A 
ATOM     19 CL   UNL     1       1.510  -4.641  -5.322  0.00  0.00    -0.075 Cl
ATOM     20 CL   UNL     1      -1.814   0.339  -6.181  0.00  0.00    -0.076 Cl
ENDBRANCH  12  14
BRANCH   1  21
ATOM     21  C   UNL     1      -0.880  -2.241  -1.768  0.00  0.00    +0.097 C 
BRANCH  21  22
ATOM     22  C   UNL     1       0.605  -1.880  -1.695  0.00  0.00    -0.059 C 
BRANCH  22  23
ATOM     23  N   UNL     1       0.747  -0.451  -1.387  0.00  0.00    +0.380 N 
ATOM     24  H   UNL     1       0.234   0.092  -2.066  0.00  0.00    -0.082 HD
BRANCH  23  26
ATOM     25  C   UNL     1       0.232   1.323   0.221  0.00  0.00    -0.017 C 
ATOM     26  C   UNL     1       0.215  -0.184  -0.044  0.00  0.00    -0.082 C 
ENDBRANCH  23  26
BRANCH  23  27
ATOM     27  C   UNL     1       2.167  -0.078  -1.435  0.00  0.00    -0.082 C 
ATOM     28  C   UNL     1       2.684  -0.220  -2.868  0.00  0.00    -0.017 C 
ENDBRANCH  23  27
ENDBRANCH  22  23
ENDBRANCH  21  22
ENDBRANCH   1  21
TORSDOF 6
