REMARK  Name = ZINC00193764
REMARK  8 active torsions:
REMARK  status: ('A' for Active; 'I' for Inactive)
REMARK    1  A    between atoms: C_1  and  C_2
REMARK    2  A    between atoms: C_3  and  C_19
REMARK    3  A    between atoms: C_4  and  C_10
REMARK    4  A    between atoms: C_14  and  N_16
REMARK    5  A    between atoms: C_19  and  O_21
REMARK    6  A    between atoms: O_21  and  C_22
REMARK    7  A    between atoms: C_22  and  C_23
REMARK    8  A    between atoms: C_22  and  C_24
REMARK                            x       y       z     vdW  Elec       q    Type
REMARK                         _______ _______ _______ _____ _____    ______ ____
ROOT
ATOM      1  C   UNL     1      -1.533   7.095  -3.079  0.00  0.00    +0.061 C 
ATOM      2  C   UNL     1      -1.317   6.602  -1.671  0.00  0.00    +0.019 C 
ATOM      3  C   UNL     1      -0.251   5.820  -1.397  0.00  0.00    +0.078 C 
ATOM      4  C   UNL     1      -0.070   5.347   0.031  0.00  0.00    +0.141 C 
ATOM      5  N   UNL     1      -1.081   5.782   1.010  0.00  0.00    -0.315 N 
ATOM      6  C   UNL     1      -2.093   6.564   0.582  0.00  0.00    +0.135 C 
ATOM      7  S   UNL     1      -3.275   7.078   1.709  0.00  0.00    -0.019 S 
ATOM      8  N   UNL     1      -2.203   6.953  -0.694  0.00  0.00    -0.300 N 
ATOM      9  H   UNL     1      -1.021   5.512   1.939  0.00  0.00    +0.149 HD
ATOM     10  H   UNL     1      -2.954   7.516  -0.938  0.00  0.00    +0.154 HD
ENDROOT
BRANCH   4  11
ATOM     11  C   UNL     1      -0.050   3.840   0.023  0.00  0.00    -0.020 A 
ATOM     12  C   UNL     1      -1.238   3.133   0.030  0.00  0.00    +0.006 A 
ATOM     13  C   UNL     1      -1.219   1.751   0.017  0.00  0.00    +0.003 A 
ATOM     14  C   UNL     1      -0.013   1.076   0.008  0.00  0.00    +0.033 A 
ATOM     15  C   UNL     1       1.175   1.783   0.000  0.00  0.00    +0.127 A 
ATOM     16  C   UNL     1       1.156   3.166   0.008  0.00  0.00    +0.038 A 
BRANCH  15  17
ATOM     17  N   UNL     1       2.467   1.060  -0.016  0.00  0.00    +0.056 N 
ATOM     18  O   UNL     1       2.483  -0.157  -0.023  0.00  0.00    -0.126 OA
ATOM     19  O   UNL     1       3.513   1.684  -0.022  0.00  0.00    -0.126 OA
ENDBRANCH  15  17
ENDBRANCH   4  11
BRANCH   3  20
ATOM     20  C   UNL     1       0.667   5.455  -2.409  0.00  0.00    +0.339 C 
ATOM     21  O   UNL     1       0.502   5.846  -3.550  0.00  0.00    -0.245 OA
BRANCH  20  22
ATOM     22  O   UNL     1       1.725   4.673  -2.111  0.00  0.00    -0.459 OA
BRANCH  22  23
ATOM     23  C   UNL     1       2.612   4.344  -3.182  0.00  0.00    +0.171 C 
ATOM     24  C   UNL     1       3.714   5.401  -3.275  0.00  0.00    +0.052 C 
ATOM     25  C   UNL     1       3.240   2.973  -2.922  0.00  0.00    +0.052 C 
ENDBRANCH  22  23
ENDBRANCH  20  22
ENDBRANCH   3  20
TORSDOF 5
