REMARK  Name = ZINC44861231
REMARK  6 active torsions:
REMARK  status: ('A' for Active; 'I' for Inactive)
REMARK    1  A    between atoms: C_1  and  C_2
REMARK    2  A    between atoms: C_5  and  N_9
REMARK    3  A    between atoms: C_10  and  C_12
REMARK    4  A    between atoms: C_12  and  C_14
REMARK    5  A    between atoms: C_12  and  C_15
REMARK    6  A    between atoms: N_16  and  O_17
REMARK                            x       y       z     vdW  Elec       q    Type
REMARK                         _______ _______ _______ _____ _____    ______ ____
ROOT
ATOM      1  N   UNL     1       0.059  -4.172  -0.021  0.00  0.00    -0.283 N 
ATOM      2  C   UNL     1       0.473  -4.846   1.070  0.00  0.00    +0.227 C 
ATOM      3  O   UNL     1       0.743  -4.245   2.088  0.00  0.00    -0.275 OA
ATOM      4  H   UNL     1      -0.225  -4.656  -0.812  0.00  0.00    +0.155 HD
ENDROOT
BRANCH   1   9
ATOM      5  C   UNL     1      -0.020   1.503   0.010  0.00  0.00    +0.044 C 
ATOM      6  C   UNL     1       0.001  -0.004   0.002  0.00  0.00    -0.048 A 
ATOM      7  C   UNL     1       1.141  -0.676  -0.399  0.00  0.00    +0.020 A 
ATOM      8  C   UNL     1       1.164  -2.058  -0.407  0.00  0.00    +0.040 A 
ATOM      9  C   UNL     1       0.040  -2.772  -0.013  0.00  0.00    +0.062 A 
ATOM     10  C   UNL     1      -1.104  -2.094   0.389  0.00  0.00    +0.040 A 
ATOM     11  C   UNL     1      -1.118  -0.712   0.400  0.00  0.00    +0.020 A 
ATOM     12 BR   UNL     1      -2.638  -3.061   0.927  0.00  0.00    -0.048 Br
ATOM     13 BR   UNL     1       2.724  -2.975  -0.956  0.00  0.00    -0.048 Br
ENDBRANCH   1   9
BRANCH   2  14
ATOM     14  C   UNL     1       0.601  -6.347   1.025  0.00  0.00    +0.138 C 
ATOM     15  C   UNL     1       1.609  -6.740  -0.057  0.00  0.00    +0.025 C 
BRANCH  14  16
ATOM     16  C   UNL     1       1.078  -6.851   2.362  0.00  0.00    +0.143 C 
ATOM     17  N   UNL     1       2.337  -7.058   2.563  0.00  0.00    -0.076 NA
ATOM     18  N   UNL     1       0.172  -7.091   3.371  0.00  0.00    -0.343 N 
ATOM     19  H   UNL     1      -0.774  -6.935   3.220  0.00  0.00    +0.144 HD
ATOM     20  H   UNL     1       0.478  -7.415   4.232  0.00  0.00    +0.144 HD
BRANCH  17  21
ATOM     21  O   UNL     1       2.785  -7.532   3.820  0.00  0.00    -0.408 OA
ATOM     22  H   UNL     1       3.743  -7.657   3.875  0.00  0.00    +0.328 HD
ENDBRANCH  17  21
ENDBRANCH  14  16
ENDBRANCH   2  14
TORSDOF 4
