REMARK  Name = ZINC21569490
REMARK  8 active torsions:
REMARK  status: ('A' for Active; 'I' for Inactive)
REMARK    1  A    between atoms: C_1  and  C_2
REMARK    2  A    between atoms: C_5  and  C_8
REMARK    3  A    between atoms: C_8  and  C_10
REMARK    4  A    between atoms: C_8  and  N_13
REMARK    5  A    between atoms: C_14  and  C_16
REMARK    6  A    between atoms: C_16  and  N_17
REMARK    7  A    between atoms: C_20  and  C_24
REMARK    8  A    between atoms: C_20  and  C_25
REMARK                            x       y       z     vdW  Elec       q    Type
REMARK                         _______ _______ _______ _____ _____    ______ ____
ROOT
ATOM      1  C   UNL     1       0.002  -0.004   0.002  0.00  0.00    +0.213 C 
ENDROOT
BRANCH   1   2
ATOM      2  N   UNL     1      -0.018   1.461   0.010  0.00  0.00    -0.215 N 
ATOM      3  C   UNL     1       1.087   2.233   0.004  0.00  0.00    +0.251 C 
ATOM      4  O   UNL     1       2.240   1.861  -0.008  0.00  0.00    -0.272 OA
ATOM      5  C   UNL     1       0.587   3.664   0.015  0.00  0.00    +0.135 C 
ATOM      6  N   UNL     1      -0.879   3.518   0.028  0.00  0.00    -0.281 N 
ATOM      7  C   UNL     1      -1.135   2.197   0.019  0.00  0.00    +0.310 C 
ATOM      8  O   UNL     1      -2.255   1.726   0.022  0.00  0.00    -0.252 OA
ATOM      9  C   UNL     1       1.043   4.404  -1.244  0.00  0.00    +0.047 C 
ATOM     10  H   UNL     1      -1.521   4.412   0.042  0.00  0.00    +0.152 HD
BRANCH   5  11
ATOM     11  C   UNL     1       1.059   4.381   1.254  0.00  0.00    -0.015 A 
ATOM     12  C   UNL     1       2.254   4.020   1.847  0.00  0.00    +0.007 A 
ATOM     13  C   UNL     1       2.691   4.681   2.980  0.00  0.00    +0.020 A 
ATOM     14  C   UNL     1       1.925   5.696   3.526  0.00  0.00    +0.041 A 
ATOM     15  C   UNL     1       0.726   6.052   2.935  0.00  0.00    +0.020 A 
ATOM     16  C   UNL     1       0.294   5.395   1.799  0.00  0.00    +0.007 A 
ATOM     17 CL   UNL     1       2.470   6.522   4.953  0.00  0.00    -0.084 Cl
ENDBRANCH   5  11
ENDBRANCH   1   2
BRANCH   1  19
ATOM     18  N   UNL     1       0.043  -1.840   1.659  0.00  0.00    -0.307 N 
ATOM     19  C   UNL     1       0.022  -0.514   1.420  0.00  0.00    +0.231 C 
ATOM     20  O   UNL     1       0.021   0.269   2.346  0.00  0.00    -0.274 OA
ATOM     21  H   UNL     1       0.044  -2.550   0.819  0.00  0.00    +0.149 HD
BRANCH  18  22
ATOM     22  C   UNL     1       0.063  -2.336   3.037  0.00  0.00    +0.106 C 
BRANCH  22  27
ATOM     23  C   UNL     1       2.438  -7.602   3.156  0.00  0.00    +0.044 C 
ATOM     24  C   UNL     1       1.818  -6.229   3.126  0.00  0.00    -0.050 A 
ATOM     25  C   UNL     1       2.109  -5.317   4.123  0.00  0.00    +0.004 A 
ATOM     26  C   UNL     1       1.540  -4.057   4.095  0.00  0.00    +0.006 A 
ATOM     27  C   UNL     1       0.682  -3.709   3.068  0.00  0.00    -0.027 A 
ATOM     28  C   UNL     1       0.388  -4.623   2.074  0.00  0.00    +0.006 A 
ATOM     29  C   UNL     1       0.959  -5.881   2.100  0.00  0.00    +0.004 A 
ENDBRANCH  22  27
BRANCH  22  30
ATOM     30  C   UNL     1      -1.369  -2.410   3.573  0.00  0.00    +0.014 C 
ATOM     31  C   UNL     1      -2.508  -2.176   2.580  0.00  0.00    +0.006 C 
ATOM     32  C   UNL     1      -2.172  -1.109   3.623  0.00  0.00    +0.006 C 
ENDBRANCH  22  30
ENDBRANCH  18  22
ENDBRANCH   1  19
TORSDOF 6
