REMARK  Name = ZINC23402527
REMARK  5 active torsions:
REMARK  status: ('A' for Active; 'I' for Inactive)
REMARK    1  A    between atoms: C_1  and  C_2
REMARK    2  A    between atoms: C_2  and  C_3
REMARK    3  A    between atoms: C_2  and  N_4
REMARK    4  A    between atoms: C_12  and  O_24
REMARK    5  A    between atoms: C_14  and  C_17
REMARK                            x       y       z     vdW  Elec       q    Type
REMARK                         _______ _______ _______ _____ _____    ______ ____
ROOT
ATOM      1  N   UNL     1      -1.521   6.085   0.244  0.00  0.00    +0.384 N 
ATOM      2  C   UNL     1      -1.786   4.911   1.087  0.00  0.00    -0.073 C 
ATOM      3  C   UNL     1      -1.120   3.670   0.485  0.00  0.00    +0.018 C 
ATOM      4  C   UNL     1       0.345   3.999   0.217  0.00  0.00    -0.027 A 
ATOM      5  C   UNL     1       0.750   5.291   0.170  0.00  0.00    -0.021 A 
ATOM      6  S   UNL     1       2.490   5.210  -0.157  0.00  0.00    -0.080 S 
ATOM      7  C   UNL     1       2.667   3.509  -0.234  0.00  0.00    +0.080 A 
ATOM      8  C   UNL     1       1.381   3.006   0.005  0.00  0.00    +0.067 A 
ATOM      9  C   UNL     1       1.217   1.530  -0.001  0.00  0.00    +0.220 C 
ATOM     10  N   UNL     1       2.297   0.798  -0.010  0.00  0.00    -0.223 NA
ATOM     11  C   UNL     1       3.655   1.320   0.069  0.00  0.00    +0.224 C 
ATOM     12  N   UNL     1       3.745   2.691  -0.469  0.00  0.00    -0.313 N 
ATOM     13  C   UNL     1      -0.110   6.500   0.355  0.00  0.00    -0.035 C 
ATOM     14  H   UNL     1       4.642   3.006  -1.023  0.00  0.00    +0.149 HD
ATOM     15  H   UNL     1      -1.718   5.804  -0.802  0.00  0.00    -0.081 HD
ENDROOT
BRANCH  11  16
ATOM     16  C   UNL     1       4.089   1.329   1.512  0.00  0.00    -0.005 A 
ATOM     17  C   UNL     1       5.026   2.247   1.947  0.00  0.00    +0.008 A 
ATOM     18  C   UNL     1       5.420   2.258   3.272  0.00  0.00    +0.015 A 
ATOM     19  C   UNL     1       4.884   1.344   4.160  0.00  0.00    +0.018 A 
ATOM     20  C   UNL     1       3.950   0.422   3.724  0.00  0.00    +0.015 A 
ATOM     21  C   UNL     1       3.553   0.415   2.400  0.00  0.00    +0.008 A 
ATOM     22 BR   UNL     1       5.429   1.354   5.971  0.00  0.00    -0.050 Br
ENDBRANCH  11  16
BRANCH   1  24
ATOM     23  C   UNL     1      -2.175   7.626   2.031  0.00  0.00    -0.014 C 
ATOM     24  C   UNL     1      -2.424   7.192   0.585  0.00  0.00    -0.074 C 
ATOM     25  C   UNL     1      -2.162   8.372  -0.353  0.00  0.00    -0.014 C 
ENDBRANCH   1  24
BRANCH   9  26
ATOM     26  O   UNL     1      -0.011   0.963   0.007  0.00  0.00    -0.492 OA
ATOM     27  H   UNL     1      -0.111  -0.133   0.002  0.00  0.00    +0.294 HD
ENDBRANCH   9  26
TORSDOF 3
