REMARK  Name = ZINC07283327
REMARK  5 active torsions:
REMARK  status: ('A' for Active; 'I' for Inactive)
REMARK    1  A    between atoms: C_3  and  C_6
REMARK    2  A    between atoms: C_11  and  C_14
REMARK    3  A    between atoms: N_16  and  N_17
REMARK    4  A    between atoms: C_18  and  C_20
REMARK    5  A    between atoms: C_20  and  C_21
REMARK                            x       y       z     vdW  Elec       q    Type
REMARK                         _______ _______ _______ _____ _____    ______ ____
ROOT
ATOM      1  C   UNL     1       7.377  -1.943   1.735  0.00  0.00    +0.232 C 
ATOM      2  O   UNL     1       6.780  -2.680   2.491  0.00  0.00    -0.274 OA
ATOM      3  N   UNL     1       8.717  -1.831   1.822  0.00  0.00    -0.234 N 
ATOM      4  H   UNL     1       9.195  -1.242   1.218  0.00  0.00    +0.173 HD
ENDROOT
BRANCH   1  10
ATOM      5  C   UNL     1       3.725   1.670  -0.025  0.00  0.00    +0.253 C 
ATOM      6  O   UNL     1       2.566   1.322   0.104  0.00  0.00    -0.269 OA
ATOM      7  N   UNL     1       4.697   0.744  -0.141  0.00  0.00    -0.297 N 
ATOM      8  C   UNL     1       4.364  -0.681  -0.263  0.00  0.00    +0.109 C 
ATOM      9  C   UNL     1       5.126  -1.460   0.814  0.00  0.00    +0.032 C 
ATOM     10  C   UNL     1       6.620  -1.152   0.699  0.00  0.00    +0.079 C 
ATOM     11  C   UNL     1       6.854   0.343   0.928  0.00  0.00    +0.032 C 
ATOM     12  C   UNL     1       6.112   1.142  -0.153  0.00  0.00    +0.109 C 
BRANCH   5  15
ATOM     13  C   UNL     1       3.921   5.409   0.259  0.00  0.00    +0.008 A 
ATOM     14  C   UNL     1       3.342   4.175   0.434  0.00  0.00    +0.021 A 
ATOM     15  C   UNL     1       4.063   3.096  -0.054  0.00  0.00    +0.074 A 
ATOM     16  S   UNL     1       5.508   3.895  -0.726  0.00  0.00    -0.092 S 
ATOM     17  C   UNL     1       5.125   5.489  -0.361  0.00  0.00    +0.046 A 
ENDBRANCH   5  15
ENDBRANCH   1  10
BRANCH   3  18
ATOM     18  N   UNL     1       9.421  -2.567   2.785  0.00  0.00    -0.234 N 
ATOM     19  C   UNL     1      10.761  -2.455   2.872  0.00  0.00    +0.230 C 
ATOM     20  O   UNL     1      11.358  -1.718   2.116  0.00  0.00    -0.274 OA
ATOM     21  H   UNL     1       8.943  -3.156   3.390  0.00  0.00    +0.173 HD
BRANCH  19  22
ATOM     22  C   UNL     1      11.518  -3.245   3.908  0.00  0.00    +0.104 C 
BRANCH  22  23
ATOM     23  C   UNL     1      13.012  -2.938   3.793  0.00  0.00    -0.020 C 
ATOM     24  C   UNL     1      13.506  -3.323   2.397  0.00  0.00    +0.011 C 
ATOM     25  C   UNL     1      15.000  -3.015   2.282  0.00  0.00    -0.010 C 
ATOM     26  C   UNL     1      15.768  -3.818   3.334  0.00  0.00    +0.007 C 
ATOM     27  C   UNL     1      15.274  -3.434   4.730  0.00  0.00    -0.010 C 
ATOM     28  C   UNL     1      13.780  -3.741   4.845  0.00  0.00    +0.011 C 
ATOM     29  C   UNL     1      15.507  -1.939   4.959  0.00  0.00    +0.007 C 
ATOM     30  C   UNL     1      14.739  -1.136   3.908  0.00  0.00    -0.010 C 
ATOM     31  C   UNL     1      15.233  -1.521   2.511  0.00  0.00    +0.007 C 
ATOM     32  C   UNL     1      13.244  -1.443   4.022  0.00  0.00    +0.011 C 
ENDBRANCH  22  23
ENDBRANCH  19  22
ENDBRANCH   3  18
TORSDOF 5
