REMARK  Name = ZINC18107271
REMARK  10 active torsions:
REMARK  status: ('A' for Active; 'I' for Inactive)
REMARK    1  A    between atoms: C_1  and  C_2
REMARK    2  A    between atoms: C_2  and  N_3
REMARK    3  A    between atoms: N_3  and  C_4
REMARK    4  A    between atoms: N_3  and  C_6
REMARK    5  A    between atoms: C_4  and  C_5
REMARK    6  A    between atoms: C_9  and  C_12
REMARK    7  A    between atoms: C_17  and  C_32
REMARK    8  A    between atoms: C_29  and  C_31
REMARK    9  A    between atoms: C_35  and  O_38
REMARK   10  A    between atoms: O_38  and  C_39
REMARK                            x       y       z     vdW  Elec       q    Type
REMARK                         _______ _______ _______ _____ _____    ______ ____
ROOT
ATOM      1  C   UNL     1      -0.718  -5.913  -1.697  0.00  0.00    +0.032 C 
ATOM      2  C   UNL     1      -2.153  -6.406  -1.916  0.00  0.00    +0.088 C 
ATOM      3  C   UNL     1      -2.118  -7.886  -2.153  0.00  0.00    +0.163 C 
ATOM      4  C   UNL     1      -0.998  -8.534  -2.726  0.00  0.00    +0.037 C 
ATOM      5  C   UNL     1      -1.157 -10.029  -2.855  0.00  0.00    +0.146 C 
ATOM      6  N   UNL     1      -0.147 -10.675  -3.666  0.00  0.00    -0.258 N 
ATOM      7  C   UNL     1       1.192 -10.684  -3.271  0.00  0.00    +0.058 A 
ATOM      8  C   UNL     1       1.845 -11.863  -2.952  0.00  0.00    +0.025 A 
ATOM      9  C   UNL     1       3.159 -11.817  -2.520  0.00  0.00    +0.002 A 
ATOM     10  C   UNL     1       3.816 -10.605  -2.404  0.00  0.00    +0.002 A 
ATOM     11  C   UNL     1       3.172  -9.427  -2.739  0.00  0.00    +0.025 A 
ATOM     12  C   UNL     1       1.865  -9.474  -3.193  0.00  0.00    +0.053 A 
ATOM     13  N   UNL     1       1.198  -8.347  -3.656  0.00  0.00    -0.316 N 
ATOM     14  C   UNL     1       0.079  -7.820  -3.097  0.00  0.00    +0.017 C 
ATOM     15  C   UNL     1       0.103  -6.311  -2.922  0.00  0.00    +0.059 C 
ATOM     16  C   UNL     1      -0.504 -11.275  -4.818  0.00  0.00    +0.218 C 
ATOM     17  O   UNL     1      -1.665 -11.273  -5.169  0.00  0.00    -0.276 OA
ATOM     18  C   UNL     1       0.539 -11.950  -5.671  0.00  0.00    +0.110 C 
ATOM     19  O   UNL     1      -3.086  -8.553  -1.842  0.00  0.00    -0.292 OA
ATOM     20  H   UNL     1       1.561  -7.901  -4.437  0.00  0.00    +0.152 HD
ENDROOT
BRANCH   1  24
ATOM     21  C   UNL     1      -0.694  -1.664  -1.258  0.00  0.00    +0.013 A 
ATOM     22  C   UNL     1      -0.208  -2.467  -0.243  0.00  0.00    +0.022 A 
ATOM     23  C   UNL     1      -0.216  -3.842  -0.385  0.00  0.00    +0.006 A 
ATOM     24  C   UNL     1      -0.710  -4.414  -1.542  0.00  0.00    -0.043 A 
ATOM     25  C   UNL     1      -1.197  -3.612  -2.557  0.00  0.00    +0.006 A 
ATOM     26  C   UNL     1      -1.193  -2.237  -2.413  0.00  0.00    +0.022 A 
BRANCH  21  27
ATOM     27  N   UNL     1      -0.686  -0.274  -1.114  0.00  0.00    -0.394 NA
ATOM     28  H   UNL     1      -1.078   0.152  -1.941  0.00  0.00    +0.126 HD
BRANCH  27  30
ATOM     29  C   UNL     1      -2.956  -0.251  -0.195  0.00  0.00    +0.022 C 
ATOM     30  C   UNL     1      -1.489   0.102   0.057  0.00  0.00    +0.081 C 
ENDBRANCH  27  30
BRANCH  27  31
ATOM     31  C   UNL     1       0.695   0.192  -0.931  0.00  0.00    +0.081 C 
ATOM     32  C   UNL     1       1.501  -0.092  -2.200  0.00  0.00    +0.022 C 
ENDBRANCH  27  31
ENDBRANCH  21  27
ENDBRANCH   1  24
BRANCH   5  33
ATOM     33  C   UNL     1      -1.115 -10.634  -1.475  0.00  0.00    -0.022 A 
ATOM     34  C   UNL     1       0.031 -10.525  -0.709  0.00  0.00    +0.009 A 
ATOM     35  C   UNL     1       0.072 -11.079   0.556  0.00  0.00    +0.046 A 
ATOM     36  C   UNL     1      -1.038 -11.745   1.058  0.00  0.00    +0.120 A 
ATOM     37  C   UNL     1      -2.186 -11.852   0.286  0.00  0.00    +0.046 A 
ATOM     38  C   UNL     1      -2.224 -11.292  -0.976  0.00  0.00    +0.009 A 
BRANCH  36  39
ATOM     39  O   UNL     1      -0.999 -12.291   2.301  0.00  0.00    -0.495 OA
ATOM     40  C   UNL     1      -2.178 -12.961   2.752  0.00  0.00    +0.277 C 
ENDBRANCH  36  39
ENDBRANCH   5  33
TORSDOF 6
