REMARK  Name = ZINC21969557
REMARK  7 active torsions:
REMARK  status: ('A' for Active; 'I' for Inactive)
REMARK    1  A    between atoms: C_7  and  C_11
REMARK    2  A    between atoms: C_11  and  C_12
REMARK    3  A    between atoms: N_14  and  N_15
REMARK    4  A    between atoms: C_16  and  C_18
REMARK    5  A    between atoms: C_21  and  C_24
REMARK    6  A    between atoms: C_24  and  S_25
REMARK    7  A    between atoms: S_25  and  C_26
REMARK                            x       y       z     vdW  Elec       q    Type
REMARK                         _______ _______ _______ _____ _____    ______ ____
ROOT
ATOM      1  N   UNL     1      -3.241   3.453   3.014  0.00  0.00    -0.230 N 
ATOM      2  C   UNL     1      -4.328   4.207   3.268  0.00  0.00    +0.260 C 
ATOM      3  O   UNL     1      -4.927   4.739   2.354  0.00  0.00    -0.269 OA
ATOM      4  H   UNL     1      -2.699   2.971   3.841  0.00  0.00    +0.173 HD
ENDROOT
BRANCH   2   5
ATOM      5  C   UNL     1      -4.792   4.389   4.660  0.00  0.00    +0.038 A 
ATOM      6  C   UNL     1      -4.110   3.775   5.712  0.00  0.00    +0.013 A 
ATOM      7  C   UNL     1      -4.546   3.953   7.009  0.00  0.00    +0.005 A 
ATOM      8  C   UNL     1      -5.662   4.729   7.267  0.00  0.00    -0.037 A 
ATOM      9  C   UNL     1      -6.346   5.335   6.229  0.00  0.00    +0.005 A 
ATOM     10  C   UNL     1      -5.918   5.170   4.928  0.00  0.00    +0.013 A 
BRANCH   8  11
ATOM     11  C   UNL     1      -6.135   4.914   8.686  0.00  0.00    +0.111 C 
BRANCH  11  12
ATOM     12  S   UNL     1      -7.318   3.609   9.103  0.00  0.00    -0.094 S 
BRANCH  12  13
ATOM     13  C   UNL     1      -7.694   4.058  10.765  0.00  0.00    +0.136 A 
ATOM     14  N   UNL     1      -8.511   3.472  11.612  0.00  0.00    -0.233 NA
ATOM     15  C   UNL     1      -8.703   3.930  12.869  0.00  0.00    +0.079 A 
ATOM     16  C   UNL     1      -9.546   3.398  13.872  0.00  0.00    +0.029 A 
ATOM     17  C   UNL     1      -9.625   3.989  15.106  0.00  0.00    +0.002 A 
ATOM     18  C   UNL     1      -8.888   5.123  15.415  0.00  0.00    +0.001 A 
ATOM     19  C   UNL     1      -8.053   5.670  14.457  0.00  0.00    +0.017 A 
ATOM     20  C   UNL     1      -7.968   5.085  13.219  0.00  0.00    +0.040 A 
ATOM     21  S   UNL     1      -7.056   5.419  11.731  0.00  0.00    -0.061 S 
ENDBRANCH  12  13
ENDBRANCH  11  12
ENDBRANCH   8  11
ENDBRANCH   2   5
BRANCH   1  24
ATOM     22  C   UNL     1      -1.714   2.526   1.440  0.00  0.00    +0.233 C 
ATOM     23  O   UNL     1      -1.117   1.995   2.352  0.00  0.00    -0.274 OA
ATOM     24  N   UNL     1      -2.801   3.280   1.694  0.00  0.00    -0.234 N 
ATOM     25  H   UNL     1      -3.343   3.762   0.867  0.00  0.00    +0.173 HD
BRANCH  22  26
ATOM     26  C   UNL     1      -1.241   2.341   0.021  0.00  0.00    +0.134 C 
BRANCH  26  33
ATOM     27  C   UNL     1      -0.634  -2.308  -0.004  0.00  0.00    +0.001 A 
ATOM     28  C   UNL     1       0.704  -2.678  -0.019  0.00  0.00    +0.002 A 
ATOM     29  C   UNL     1       1.697  -1.724  -0.023  0.00  0.00    +0.026 A 
ATOM     30  C   UNL     1       1.359  -0.374  -0.013  0.00  0.00    +0.047 A 
ATOM     31  C   UNL     1       0.002  -0.004   0.002  0.00  0.00    +0.003 A 
ATOM     32  C   UNL     1      -0.989  -0.988   0.007  0.00  0.00    +0.010 A 
ATOM     33  C   UNL     1      -0.018   1.461   0.010  0.00  0.00    -0.014 A 
ATOM     34  C   UNL     1       1.260   1.871   0.000  0.00  0.00    +0.087 A 
ATOM     35  N   UNL     1       2.097   0.788  -0.014  0.00  0.00    -0.360 N 
ATOM     36  H   UNL     1       3.196   0.742  -0.024  0.00  0.00    +0.165 HD
ENDBRANCH  26  33
ENDBRANCH  22  26
ENDBRANCH   1  24
TORSDOF 7
