REMARK  Name = ZINC36063986
REMARK  11 active torsions:
REMARK  status: ('A' for Active; 'I' for Inactive)
REMARK    1  A    between atoms: C_1  and  C_2
REMARK    2  A    between atoms: C_2  and  C_4
REMARK    3  A    between atoms: C_2  and  N_10
REMARK    4  A    between atoms: C_11  and  C_13
REMARK    5  A    between atoms: C_16  and  C_18
REMARK    6  A    between atoms: C_18  and  N_19
REMARK    7  A    between atoms: N_19  and  C_20
REMARK    8  A    between atoms: N_19  and  C_32
REMARK    9  A    between atoms: C_20  and  C_21
REMARK   10  A    between atoms: C_21  and  C_22
REMARK   11  A    between atoms: C_32  and  C_33
REMARK                            x       y       z     vdW  Elec       q    Type
REMARK                         _______ _______ _______ _____ _____    ______ ____
ROOT
ATOM      1  N   UNL     1       3.896  -3.576  -5.200  0.00  0.00    +0.388 N 
ATOM      2  H   UNL     1       3.262  -4.293  -5.518  0.00  0.00    -0.081 HD
ENDROOT
BRANCH   1   3
ATOM      3  C   UNL     1       3.358  -2.255  -5.553  0.00  0.00    +0.019 C 
BRANCH   3   7
ATOM      4  C   UNL     1       2.040  -2.331  -8.927  0.00  0.00    +0.163 A 
ATOM      5  C   UNL     1       3.326  -1.961  -9.175  0.00  0.00    +0.230 A 
ATOM      6  O   UNL     1       3.949  -1.891  -7.988  0.00  0.00    -0.449 OA
ATOM      7  C   UNL     1       3.066  -2.211  -7.031  0.00  0.00    +0.179 A 
ATOM      8  N   UNL     1       1.917  -2.471  -7.579  0.00  0.00    -0.210 NA
BRANCH   4  10
ATOM      9  N   UNL     1      -0.281  -2.802  -9.531  0.00  0.00    -0.303 N 
ATOM     10  C   UNL     1       0.979  -2.535  -9.929  0.00  0.00    +0.266 C 
ATOM     11  O   UNL     1       1.240  -2.462 -11.115  0.00  0.00    -0.268 OA
ATOM     12  H   UNL     1      -0.475  -2.934  -8.590  0.00  0.00    +0.150 HD
BRANCH   9  14
ATOM     13  C   UNL     1      -1.903  -1.492 -10.811  0.00  0.00    +0.033 C 
ATOM     14  C   UNL     1      -1.358  -2.892 -10.521  0.00  0.00    +0.100 C 
BRANCH  14  15
ATOM     15  C   UNL     1      -2.465  -3.760  -9.981  0.00  0.00    -0.027 A 
ATOM     16  C   UNL     1      -2.836  -3.660  -8.652  0.00  0.00    +0.005 A 
ATOM     17  C   UNL     1      -3.851  -4.457  -8.157  0.00  0.00    +0.000 A 
ATOM     18  C   UNL     1      -4.497  -5.351  -8.989  0.00  0.00    +0.000 A 
ATOM     19  C   UNL     1      -4.127  -5.450 -10.318  0.00  0.00    +0.000 A 
ATOM     20  C   UNL     1      -3.114  -4.651 -10.814  0.00  0.00    +0.005 A 
ENDBRANCH  14  15
ENDBRANCH   9  14
ENDBRANCH   4  10
ENDBRANCH   3   7
ENDBRANCH   1   3
BRANCH   1  21
ATOM     21  C   UNL     1       5.205  -3.759  -5.842  0.00  0.00    -0.073 C 
BRANCH  21  22
ATOM     22  C   UNL     1       5.708  -5.179  -5.577  0.00  0.00    +0.019 C 
BRANCH  22  23
ATOM     23  C   UNL     1       7.051  -5.367  -6.236  0.00  0.00    -0.024 A 
ATOM     24  C   UNL     1       7.277  -5.890  -7.451  0.00  0.00    +0.087 A 
ATOM     25  N   UNL     1       8.621  -5.901  -7.711  0.00  0.00    -0.360 N 
ATOM     26  H   UNL     1       9.028  -6.232  -8.527  0.00  0.00    +0.165 HD
ATOM     27  C   UNL     1       9.309  -5.372  -6.642  0.00  0.00    +0.047 A 
ATOM     28  C   UNL     1       8.355  -5.009  -5.674  0.00  0.00    +0.003 A 
ATOM     29  C   UNL     1       8.768  -4.434  -4.471  0.00  0.00    +0.010 A 
ATOM     30  C   UNL     1      10.099  -4.224  -4.241  0.00  0.00    +0.001 A 
ATOM     31  C   UNL     1      11.043  -4.576  -5.195  0.00  0.00    +0.002 A 
ATOM     32  C   UNL     1      10.658  -5.154  -6.385  0.00  0.00    +0.026 A 
ENDBRANCH  22  23
ENDBRANCH  21  22
ENDBRANCH   1  21
BRANCH   1  33
ATOM     33  C   UNL     1       4.049  -3.668  -3.742  0.00  0.00    -0.041 C 
BRANCH  33  34
ATOM     34  C   UNL     1       2.692  -3.609  -3.090  0.00  0.00    -0.046 A 
ATOM     35  C   UNL     1       2.262  -2.440  -2.491  0.00  0.00    +0.003 A 
ATOM     36  C   UNL     1       1.017  -2.386  -1.894  0.00  0.00    +0.000 A 
ATOM     37  C   UNL     1       0.201  -3.501  -1.894  0.00  0.00    +0.001 A 
ATOM     38  C   UNL     1       0.629  -4.671  -2.492  0.00  0.00    +0.020 A 
ATOM     39  C   UNL     1       1.873  -4.724  -3.096  0.00  0.00    +0.042 A 
ATOM     40 CL   UNL     1       2.409  -6.192  -3.853  0.00  0.00    -0.083 Cl
ENDBRANCH  33  34
ENDBRANCH   1  33
TORSDOF 10
