REMARK  Name = ZINC64891180
REMARK  10 active torsions:
REMARK  status: ('A' for Active; 'I' for Inactive)
REMARK    1  A    between atoms: C_1  and  C_2
REMARK    2  A    between atoms: C_2  and  C_3
REMARK    3  A    between atoms: C_3  and  N_4
REMARK    4  A    between atoms: C_8  and  C_15
REMARK    5  A    between atoms: C_18  and  C_21
REMARK    6  A    between atoms: C_21  and  C_23
REMARK    7  A    between atoms: C_21  and  N_26
REMARK    8  A    between atoms: C_23  and  C_24
REMARK    9  A    between atoms: C_23  and  C_25
REMARK   10  A    between atoms: C_27  and  C_29
REMARK                            x       y       z     vdW  Elec       q    Type
REMARK                         _______ _______ _______ _____ _____    ______ ____
ROOT
ATOM      1  C   UNL     1      -3.166  -5.417   3.334  0.00  0.00    +0.168 C 
ATOM      2  N   UNL     1      -2.607  -6.579   3.238  0.00  0.00    -0.067 NA
ATOM      3  O   UNL     1      -3.449  -7.589   3.762  0.00  0.00    -0.367 OA
ATOM      4  C   UNL     1      -4.641  -6.932   4.218  0.00  0.00    +0.312 C 
ATOM      5  N   UNL     1      -4.413  -5.508   3.924  0.00  0.00    -0.288 N 
ATOM      6  H   UNL     1      -5.021  -4.775   4.107  0.00  0.00    +0.151 HD
ENDROOT
BRANCH   1  11
ATOM      7  N   UNL     1      -0.579  -0.773   1.517  0.00  0.00    -0.292 N 
ATOM      8  C   UNL     1      -1.397  -1.775   2.029  0.00  0.00    +0.070 A 
ATOM      9  C   UNL     1      -2.658  -1.765   2.611  0.00  0.00    +0.029 A 
ATOM     10  C   UNL     1      -3.232  -2.944   3.034  0.00  0.00    +0.013 A 
ATOM     11  C   UNL     1      -2.547  -4.152   2.879  0.00  0.00    +0.020 A 
ATOM     12  C   UNL     1      -1.281  -4.166   2.295  0.00  0.00    +0.039 A 
ATOM     13  C   UNL     1      -0.708  -2.980   1.871  0.00  0.00    +0.068 A 
ATOM     14  N   UNL     1       0.509  -2.671   1.267  0.00  0.00    -0.306 N 
ATOM     15  H   UNL     1       1.203  -3.306   1.030  0.00  0.00    +0.170 HD
ATOM     16  C   UNL     1       0.554  -1.341   1.063  0.00  0.00    +0.328 A 
ATOM     17  O   UNL     1       1.480  -0.742   0.548  0.00  0.00    -0.247 OA
BRANCH   7  18
ATOM     18  C   UNL     1      -0.898   0.656   1.474  0.00  0.00    +0.127 C 
BRANCH  18  20
ATOM     19  C   UNL     1      -1.949   2.471   0.117  0.00  0.00    +0.005 C 
ATOM     20  C   UNL     1      -1.616   0.979   0.162  0.00  0.00    +0.018 C 
ENDBRANCH  18  20
ENDBRANCH   7  18
ENDBRANCH   1  11
BRANCH   4  21
ATOM     21  C   UNL     1      -5.862  -7.452   3.457  0.00  0.00    +0.138 C 
BRANCH  21  22
ATOM     22  N   UNL     1      -7.053  -6.708   3.876  0.00  0.00    -0.300 N 
ATOM     23  C   UNL     1      -8.110  -6.606   3.047  0.00  0.00    +0.280 C 
ATOM     24  O   UNL     1      -8.077  -7.133   1.951  0.00  0.00    -0.267 OA
ATOM     25  H   UNL     1      -7.079  -6.288   4.750  0.00  0.00    +0.150 HD
BRANCH  23  26
ATOM     26  C   UNL     1      -9.302  -5.861   3.466  0.00  0.00    +0.189 A 
ATOM     27  C   UNL     1     -10.439  -5.686   2.731  0.00  0.00    +0.054 A 
ATOM     28  C   UNL     1     -11.312  -4.915   3.514  0.00  0.00    +0.042 A 
ATOM     29  C   UNL     1     -10.678  -4.657   4.679  0.00  0.00    +0.196 A 
ATOM     30  O   UNL     1      -9.469  -5.233   4.648  0.00  0.00    -0.458 OA
ENDBRANCH  23  26
ENDBRANCH  21  22
BRANCH  21  31
ATOM     31  C   UNL     1      -6.058  -8.939   3.762  0.00  0.00    +0.008 C 
ATOM     32  C   UNL     1      -6.413  -9.114   5.240  0.00  0.00    +0.009 C 
ATOM     33  C   UNL     1      -7.190  -9.493   2.895  0.00  0.00    +0.009 C 
ENDBRANCH  21  31
ENDBRANCH   4  21
TORSDOF 7
