REMARK  Name = ZINC52803689
REMARK  6 active torsions:
REMARK  status: ('A' for Active; 'I' for Inactive)
REMARK    1  A    between atoms: C_1  and  C_2
REMARK    2  A    between atoms: C_2  and  C_4
REMARK    3  A    between atoms: C_2  and  N_15
REMARK    4  A    between atoms: N_6  and  C_7
REMARK    5  A    between atoms: C_8  and  C_12
REMARK    6  A    between atoms: C_19  and  C_21
REMARK                            x       y       z     vdW  Elec       q    Type
REMARK                         _______ _______ _______ _____ _____    ______ ____
ROOT
ATOM      1  C   UNL     1       0.707  -0.490  -1.238  0.00  0.00    +0.204 C 
ATOM      2  O   UNL     1       0.120  -1.191  -2.034  0.00  0.00    -0.277 OA
ATOM      3  N   UNL     1       1.991  -0.146  -1.462  0.00  0.00    -0.281 N 
ATOM      4  H   UNL     1       2.461   0.415  -0.825  0.00  0.00    +0.155 HD
ENDROOT
BRANCH   3   5
ATOM      5  C   UNL     1       2.640  -0.593  -2.602  0.00  0.00    +0.084 A 
ATOM      6  C   UNL     1       3.949  -0.346  -2.991  0.00  0.00    +0.065 A 
ATOM      7  C   UNL     1       4.375  -0.939  -4.238  0.00  0.00    +0.022 A 
ATOM      8  C   UNL     1       3.449  -1.669  -4.888  0.00  0.00    +0.048 A 
ATOM      9  S   UNL     1       2.025  -1.563  -3.826  0.00  0.00    -0.081 S 
BRANCH   6  10
ATOM     10  C   UNL     1       4.853   0.474  -2.179  0.00  0.00    +0.244 C 
ATOM     11  O   UNL     1       4.460   0.959  -1.134  0.00  0.00    -0.270 OA
ATOM     12  N   UNL     1       6.118   0.692  -2.590  0.00  0.00    -0.325 N 
ATOM     13  H   UNL     1       6.430   0.306  -3.423  0.00  0.00    +0.145 HD
ATOM     14  H   UNL     1       6.715   1.235  -2.053  0.00  0.00    +0.145 HD
ENDBRANCH   6  10
ENDBRANCH   3   5
BRANCH   1  16
ATOM     15  C   UNL     1      -0.019   1.526   0.010  0.00  0.00    -0.004 C 
ATOM     16  C   UNL     1       0.002  -0.004   0.002  0.00  0.00    +0.017 C 
BRANCH  16  17
ATOM     17  N   UNL     1      -1.376  -0.512   0.012  0.00  0.00    +0.392 N 
ATOM     18  C   UNL     1      -1.361  -1.991   0.025  0.00  0.00    -0.077 C 
ATOM     19  C   UNL     1      -1.499  -2.375   1.520  0.00  0.00    -0.020 C 
ATOM     20  C   UNL     1      -2.481  -1.288   2.033  0.00  0.00    -0.013 C 
ATOM     21  C   UNL     1      -2.070  -0.039   1.224  0.00  0.00    -0.036 C 
ATOM     22  H   UNL     1      -1.865  -0.187  -0.808  0.00  0.00    -0.080 HD
BRANCH  21  23
ATOM     23  C   UNL     1      -3.296   0.747   0.838  0.00  0.00    -0.054 A 
ATOM     24  C   UNL     1      -3.637   1.898   1.525  0.00  0.00    +0.009 A 
ATOM     25  C   UNL     1      -4.746   2.582   1.152  0.00  0.00    +0.045 A 
ATOM     26  S   UNL     1      -5.349   1.595  -0.207  0.00  0.00    -0.105 S 
ATOM     27  C   UNL     1      -4.079   0.340  -0.191  0.00  0.00    +0.047 A 
ENDBRANCH  21  23
ENDBRANCH  16  17
ENDBRANCH   1  16
TORSDOF 5
