REMARK  Name = ZINC38787210
REMARK  5 active torsions:
REMARK  status: ('A' for Active; 'I' for Inactive)
REMARK    1  A    between atoms: C_1  and  C_2
REMARK    2  A    between atoms: C_5  and  N_8
REMARK    3  A    between atoms: C_10  and  C_15
REMARK    4  A    between atoms: N_17  and  C_18
REMARK    5  A    between atoms: C_21  and  C_24
REMARK                            x       y       z     vdW  Elec       q    Type
REMARK                         _______ _______ _______ _____ _____    ______ ____
ROOT
ATOM      1  C   UNL     1       0.853  -7.623   0.923  0.00  0.00    +0.222 C 
ATOM      2  O   UNL     1       2.007  -7.434   1.245  0.00  0.00    -0.275 OA
ATOM      3  N   UNL     1       0.272  -8.815   1.163  0.00  0.00    -0.285 N 
ATOM      4  H   UNL     1      -0.623  -8.993   0.836  0.00  0.00    +0.155 HD
ENDROOT
BRANCH   1   7
ATOM      5  N   UNL     1       0.526  -4.677  -1.205  0.00  0.00    -0.271 N 
ATOM      6  C   UNL     1       0.931  -5.254   0.082  0.00  0.00    +0.127 C 
ATOM      7  C   UNL     1       0.068  -6.524   0.255  0.00  0.00    +0.102 C 
ATOM      8  C   UNL     1      -0.255  -6.887  -1.214  0.00  0.00    +0.110 C 
ATOM      9  C   UNL     1      -0.142  -5.572  -1.953  0.00  0.00    +0.221 C 
ATOM     10  O   UNL     1      -0.587  -5.357  -3.061  0.00  0.00    -0.275 OA
BRANCH   5  15
ATOM     11  C   UNL     1       1.617   0.654  -2.808  0.00  0.00    +0.044 C 
ATOM     12  C   UNL     1       1.327  -0.762  -2.382  0.00  0.00    -0.050 A 
ATOM     13  C   UNL     1       0.730  -1.640  -3.268  0.00  0.00    +0.005 A 
ATOM     14  C   UNL     1       0.464  -2.938  -2.881  0.00  0.00    +0.024 A 
ATOM     15  C   UNL     1       0.796  -3.362  -1.601  0.00  0.00    +0.036 A 
ATOM     16  C   UNL     1       1.396  -2.478  -0.714  0.00  0.00    +0.024 A 
ATOM     17  C   UNL     1       1.664  -1.182  -1.108  0.00  0.00    +0.005 A 
ENDBRANCH   5  15
ENDBRANCH   1   7
BRANCH   3  18
ATOM     18  C   UNL     1       0.961  -9.796   1.883  0.00  0.00    +0.033 A 
ATOM     19  C   UNL     1       1.810  -9.427   2.920  0.00  0.00    +0.024 A 
ATOM     20  C   UNL     1       2.491 -10.392   3.631  0.00  0.00    +0.012 A 
ATOM     21  C   UNL     1       2.327 -11.739   3.310  0.00  0.00    +0.002 A 
ATOM     22  C   UNL     1       1.474 -12.106   2.270  0.00  0.00    +0.012 A 
ATOM     23  C   UNL     1       0.791 -11.138   1.565  0.00  0.00    +0.024 A 
BRANCH  21  24
ATOM     24  C   UNL     1       3.058 -12.779   4.073  0.00  0.00    +0.093 A 
ATOM     25  C   UNL     1       2.898 -14.130   3.748  0.00  0.00    +0.033 A 
ATOM     26  C   UNL     1       3.602 -15.063   4.489  0.00  0.00    +0.047 A 
ATOM     27  C   UNL     1       4.427 -14.598   5.514  0.00  0.00    +0.144 A 
ATOM     28  N   UNL     1       4.518 -13.298   5.751  0.00  0.00    -0.134 NA
ATOM     29  N   UNL     1       3.869 -12.430   5.062  0.00  0.00    -0.147 NA
ATOM     30  N   UNL     1       5.154 -15.498   6.285  0.00  0.00    -0.314 N 
ATOM     31  C   UNL     1       5.970 -15.158   7.459  0.00  0.00    +0.106 C 
ATOM     32  C   UNL     1       6.606 -16.467   7.971  0.00  0.00    +0.020 C 
ATOM     33  C   UNL     1       6.565 -17.385   6.721  0.00  0.00    +0.020 C 
ATOM     34  C   UNL     1       5.227 -16.954   6.065  0.00  0.00    +0.106 C 
ENDBRANCH  21  24
ENDBRANCH   3  18
TORSDOF 4
