REMARK  Name = ZINC08326851
REMARK  7 active torsions:
REMARK  status: ('A' for Active; 'I' for Inactive)
REMARK    1  A    between atoms: C_1  and  C_2
REMARK    2  A    between atoms: C_2  and  C_3
REMARK    3  A    between atoms: C_3  and  C_5
REMARK    4  A    between atoms: C_3  and  S_6
REMARK    5  A    between atoms: S_6  and  C_7
REMARK    6  A    between atoms: C_18  and  C_20
REMARK    7  A    between atoms: C_23  and  C_25
REMARK                            x       y       z     vdW  Elec       q    Type
REMARK                         _______ _______ _______ _____ _____    ______ ____
ROOT
ATOM      1  C   UNL     1       3.102  -0.498  -2.760  0.00  0.00    +0.171 A 
ATOM      2  N   UNL     1       4.414  -0.270  -3.046  0.00  0.00    -0.302 N 
ATOM      3  H   UNL     1       4.984   0.164  -2.393  0.00  0.00    +0.171 HD
ATOM      4  C   UNL     1       4.923  -0.647  -4.239  0.00  0.00    +0.258 A 
ATOM      5  O   UNL     1       6.096  -0.445  -4.506  0.00  0.00    -0.267 OA
ATOM      6  C   UNL     1       4.079  -1.274  -5.162  0.00  0.00    +0.072 A 
ATOM      7  C   UNL     1       2.754  -1.486  -4.820  0.00  0.00    +0.135 A 
ATOM      8  N   UNL     1       2.305  -1.093  -3.623  0.00  0.00    -0.208 NA
ATOM      9  N   UNL     1       1.908  -2.111  -5.715  0.00  0.00    -0.302 N 
ATOM     10  C   UNL     1       2.411  -2.859  -6.745  0.00  0.00    +0.017 C 
ATOM     11  C   UNL     1       3.689  -2.709  -7.151  0.00  0.00    +0.027 C 
ATOM     12  C   UNL     1       4.604  -1.705  -6.499  0.00  0.00    +0.128 C 
ATOM     13  C   UNL     1       4.211  -3.489  -8.199  0.00  0.00    +0.162 C 
ATOM     14  O   UNL     1       5.364  -3.324  -8.547  0.00  0.00    -0.292 OA
ATOM     15  C   UNL     1       3.372  -4.524  -8.897  0.00  0.00    +0.080 C 
ATOM     16  C   UNL     1       2.310  -5.044  -7.923  0.00  0.00    +0.014 C 
ATOM     17  C   UNL     1       1.494  -3.853  -7.415  0.00  0.00    +0.051 C 
ATOM     18  H   UNL     1       0.948  -2.018  -5.613  0.00  0.00    +0.153 HD
ENDROOT
BRANCH  12  19
ATOM     19  C   UNL     1       4.727  -0.497  -7.393  0.00  0.00    +0.117 A 
ATOM     20  C   UNL     1       5.862  -0.052  -7.962  0.00  0.00    +0.046 A 
ATOM     21  C   UNL     1       5.520   1.097  -8.711  0.00  0.00    +0.044 A 
ATOM     22  C   UNL     1       4.198   1.285  -8.556  0.00  0.00    +0.102 A 
ATOM     23  O   UNL     1       3.721   0.313  -7.760  0.00  0.00    -0.464 OA
ATOM     24  C   UNL     1       3.387   2.396  -9.173  0.00  0.00    +0.086 C 
ENDBRANCH  12  19
BRANCH   1  25
ATOM     25  S   UNL     1       2.460   0.006  -1.198  0.00  0.00    -0.085 S 
BRANCH  25  26
ATOM     26  C   UNL     1       0.718  -0.497  -1.257  0.00  0.00    +0.051 C 
ATOM     27  C   UNL     1       0.630  -2.023  -1.329  0.00  0.00    +0.019 C 
BRANCH  26  29
ATOM     28  C   UNL     1      -0.019   1.526   0.010  0.00  0.00    +0.005 C 
ATOM     29  C   UNL     1       0.002  -0.004   0.002  0.00  0.00    +0.011 C 
ENDBRANCH  26  29
ENDBRANCH  25  26
ENDBRANCH   1  25
TORSDOF 4
