REMARK  Name = ZINC40426830
REMARK  6 active torsions:
REMARK  status: ('A' for Active; 'I' for Inactive)
REMARK    1  A    between atoms: C_1  and  O_2
REMARK    2  A    between atoms: O_2  and  C_3
REMARK    3  A    between atoms: C_8  and  C_9
REMARK    4  A    between atoms: C_16  and  C_20
REMARK    5  A    between atoms: C_25  and  C_28
REMARK    6  A    between atoms: C_28  and  C_29
REMARK                            x       y       z     vdW  Elec       q    Type
REMARK                         _______ _______ _______ _____ _____    ______ ____
ROOT
ATOM      1  C   UNL     1       0.143  -2.780   0.010  0.00  0.00    +0.250 C 
ATOM      2  O   UNL     1       0.575  -2.097  -0.898  0.00  0.00    -0.270 OA
ATOM      3  N   UNL     1       0.258  -4.122  -0.041  0.00  0.00    -0.293 N 
ATOM      4  C   UNL     1       0.989  -4.774  -1.138  0.00  0.00    +0.114 C 
ATOM      5  C   UNL     1       2.220  -5.493  -0.570  0.00  0.00    +0.074 C 
ATOM      6  C   UNL     1       1.810  -6.255   0.663  0.00  0.00    +0.043 A 
ATOM      7  C   UNL     1       0.673  -6.021   1.363  0.00  0.00    +0.023 A 
ATOM      8  C   UNL     1       0.676  -6.935   2.429  0.00  0.00    +0.152 A 
ATOM      9  N   UNL     1       1.783  -7.649   2.310  0.00  0.00    -0.169 NA
ATOM     10  N   UNL     1       2.453  -7.262   1.280  0.00  0.00    -0.280 N 
ATOM     11  H   UNL     1       3.298  -7.641   0.992  0.00  0.00    +0.189 HD
ATOM     12  C   UNL     1      -0.341  -4.973   1.005  0.00  0.00    +0.147 C 
ENDROOT
BRANCH   8  13
ATOM     13  C   UNL     1      -0.354  -7.071   3.478  0.00  0.00    +0.267 C 
ATOM     14  O   UNL     1      -1.383  -6.428   3.406  0.00  0.00    -0.268 OA
ATOM     15  N   UNL     1      -0.153  -7.908   4.516  0.00  0.00    -0.296 N 
ATOM     16  C   UNL     1      -1.124  -7.983   5.615  0.00  0.00    +0.108 C 
ATOM     17  C   UNL     1      -0.387  -7.762   6.940  0.00  0.00    +0.023 C 
ATOM     18  C   UNL     1       0.767  -8.762   7.050  0.00  0.00    -0.004 C 
ATOM     19  C   UNL     1       1.754  -8.532   5.904  0.00  0.00    +0.023 C 
ATOM     20  C   UNL     1       1.038  -8.766   4.565  0.00  0.00    +0.108 C 
BRANCH  18  21
ATOM     21  C   UNL     1       1.484  -8.567   8.388  0.00  0.00    +0.038 C 
BRANCH  21  22
ATOM     22  C   UNL     1       2.540  -9.629   8.551  0.00  0.00    -0.047 A 
ATOM     23  C   UNL     1       2.224 -10.832   9.153  0.00  0.00    +0.003 A 
ATOM     24  C   UNL     1       3.193 -11.806   9.303  0.00  0.00    +0.000 A 
ATOM     25  C   UNL     1       4.478 -11.578   8.849  0.00  0.00    +0.000 A 
ATOM     26  C   UNL     1       4.795 -10.375   8.246  0.00  0.00    +0.000 A 
ATOM     27  C   UNL     1       3.825  -9.402   8.092  0.00  0.00    +0.003 A 
ENDBRANCH  21  22
ENDBRANCH  18  21
ENDBRANCH   8  13
BRANCH   1  33
ATOM     28  C   UNL     1       0.134  -1.097   1.851  0.00  0.00    +0.132 A 
ATOM     29  C   UNL     1      -0.490  -0.498   2.935  0.00  0.00    +0.046 A 
ATOM     30  C   UNL     1      -1.736  -0.932   3.343  0.00  0.00    +0.004 A 
ATOM     31  C   UNL     1      -2.371  -1.966   2.676  0.00  0.00    +0.001 A 
ATOM     32  C   UNL     1      -1.766  -2.572   1.596  0.00  0.00    +0.017 A 
ATOM     33  C   UNL     1      -0.508  -2.139   1.169  0.00  0.00    +0.078 A 
BRANCH  28  35
ATOM     34  C   UNL     1       1.950   0.396   2.192  0.00  0.00    +0.277 C 
ATOM     35  O   UNL     1       1.357  -0.671   1.448  0.00  0.00    -0.494 OA
ENDBRANCH  28  35
ENDBRANCH   1  33
TORSDOF 5
