REMARK  Name = ZINC58249816
REMARK  8 active torsions:
REMARK  status: ('A' for Active; 'I' for Inactive)
REMARK    1  A    between atoms: C_1  and  C_2
REMARK    2  A    between atoms: C_7  and  C_9
REMARK    3  A    between atoms: C_7  and  N_25
REMARK    4  A    between atoms: C_9  and  N_10
REMARK    5  A    between atoms: N_10  and  S_11
REMARK    6  A    between atoms: S_11  and  C_14
REMARK    7  A    between atoms: N_25  and  C_26
REMARK    8  A    between atoms: N_25  and  C_27
REMARK                            x       y       z     vdW  Elec       q    Type
REMARK                         _______ _______ _______ _____ _____    ______ ____
ROOT
ATOM      1  S   UNL     1       1.729  -4.021   4.084  0.00  0.00    +0.058 S 
ATOM      2  O   UNL     1       1.548  -5.430   4.146  0.00  0.00    -0.153 OA
ATOM      3  O   UNL     1       3.012  -3.415   4.142  0.00  0.00    -0.153 OA
ENDROOT
BRANCH   1   4
ATOM      4  C   UNL     1       0.787  -3.334   5.405  0.00  0.00    +0.106 A 
ATOM      5  C   UNL     1       1.119  -2.093   5.916  0.00  0.00    +0.030 A 
ATOM      6  C   UNL     1       0.383  -1.551   6.952  0.00  0.00    +0.025 A 
ATOM      7  C   UNL     1      -0.692  -2.254   7.479  0.00  0.00    +0.037 A 
ATOM      8  C   UNL     1      -1.023  -3.500   6.963  0.00  0.00    -0.024 A 
ATOM      9  C   UNL     1      -0.286  -4.035   5.925  0.00  0.00    +0.034 A 
ATOM     10  C   UNL     1      -2.190  -4.263   7.535  0.00  0.00    +0.046 C 
ATOM     11  C   UNL     1      -2.298  -3.982   9.034  0.00  0.00    +0.101 C 
ATOM     12  C   UNL     1      -2.225  -2.500   9.285  0.00  0.00    +0.218 C 
ATOM     13  O   UNL     1      -2.880  -2.011  10.181  0.00  0.00    -0.275 OA
ATOM     14  N   UNL     1      -1.442  -1.711   8.527  0.00  0.00    -0.285 N 
ATOM     15  H   UNL     1      -1.396  -0.760   8.709  0.00  0.00    +0.155 HD
ENDBRANCH   1   4
BRANCH   1  16
ATOM     16  N   UNL     1       1.030  -3.517   2.670  0.00  0.00    -0.191 NA
ATOM     17  H   UNL     1       0.622  -4.164   2.073  0.00  0.00    +0.148 HD
BRANCH  16  18
ATOM     18  C   UNL     1       1.026  -2.094   2.322  0.00  0.00    +0.094 C 
BRANCH  18  24
ATOM     19  C   UNL     1       0.169   1.200  -1.337  0.00  0.00    +0.007 C 
ATOM     20  C   UNL     1       0.286  -0.287  -0.997  0.00  0.00    -0.015 C 
ATOM     21  C   UNL     1      -1.034  -0.990  -1.320  0.00  0.00    +0.003 C 
ATOM     22  C   UNL     1      -0.917  -2.477  -0.980  0.00  0.00    -0.001 C 
ATOM     23  C   UNL     1      -0.606  -2.637   0.509  0.00  0.00    -0.011 C 
ATOM     24  C   UNL     1       0.715  -1.934   0.832  0.00  0.00    -0.052 C 
ATOM     25  C   UNL     1       0.598  -0.447   0.492  0.00  0.00    -0.008 C 
BRANCH  24  26
ATOM     26  N   UNL     1       1.795  -2.534   0.039  0.00  0.00    +0.381 N 
ATOM     27  C   UNL     1       3.085  -1.979   0.470  0.00  0.00    -0.096 C 
ATOM     28  C   UNL     1       1.798  -3.990   0.237  0.00  0.00    -0.096 C 
ATOM     29  H   UNL     1       1.650  -2.328  -0.938  0.00  0.00    -0.082 HD
ENDBRANCH  24  26
ENDBRANCH  18  24
ENDBRANCH  16  18
ENDBRANCH   1  16
TORSDOF 5
