REMARK  Name = ZINC03390145
REMARK  9 active torsions:
REMARK  status: ('A' for Active; 'I' for Inactive)
REMARK    1  A    between atoms: C_1  and  C_2
REMARK    2  A    between atoms: C_5  and  O_28
REMARK    3  A    between atoms: C_6  and  C_8
REMARK    4  A    between atoms: C_11  and  S_14
REMARK    5  A    between atoms: N_12  and  N_13
REMARK    6  A    between atoms: S_14  and  C_15
REMARK    7  A    between atoms: C_15  and  C_16
REMARK    8  A    between atoms: C_23  and  C_25
REMARK    9  A    between atoms: O_28  and  C_29
REMARK                            x       y       z     vdW  Elec       q    Type
REMARK                         _______ _______ _______ _____ _____    ______ ____
ROOT
ATOM      1  C   UNL     1       0.002  -0.004   0.002  0.00  0.00    +0.185 A 
ATOM      2  N   UNL     1      -0.016   1.309   0.009  0.00  0.00    -0.127 NA
ATOM      3  N   UNL     1       1.186   1.764   0.000  0.00  0.00    -0.121 NA
ATOM      4  C   UNL     1       2.045   0.770  -0.013  0.00  0.00    +0.209 A 
ATOM      5  N   UNL     1       1.323  -0.390  -0.013  0.00  0.00    -0.224 N 
ENDROOT
BRANCH   1  11
ATOM      6  C   UNL     1      -1.918  -4.609  -0.002  0.00  0.00    +0.044 C 
ATOM      7  C   UNL     1      -2.104  -3.113   0.007  0.00  0.00    -0.050 A 
ATOM      8  C   UNL     1      -3.381  -2.578   0.022  0.00  0.00    +0.007 A 
ATOM      9  C   UNL     1      -3.563  -1.208   0.031  0.00  0.00    +0.046 A 
ATOM     10  C   UNL     1      -2.467  -0.361   0.030  0.00  0.00    +0.131 A 
ATOM     11  C   UNL     1      -1.174  -0.898   0.009  0.00  0.00    +0.063 A 
ATOM     12  C   UNL     1      -1.002  -2.283   0.000  0.00  0.00    +0.018 A 
BRANCH  10  13
ATOM     13  O   UNL     1      -2.645   0.986   0.044  0.00  0.00    -0.494 OA
ATOM     14  C   UNL     1      -3.993   1.461   0.065  0.00  0.00    +0.277 C 
ENDBRANCH  10  13
ENDBRANCH   1  11
BRANCH   5  15
ATOM     15  N   UNL     1       1.810  -1.666  -0.025  0.00  0.00    -0.295 N 
ATOM     16  H   UNL     1       1.930  -1.998  -0.970  0.00  0.00    +0.163 HD
ATOM     17  H   UNL     1       2.674  -1.728   0.493  0.00  0.00    +0.163 HD
ENDBRANCH   5  15
BRANCH   4  18
ATOM     18  S   UNL     1       3.802   0.907  -0.030  0.00  0.00    -0.075 S 
BRANCH  18  19
ATOM     19  C   UNL     1       3.977   2.708  -0.022  0.00  0.00    +0.173 C 
BRANCH  19  20
ATOM     20  C   UNL     1       5.439   3.071  -0.035  0.00  0.00    +0.229 C 
ATOM     21  O   UNL     1       6.280   2.198  -0.048  0.00  0.00    -0.275 OA
ATOM     22  N   UNL     1       5.812   4.366  -0.031  0.00  0.00    -0.269 N 
ATOM     23  C   UNL     1       7.166   4.702  -0.043  0.00  0.00    +0.144 A 
ATOM     24  C   UNL     1       7.544   6.041  -0.045  0.00  0.00    +0.082 A 
ATOM     25  C   UNL     1       8.891   6.361  -0.051  0.00  0.00    +0.045 A 
ATOM     26  C   UNL     1       9.817   5.325  -0.067  0.00  0.00    +0.063 A 
ATOM     27  C   UNL     1       9.370   4.018  -0.070  0.00  0.00    +0.059 A 
ATOM     28  N   UNL     1       8.079   3.744  -0.058  0.00  0.00    -0.234 NA
ATOM     29  C   UNL     1      10.369   2.890  -0.087  0.00  0.00    +0.067 C 
ATOM     30 CL   UNL     1      11.518   5.670  -0.082  0.00  0.00    -0.082 Cl
ATOM     31 CL   UNL     1       6.343   7.295  -0.032  0.00  0.00    -0.080 Cl
ATOM     32  H   UNL     1       5.139   5.065  -0.020  0.00  0.00    +0.156 HD
ENDBRANCH  19  20
ENDBRANCH  18  19
ENDBRANCH   4  18
TORSDOF 6
