REMARK  Name = ZINC20990232
REMARK  6 active torsions:
REMARK  status: ('A' for Active; 'I' for Inactive)
REMARK    1  A    between atoms: C_1  and  C_2
REMARK    2  A    between atoms: C_5  and  C_28
REMARK    3  A    between atoms: C_6  and  N_8
REMARK    4  A    between atoms: N_8  and  S_9
REMARK    5  A    between atoms: S_9  and  C_12
REMARK    6  A    between atoms: C_17  and  C_18
REMARK                            x       y       z     vdW  Elec       q    Type
REMARK                         _______ _______ _______ _____ _____    ______ ____
ROOT
ATOM      1  C   UNL     1       3.270   1.979   2.390  0.00  0.00    +0.113 A 
ATOM      2  C   UNL     1       4.044   1.254   3.270  0.00  0.00    +0.055 A 
ATOM      3  C   UNL     1       3.675   1.161   4.607  0.00  0.00    +0.049 A 
ATOM      4  C   UNL     1       2.508   1.812   5.048  0.00  0.00    +0.011 A 
ATOM      5  C   UNL     1       1.737   2.541   4.145  0.00  0.00    +0.016 A 
ATOM      6  C   UNL     1       2.123   2.625   2.826  0.00  0.00    -0.023 A 
ATOM      7  C   UNL     1       1.292   3.418   1.850  0.00  0.00    +0.046 C 
ATOM      8  C   UNL     1       2.411   1.517   6.479  0.00  0.00    +0.046 A 
ATOM      9  C   UNL     1       3.507   0.729   6.798  0.00  0.00    +0.028 A 
ATOM     10  N   UNL     1       4.240   0.522   5.697  0.00  0.00    -0.357 N 
ATOM     11  H   UNL     1       5.168  -0.055   5.575  0.00  0.00    +0.166 HD
ATOM     12  C   UNL     1       3.749   0.233   8.205  0.00  0.00    +0.054 C 
ATOM     13  C   UNL     1       3.090   1.219   9.177  0.00  0.00    +0.014 C 
ATOM     14  C   UNL     1       1.606   1.385   8.849  0.00  0.00    +0.080 C 
ATOM     15  C   UNL     1       1.443   1.904   7.436  0.00  0.00    +0.165 C 
ATOM     16  O   UNL     1       0.514   2.626   7.135  0.00  0.00    -0.292 OA
ENDROOT
BRANCH   1  17
ATOM     17  S   UNL     1       3.747   2.092   0.697  0.00  0.00    +0.073 S 
ATOM     18  O   UNL     1       2.594   1.776  -0.071  0.00  0.00    -0.150 OA
ATOM     19  O   UNL     1       4.967   1.374   0.570  0.00  0.00    -0.150 OA
BRANCH  17  20
ATOM     20  N   UNL     1       4.099   3.681   0.392  0.00  0.00    -0.216 N 
ATOM     21  H   UNL     1       3.533   4.232  -0.373  0.00  0.00    +0.174 HD
BRANCH  20  27
ATOM     22  C   UNL     1       8.495   3.493   2.581  0.00  0.00    +0.044 C 
ATOM     23  C   UNL     1       7.257   4.254   2.181  0.00  0.00    -0.049 A 
ATOM     24  C   UNL     1       7.126   5.588   2.521  0.00  0.00    +0.004 A 
ATOM     25  C   UNL     1       5.994   6.291   2.152  0.00  0.00    +0.005 A 
ATOM     26  C   UNL     1       4.986   5.660   1.450  0.00  0.00    -0.028 A 
ATOM     27  C   UNL     1       5.114   4.321   1.106  0.00  0.00    +0.051 A 
ATOM     28  C   UNL     1       6.255   3.618   1.474  0.00  0.00    +0.028 A 
ATOM     29  C   UNL     1       3.751   6.426   1.053  0.00  0.00    +0.046 C 
ENDBRANCH  20  27
ENDBRANCH  17  20
ENDBRANCH   1  17
TORSDOF 3
