REMARK  Name = ZINC38701165
REMARK  14 active torsions:
REMARK  status: ('A' for Active; 'I' for Inactive)
REMARK    1  A    between atoms: C_1  and  C_2
REMARK    2  A    between atoms: C_2  and  C_3
REMARK    3  A    between atoms: C_3  and  C_4
REMARK    4  A    between atoms: C_4  and  C_5
REMARK    5  A    between atoms: C_5  and  O_6
REMARK    6  A    between atoms: O_6  and  C_7
REMARK    7  A    between atoms: C_11  and  C_13
REMARK    8  A    between atoms: C_18  and  O_27
REMARK    9  A    between atoms: C_22  and  N_26
REMARK   10  A    between atoms: C_23  and  C_24
REMARK   11  A    between atoms: O_27  and  C_28
REMARK   12  A    between atoms: C_28  and  C_30
REMARK   13  A    between atoms: C_33  and  O_37
REMARK   14  A    between atoms: O_37  and  C_38
REMARK                            x       y       z     vdW  Elec       q    Type
REMARK                         _______ _______ _______ _____ _____    ______ ____
ROOT
ATOM      1  C   UNL     1       2.850  -8.037  -4.858  0.00  0.00    +0.098 C 
ATOM      2  C   UNL     1       2.127  -8.498  -6.097  0.00  0.00    +0.008 A 
ATOM      3  C   UNL     1       0.747  -8.596  -6.083  0.00  0.00    +0.012 A 
ATOM      4  C   UNL     1       0.068  -9.017  -7.209  0.00  0.00    +0.047 A 
ATOM      5  C   UNL     1       0.770  -9.343  -8.361  0.00  0.00    +0.135 A 
ATOM      6  C   UNL     1       2.152  -9.245  -8.378  0.00  0.00    +0.093 A 
ATOM      7  C   UNL     1       2.834  -8.822  -7.244  0.00  0.00    +0.138 A 
ATOM      8  O   UNL     1       4.186  -8.732  -7.277  0.00  0.00    -0.441 OA
ATOM      9  C   UNL     1       4.884  -8.708  -6.130  0.00  0.00    +0.199 C 
ATOM     10  C   UNL     1       4.309  -8.386  -4.951  0.00  0.00    +0.098 C 
ENDROOT
BRANCH   1  15
ATOM     11  C   UNL     1       1.951  -4.637  -3.475  0.00  0.00    +0.121 A 
ATOM     12  C   UNL     1       2.431  -3.800  -4.472  0.00  0.00    +0.045 A 
ATOM     13  C   UNL     1       3.043  -4.337  -5.588  0.00  0.00    +0.004 A 
ATOM     14  C   UNL     1       3.178  -5.707  -5.712  0.00  0.00    +0.005 A 
ATOM     15  C   UNL     1       2.701  -6.544  -4.720  0.00  0.00    -0.031 A 
ATOM     16  C   UNL     1       2.093  -6.011  -3.599  0.00  0.00    +0.050 A 
BRANCH  11  17
ATOM     17  O   UNL     1       1.349  -4.111  -2.376  0.00  0.00    -0.492 OA
BRANCH  17  18
ATOM     18  C   UNL     1       1.238  -2.688  -2.316  0.00  0.00    +0.229 C 
BRANCH  18  19
ATOM     19  C   UNL     1       0.537  -2.286  -1.016  0.00  0.00    +0.041 C 
BRANCH  19  20
ATOM     20  C   UNL     1       0.418  -0.762  -0.952  0.00  0.00    +0.003 C 
BRANCH  20  22
ATOM     21  C   UNL     1      -0.401   1.164   0.413  0.00  0.00    +0.004 C 
ATOM     22  C   UNL     1      -0.282  -0.360   0.348  0.00  0.00    -0.003 C 
ENDBRANCH  20  22
ENDBRANCH  19  20
ENDBRANCH  18  19
ENDBRANCH  17  18
ENDBRANCH  11  17
ENDBRANCH   1  15
BRANCH   9  23
ATOM     23  N   UNL     1       6.221  -9.018  -6.157  0.00  0.00    -0.328 N 
ATOM     24  H   UNL     1       6.648  -9.251  -6.996  0.00  0.00    +0.145 HD
ATOM     25  H   UNL     1       6.739  -9.005  -5.337  0.00  0.00    +0.145 HD
ENDBRANCH   9  23
BRANCH  10  26
ATOM     26  C   UNL     1       5.109  -8.377  -3.764  0.00  0.00    +0.101 C 
ATOM     27  N   UNL     1       5.744  -8.371  -2.822  0.00  0.00    -0.191 NA
ENDBRANCH  10  26
BRANCH   5  28
ATOM     28  O   UNL     1       0.103  -9.758  -9.470  0.00  0.00    -0.422 OA
BRANCH  28  29
ATOM     29  C   UNL     1       0.237 -11.045  -9.845  0.00  0.00    +0.344 C 
ATOM     30  O   UNL     1       0.852 -11.822  -9.141  0.00  0.00    -0.245 OA
BRANCH  29  31
ATOM     31  C   UNL     1      -0.362 -11.512 -11.108  0.00  0.00    +0.061 A 
ATOM     32  C   UNL     1      -1.065 -10.618 -11.923  0.00  0.00    +0.018 A 
ATOM     33  C   UNL     1      -1.622 -11.057 -13.102  0.00  0.00    +0.048 A 
ATOM     34  C   UNL     1      -1.488 -12.387 -13.485  0.00  0.00    +0.138 A 
ATOM     35  C   UNL     1      -0.790 -13.279 -12.678  0.00  0.00    +0.083 A 
ATOM     36  C   UNL     1      -0.224 -12.847 -11.499  0.00  0.00    +0.038 A 
ATOM     37 CL   UNL     1      -0.626 -14.939 -13.162  0.00  0.00    -0.080 Cl
BRANCH  34  38
ATOM     38  O   UNL     1      -2.040 -12.815 -14.649  0.00  0.00    -0.494 OA
ATOM     39  C   UNL     1      -2.744 -11.846 -15.428  0.00  0.00    +0.277 C 
ENDBRANCH  34  38
ENDBRANCH  29  31
ENDBRANCH  28  29
ENDBRANCH   5  28
TORSDOF 12
