REMARK  Name = ZINC03227166
REMARK  4 active torsions:
REMARK  status: ('A' for Active; 'I' for Inactive)
REMARK    1  A    between atoms: C_1  and  C_2
REMARK    2  A    between atoms: C_5  and  C_8
REMARK    3  A    between atoms: C_8  and  C_24
REMARK    4  A    between atoms: C_9  and  C_22
REMARK                            x       y       z     vdW  Elec       q    Type
REMARK                         _______ _______ _______ _____ _____    ______ ____
ROOT
ATOM      1  C   UNL     1       0.059  -4.275  -0.021  0.00  0.00    +0.194 C 
ATOM      2  C   UNL     1       0.746  -4.741   1.245  0.00  0.00    +0.102 C 
ATOM      3  C   UNL     1       1.858  -5.532   1.118  0.00  0.00    +0.119 C 
ATOM      4  N   UNL     1       2.665  -6.088   2.080  0.00  0.00    -0.300 N 
ATOM      5  C   UNL     1       3.669  -6.811   1.445  0.00  0.00    +0.054 A 
ATOM      6  C   UNL     1       4.737  -7.561   1.921  0.00  0.00    +0.025 A 
ATOM      7  C   UNL     1       5.591  -8.182   1.031  0.00  0.00    +0.002 A 
ATOM      8  C   UNL     1       5.388  -8.061  -0.333  0.00  0.00    +0.002 A 
ATOM      9  C   UNL     1       4.329  -7.317  -0.815  0.00  0.00    +0.026 A 
ATOM     10  C   UNL     1       3.466  -6.690   0.071  0.00  0.00    +0.065 A 
ATOM     11  N   UNL     1       2.332  -5.888  -0.121  0.00  0.00    -0.209 N 
ATOM     12  C   UNL     1       1.746  -5.492  -1.265  0.00  0.00    +0.313 C 
ATOM     13  O   UNL     1       2.230  -5.854  -2.320  0.00  0.00    -0.252 OA
ATOM     14  N   UNL     1       0.650  -4.715  -1.296  0.00  0.00    -0.277 N 
ATOM     15  H   UNL     1       2.553  -5.992   3.039  0.00  0.00    +0.153 HD
ATOM     16  H   UNL     1       0.255  -4.450  -2.142  0.00  0.00    +0.152 HD
ENDROOT
BRANCH   1  21
ATOM     17  C   UNL     1      -0.018   1.503   0.009  0.00  0.00    +0.044 C 
ATOM     18  C   UNL     1       0.002  -0.004   0.001  0.00  0.00    -0.050 A 
ATOM     19  C   UNL     1       0.640  -0.681  -1.022  0.00  0.00    +0.004 A 
ATOM     20  C   UNL     1       0.659  -2.064  -1.029  0.00  0.00    +0.006 A 
ATOM     21  C   UNL     1       0.040  -2.768  -0.013  0.00  0.00    -0.010 A 
ATOM     22  C   UNL     1      -0.597  -2.091   1.010  0.00  0.00    +0.006 A 
ATOM     23  C   UNL     1      -0.612  -0.709   1.019  0.00  0.00    +0.004 A 
ENDBRANCH   1  21
BRANCH   1  24
ATOM     24  C   UNL     1      -1.390  -4.763   0.021  0.00  0.00    +0.420 C 
ATOM     25  F   UNL     1      -2.077  -4.281  -1.098  0.00  0.00    -0.168 F 
ATOM     26  F   UNL     1      -1.412  -6.162   0.015  0.00  0.00    -0.168 F 
ATOM     27  F   UNL     1      -2.006  -4.292   1.185  0.00  0.00    -0.168 F 
ENDBRANCH   1  24
BRANCH   2  28
ATOM     28  C   UNL     1       0.250  -4.367   2.535  0.00  0.00    +0.101 C 
ATOM     29  N   UNL     1      -0.144  -4.070   3.559  0.00  0.00    -0.191 NA
ENDBRANCH   2  28
TORSDOF 3
