REMARK  Name = ZINC09504960
REMARK  8 active torsions:
REMARK  status: ('A' for Active; 'I' for Inactive)
REMARK    1  A    between atoms: C_1  and  C_2
REMARK    2  A    between atoms: C_2  and  O_3
REMARK    3  A    between atoms: O_3  and  C_4
REMARK    4  A    between atoms: C_7  and  C_9
REMARK    5  A    between atoms: C_13  and  N_14
REMARK    6  A    between atoms: C_15  and  C_17
REMARK    7  A    between atoms: N_20  and  S_23
REMARK    8  A    between atoms: S_23  and  C_26
REMARK                            x       y       z     vdW  Elec       q    Type
REMARK                         _______ _______ _______ _____ _____    ______ ____
ROOT
ATOM      1  C   UNL     1      -2.027   8.005   3.701  0.00  0.00    +0.069 A 
ATOM      2  C   UNL     1      -1.789   8.846   4.863  0.00  0.00    -0.023 A 
ATOM      3  C   UNL     1      -0.645   8.590   5.534  0.00  0.00    -0.004 A 
ATOM      4  S   UNL     1       0.107   7.252   4.652  0.00  0.00    -0.077 S 
ATOM      5  C   UNL     1      -1.074   7.040   3.402  0.00  0.00    +0.084 A 
ATOM      6  C   UNL     1      -0.140   9.290   6.758  0.00  0.00    +0.043 C 
ATOM      7  C   UNL     1      -0.929  10.596   6.928  0.00  0.00    +0.005 C 
ATOM      8  C   UNL     1      -2.423  10.293   6.777  0.00  0.00    +0.005 C 
ATOM      9  C   UNL     1      -2.738   9.946   5.321  0.00  0.00    +0.037 C 
ENDROOT
BRANCH   1  13
ATOM     10  C   UNL     1      -4.317   9.163   1.069  0.00  0.00    +0.407 C 
ATOM     11  O   UNL     1      -5.325   8.538   1.333  0.00  0.00    -0.226 OA
ATOM     12  N   UNL     1      -3.213   9.012   1.827  0.00  0.00    -0.217 N 
ATOM     13  C   UNL     1      -3.227   8.169   2.878  0.00  0.00    +0.255 C 
ATOM     14  O   UNL     1      -4.236   7.543   3.142  0.00  0.00    -0.270 OA
ATOM     15  H   UNL     1      -2.408   9.511   1.615  0.00  0.00    +0.161 HD
BRANCH  10  16
ATOM     16  O   UNL     1      -4.303  10.005   0.019  0.00  0.00    -0.450 OA
BRANCH  16  18
ATOM     17  C   UNL     1      -5.322  11.113  -1.896  0.00  0.00    +0.048 C 
ATOM     18  C   UNL     1      -5.528  10.117  -0.753  0.00  0.00    +0.230 C 
ENDBRANCH  16  18
ENDBRANCH  10  16
ENDBRANCH   1  13
BRANCH   5  19
ATOM     19  N   UNL     1      -1.071   6.127   2.360  0.00  0.00    -0.279 N 
ATOM     20  C   UNL     1      -0.049   5.258   2.229  0.00  0.00    +0.221 C 
ATOM     21  O   UNL     1       0.868   5.276   3.022  0.00  0.00    -0.275 OA
ATOM     22  H   UNL     1      -1.804   6.112   1.726  0.00  0.00    +0.155 HD
BRANCH  20  23
ATOM     23  C   UNL     1      -0.046   4.264   1.096  0.00  0.00    +0.078 C 
ATOM     24  C   UNL     1       1.217   3.403   1.176  0.00  0.00    +0.030 C 
ATOM     25  C   UNL     1       1.234   2.417   0.003  0.00  0.00    +0.110 C 
ATOM     26  N   UNL     1      -0.020   1.652   0.011  0.00  0.00    -0.176 NA
ATOM     27  C   UNL     1      -1.295   2.383   0.021  0.00  0.00    +0.110 C 
ATOM     28  C   UNL     1      -1.283   3.369   1.199  0.00  0.00    +0.030 C 
BRANCH  26  29
ATOM     29  S   UNL     1       0.002  -0.004   0.002  0.00  0.00    +0.067 S 
ATOM     30  O   UNL     1      -1.243  -0.424  -0.539  0.00  0.00    -0.152 OA
ATOM     31  O   UNL     1       1.248  -0.390  -0.563  0.00  0.00    -0.152 OA
BRANCH  29  32
ATOM     32  C   UNL     1       0.025  -0.534   1.682  0.00  0.00    +0.143 A 
ATOM     33  C   UNL     1      -1.016  -0.800   2.508  0.00  0.00    +0.036 A 
ATOM     34  C   UNL     1      -0.758  -1.211   3.802  0.00  0.00    +0.010 A 
ATOM     35  C   UNL     1       0.529  -1.326   4.211  0.00  0.00    +0.047 A 
ATOM     36  S   UNL     1       1.427  -0.853   2.741  0.00  0.00    -0.077 S 
ENDBRANCH  29  32
ENDBRANCH  26  29
ENDBRANCH  20  23
ENDBRANCH   5  19
TORSDOF 7
