REMARK  Name = ZINC36660470
REMARK  10 active torsions:
REMARK  status: ('A' for Active; 'I' for Inactive)
REMARK    1  A    between atoms: C_1  and  C_2
REMARK    2  A    between atoms: C_7  and  C_8
REMARK    3  A    between atoms: N_12  and  C_13
REMARK    4  A    between atoms: C_13  and  C_14
REMARK    5  A    between atoms: C_14  and  N_15
REMARK    6  A    between atoms: N_15  and  C_16
REMARK    7  A    between atoms: N_15  and  C_17
REMARK    8  A    between atoms: C_18  and  C_20
REMARK    9  A    between atoms: N_25  and  S_26
REMARK   10  A    between atoms: S_26  and  C_29
REMARK                            x       y       z     vdW  Elec       q    Type
REMARK                         _______ _______ _______ _____ _____    ______ ____
ROOT
ATOM      1  C   UNL     1      -1.161   1.139   0.104  0.00  0.00    +0.044 C 
ATOM      2  C   UNL     1      -0.928  -0.346   0.223  0.00  0.00    -0.045 A 
ATOM      3  C   UNL     1      -0.784  -1.103  -0.931  0.00  0.00    +0.005 A 
ATOM      4  C   UNL     1      -0.570  -2.465  -0.824  0.00  0.00    +0.017 A 
ATOM      5  C   UNL     1      -0.504  -3.045   0.418  0.00  0.00    +0.041 A 
ATOM      6  C   UNL     1      -0.646  -2.305   1.615  0.00  0.00    +0.083 A 
ATOM      7  C   UNL     1      -0.858  -0.915   1.467  0.00  0.00    -0.021 A 
ATOM      8  C   UNL     1      -1.013  -0.051   2.692  0.00  0.00    +0.046 C 
ATOM      9  N   UNL     1      -0.556  -3.019   2.758  0.00  0.00    -0.224 NA
ATOM     10  C   UNL     1      -0.350  -4.315   2.766  0.00  0.00    +0.168 A 
ATOM     11  S   UNL     1      -0.254  -4.697   1.023  0.00  0.00    -0.052 S 
ATOM     12  N   UNL     1      -0.236  -5.170   3.851  0.00  0.00    -0.251 N 
ATOM     13  C   UNL     1      -0.415  -4.699   5.101  0.00  0.00    +0.240 C 
ATOM     14  O   UNL     1      -0.606  -3.516   5.282  0.00  0.00    -0.273 OA
ENDROOT
BRANCH  13  15
ATOM     15  C   UNL     1      -0.378  -5.645   6.274  0.00  0.00    +0.166 C 
ATOM     16  C   UNL     1      -1.792  -6.201   6.545  0.00  0.00    +0.031 C 
ATOM     17  C   UNL     1      -1.856  -6.245   8.095  0.00  0.00    +0.019 C 
ATOM     18  C   UNL     1      -1.040  -4.985   8.477  0.00  0.00    +0.110 C 
ATOM     19  N   UNL     1       0.051  -4.925   7.482  0.00  0.00    -0.165 NA
BRANCH  19  20
ATOM     20  S   UNL     1       1.512  -4.175   7.691  0.00  0.00    +0.062 S 
ATOM     21  O   UNL     1       1.775  -4.179   9.088  0.00  0.00    -0.153 OA
ATOM     22  O   UNL     1       2.404  -4.752   6.747  0.00  0.00    -0.153 OA
BRANCH  20  23
ATOM     23  C   UNL     1       1.304  -2.489   7.223  0.00  0.00    +0.106 A 
ATOM     24  C   UNL     1       1.616  -2.086   5.938  0.00  0.00    +0.030 A 
ATOM     25  C   UNL     1       1.453  -0.764   5.569  0.00  0.00    +0.022 A 
ATOM     26  C   UNL     1       0.978   0.156   6.487  0.00  0.00    +0.041 A 
ATOM     27  C   UNL     1       0.666  -0.248   7.773  0.00  0.00    +0.022 A 
ATOM     28  C   UNL     1       0.824  -1.572   8.138  0.00  0.00    +0.030 A 
ATOM     29 CL   UNL     1       0.773   1.817   6.025  0.00  0.00    -0.084 Cl
ENDBRANCH  20  23
ENDBRANCH  19  20
ENDBRANCH  13  15
BRANCH  12  30
ATOM     30  C   UNL     1       0.079  -6.585   3.638  0.00  0.00    +0.097 C 
BRANCH  30  31
ATOM     31  C   UNL     1       1.592  -6.791   3.738  0.00  0.00    -0.060 C 
BRANCH  31  32
ATOM     32  N   UNL     1       1.907  -8.210   3.525  0.00  0.00    +0.377 N 
ATOM     33  C   UNL     1       3.365  -8.389   3.501  0.00  0.00    -0.097 C 
ATOM     34  C   UNL     1       1.334  -9.008   4.616  0.00  0.00    -0.097 C 
ATOM     35  H   UNL     1       1.517  -8.513   2.645  0.00  0.00    -0.083 HD
ENDBRANCH  31  32
ENDBRANCH  30  31
ENDBRANCH  12  30
TORSDOF 6
