REMARK  Name = ZINC09329461
REMARK  5 active torsions:
REMARK  status: ('A' for Active; 'I' for Inactive)
REMARK    1  A    between atoms: C_1  and  C_2
REMARK    2  A    between atoms: C_5  and  N_38
REMARK    3  A    between atoms: C_7  and  N_8
REMARK    4  A    between atoms: C_23  and  C_29
REMARK    5  A    between atoms: C_29  and  C_31
REMARK                            x       y       z     vdW  Elec       q    Type
REMARK                         _______ _______ _______ _____ _____    ______ ____
ROOT
ATOM      1  N   UNL     1       1.956   0.914   0.779  0.00  0.00    -0.209 N 
ATOM      2  C   UNL     1       1.103  -0.122   1.029  0.00  0.00    +0.232 C 
ATOM      3  O   UNL     1       1.207  -0.962   1.897  0.00  0.00    -0.274 OA
ATOM      4  C   UNL     1       0.002  -0.004   0.002  0.00  0.00    +0.113 C 
ATOM      5  C   UNL     1      -1.430  -0.219   0.355  0.00  0.00    +0.100 C 
ATOM      6  C   UNL     1      -1.897  -0.678   1.668  0.00  0.00    -0.021 A 
ATOM      7  C   UNL     1      -1.119  -1.423   2.527  0.00  0.00    +0.006 A 
ATOM      8  C   UNL     1      -1.608  -1.838   3.751  0.00  0.00    +0.000 A 
ATOM      9  C   UNL     1      -2.898  -1.515   4.132  0.00  0.00    +0.001 A 
ATOM     10  C   UNL     1      -3.695  -0.804   3.285  0.00  0.00    +0.008 A 
ATOM     11  C   UNL     1      -3.211  -0.364   2.054  0.00  0.00    -0.019 A 
ATOM     12  C   UNL     1      -4.073   0.443   1.169  0.00  0.00    +0.022 C 
ATOM     13  C   UNL     1      -3.567   1.073   0.092  0.00  0.00    +0.054 C 
ATOM     14  C   UNL     1      -1.255   1.896  -0.742  0.00  0.00    +0.141 C 
ATOM     15  C   UNL     1      -0.019   1.586   0.011  0.00  0.00    +0.116 C 
ATOM     16  C   UNL     1       1.389   1.892  -0.001  0.00  0.00    +0.232 C 
ATOM     17  O   UNL     1       1.946   2.805  -0.570  0.00  0.00    -0.274 OA
ATOM     18  N   UNL     1      -2.169   0.736  -0.410  0.00  0.00    -0.384 NA
ATOM     19  H   UNL     1      -2.342   0.270  -1.309  0.00  0.00    +0.127 HD
ENDROOT
BRANCH   1  26
ATOM     20  C   UNL     1       2.401   2.142   3.308  0.00  0.00    +0.045 C 
ATOM     21  C   UNL     1       3.530   1.563   2.494  0.00  0.00    -0.028 A 
ATOM     22  C   UNL     1       4.826   1.620   2.971  0.00  0.00    +0.007 A 
ATOM     23  C   UNL     1       5.862   1.089   2.226  0.00  0.00    +0.033 A 
ATOM     24  C   UNL     1       5.605   0.500   1.001  0.00  0.00    +0.128 A 
ATOM     25  C   UNL     1       4.312   0.436   0.521  0.00  0.00    +0.057 A 
ATOM     26  C   UNL     1       3.270   0.973   1.265  0.00  0.00    +0.049 A 
BRANCH  24  27
ATOM     27  N   UNL     1       6.718  -0.068   0.206  0.00  0.00    +0.056 N 
ATOM     28  O   UNL     1       7.858  -0.016   0.631  0.00  0.00    -0.126 OA
ATOM     29  O   UNL     1       6.492  -0.587  -0.873  0.00  0.00    -0.126 OA
ENDBRANCH  24  27
ENDBRANCH   1  26
BRANCH  14  30
ATOM     30  C   UNL     1      -1.082   1.611  -2.211  0.00  0.00    +0.183 C 
ATOM     31  O   UNL     1      -1.594   0.628  -2.703  0.00  0.00    -0.290 OA
BRANCH  30  32
ATOM     32  C   UNL     1      -0.292   2.526  -3.049  0.00  0.00    +0.019 A 
ATOM     33  C   UNL     1       0.295   3.665  -2.486  0.00  0.00    +0.013 A 
ATOM     34  C   UNL     1       1.038   4.515  -3.277  0.00  0.00    +0.020 A 
ATOM     35  C   UNL     1       1.195   4.250  -4.628  0.00  0.00    +0.041 A 
ATOM     36  C   UNL     1       0.612   3.127  -5.193  0.00  0.00    +0.020 A 
ATOM     37  C   UNL     1      -0.129   2.266  -4.414  0.00  0.00    +0.013 A 
ATOM     38 CL   UNL     1       2.127   5.331  -5.617  0.00  0.00    -0.084 Cl
ENDBRANCH  30  32
ENDBRANCH  14  30
TORSDOF 4
