REMARK  Name = ZINC53060501
REMARK  5 active torsions:
REMARK  status: ('A' for Active; 'I' for Inactive)
REMARK    1  A    between atoms: C_1  and  C_2
REMARK    2  A    between atoms: C_4  and  C_14
REMARK    3  A    between atoms: C_7  and  N_8
REMARK    4  A    between atoms: C_18  and  C_25
REMARK    5  A    between atoms: C_21  and  C_24
REMARK                            x       y       z     vdW  Elec       q    Type
REMARK                         _______ _______ _______ _____ _____    ______ ____
ROOT
ATOM      1  C   UNL     1      -1.778   0.810   0.426  0.00  0.00    +0.046 C 
ATOM      2  C   UNL     1      -0.825  -0.336   0.201  0.00  0.00    -0.028 A 
ATOM      3  C   UNL     1      -0.841  -1.019  -0.994  0.00  0.00    +0.018 A 
ATOM      4  C   UNL     1       0.043  -2.081  -1.202  0.00  0.00    +0.037 A 
ATOM      5  C   UNL     1       0.942  -2.445  -0.196  0.00  0.00    +0.015 A 
ATOM      6  C   UNL     1       0.953  -1.758   0.997  0.00  0.00    +0.024 A 
ATOM      7  C   UNL     1       0.075  -0.698   1.199  0.00  0.00    +0.041 A 
ENDROOT
BRANCH   4   8
ATOM      8  C   UNL     1       0.028  -2.816  -2.482  0.00  0.00    +0.247 C 
ATOM      9  O   UNL     1      -0.093  -2.210  -3.530  0.00  0.00    -0.270 OA
ATOM     10  N   UNL     1       0.148  -4.158  -2.490  0.00  0.00    -0.297 N 
ATOM     11  C   UNL     1       0.160  -4.916  -1.231  0.00  0.00    +0.111 C 
ATOM     12  C   UNL     1      -0.913  -6.007  -1.301  0.00  0.00    +0.004 C 
ATOM     13  C   UNL     1      -0.685  -6.861  -2.551  0.00  0.00    +0.009 C 
ATOM     14  C   UNL     1      -0.805  -5.983  -3.799  0.00  0.00    +0.004 C 
ATOM     15  C   UNL     1       0.263  -4.892  -3.757  0.00  0.00    +0.111 C 
ATOM     16  C   UNL     1      -0.610  -6.844  -5.049  0.00  0.00    +0.009 C 
ATOM     17  C   UNL     1      -0.825  -6.891  -0.055  0.00  0.00    +0.009 C 
ENDBRANCH   4   8
BRANCH   7  18
ATOM     18  N   UNL     1       0.093   0.001   2.405  0.00  0.00    -0.254 N 
ATOM     19  C   UNL     1      -0.699  -0.337   3.597  0.00  0.00    +0.134 C 
ATOM     20  C   UNL     1      -0.301   0.742   4.623  0.00  0.00    +0.125 C 
ATOM     21  N   UNL     1       0.673   1.573   3.901  0.00  0.00    -0.297 N 
ATOM     22  C   UNL     1       0.840   1.082   2.665  0.00  0.00    +0.307 C 
ATOM     23  O   UNL     1       1.596   1.576   1.852  0.00  0.00    -0.252 OA
ATOM     24  H   UNL     1       1.127   2.350   4.262  0.00  0.00    +0.150 HD
ENDBRANCH   7  18
TORSDOF 2
