REMARK  Name = ZINC39326847
REMARK  16 active torsions:
REMARK  status: ('A' for Active; 'I' for Inactive)
REMARK    1  A    between atoms: C_1  and  O_2
REMARK    2  A    between atoms: O_2  and  C_3
REMARK    3  A    between atoms: C_5  and  C_13
REMARK    4  A    between atoms: C_7  and  O_11
REMARK    5  A    between atoms: C_8  and  O_9
REMARK    6  A    between atoms: O_9  and  C_10
REMARK    7  A    between atoms: O_11  and  C_12
REMARK    8  A    between atoms: C_21  and  N_39
REMARK    9  A    between atoms: C_22  and  C_37
REMARK   10  A    between atoms: C_23  and  C_25
REMARK   11  A    between atoms: C_27  and  O_35
REMARK   12  A    between atoms: C_28  and  O_33
REMARK   13  A    between atoms: C_29  and  O_31
REMARK   14  A    between atoms: O_31  and  C_32
REMARK   15  A    between atoms: O_33  and  C_34
REMARK   16  A    between atoms: O_35  and  C_36
REMARK                            x       y       z     vdW  Elec       q    Type
REMARK                         _______ _______ _______ _____ _____    ______ ____
ROOT
ATOM      1  C   UNL     1       2.394   0.352  -4.216  0.00  0.00    +0.016 C 
ATOM      2  C   UNL     1       3.079  -0.243  -5.209  0.00  0.00    +0.009 C 
ATOM      3  C   UNL     1       3.148  -1.751  -5.322  0.00  0.00    +0.120 C 
ATOM      4  N   UNL     1       4.532  -2.091  -5.701  0.00  0.00    -0.308 NA
ATOM      5  C   UNL     1       4.856  -1.545  -7.020  0.00  0.00    +0.117 C 
ATOM      6  C   UNL     1       4.625  -0.056  -7.077  0.00  0.00    -0.001 C 
ATOM      7  C   UNL     1       3.786   0.551  -6.235  0.00  0.00    +0.136 C 
ATOM      8  O   UNL     1       3.561   1.887  -6.287  0.00  0.00    -0.441 OA
ATOM      9  C   UNL     1       3.836   2.572  -7.411  0.00  0.00    +0.199 C 
ATOM     10  C   UNL     1       4.694   2.074  -8.336  0.00  0.00    +0.098 C 
ATOM     11  C   UNL     1       5.368   0.742  -8.121  0.00  0.00    +0.095 C 
ATOM     12  H   UNL     1       5.187  -1.768  -5.005  0.00  0.00    +0.123 HD
ENDROOT
BRANCH   1  15
ATOM     13  C   UNL     1       0.142  -2.361  -2.926  0.00  0.00    +0.166 A 
ATOM     14  C   UNL     1       0.922  -1.605  -3.781  0.00  0.00    +0.057 A 
ATOM     15  C   UNL     1       1.562  -0.456  -3.308  0.00  0.00    -0.017 A 
ATOM     16  C   UNL     1       1.411  -0.075  -1.972  0.00  0.00    +0.057 A 
ATOM     17  C   UNL     1       0.630  -0.837  -1.122  0.00  0.00    +0.166 A 
ATOM     18  C   UNL     1      -0.010  -1.977  -1.597  0.00  0.00    +0.204 A 
BRANCH  13  20
ATOM     19  C   UNL     1      -0.282  -3.815  -4.760  0.00  0.00    +0.277 C 
ATOM     20  O   UNL     1      -0.482  -3.479  -3.386  0.00  0.00    -0.491 OA
ENDBRANCH  13  20
BRANCH  18  21
ATOM     21  O   UNL     1      -0.783  -2.720  -0.760  0.00  0.00    -0.488 OA
ATOM     22  C   UNL     1      -0.135  -3.773  -0.043  0.00  0.00    +0.277 C 
ENDBRANCH  18  21
BRANCH  17  23
ATOM     23  O   UNL     1       0.483  -0.468   0.179  0.00  0.00    -0.491 OA
ATOM     24  C   UNL     1       1.164   0.717   0.598  0.00  0.00    +0.277 C 
ENDBRANCH  17  23
ENDBRANCH   1  15
BRANCH  11  25
ATOM     25  C   UNL     1       6.790   0.954  -7.670  0.00  0.00    -0.028 A 
ATOM     26  C   UNL     1       7.045   1.620  -6.485  0.00  0.00    +0.054 A 
ATOM     27  C   UNL     1       8.352   1.817  -6.066  0.00  0.00    +0.165 A 
ATOM     28  C   UNL     1       9.406   1.345  -6.839  0.00  0.00    +0.204 A 
ATOM     29  C   UNL     1       9.145   0.675  -8.028  0.00  0.00    +0.165 A 
ATOM     30  C   UNL     1       7.835   0.477  -8.438  0.00  0.00    +0.054 A 
BRANCH  29  31
ATOM     31  O   UNL     1      10.174   0.211  -8.788  0.00  0.00    -0.491 OA
ATOM     32  C   UNL     1       9.831  -0.467  -9.998  0.00  0.00    +0.277 C 
ENDBRANCH  29  31
BRANCH  28  33
ATOM     33  O   UNL     1      10.690   1.537  -6.431  0.00  0.00    -0.488 OA
ATOM     34  C   UNL     1      11.268   0.522  -5.607  0.00  0.00    +0.277 C 
ENDBRANCH  28  33
BRANCH  27  35
ATOM     35  O   UNL     1       8.602   2.473  -4.901  0.00  0.00    -0.491 OA
ATOM     36  C   UNL     1       7.470   2.932  -4.159  0.00  0.00    +0.277 C 
ENDBRANCH  27  35
ENDBRANCH  11  25
BRANCH   9  37
ATOM     37  N   UNL     1       3.241   3.791  -7.624  0.00  0.00    -0.328 N 
ATOM     38  H   UNL     1       2.627   4.152  -6.966  0.00  0.00    +0.145 HD
ATOM     39  H   UNL     1       3.435   4.290  -8.433  0.00  0.00    +0.145 HD
ENDBRANCH   9  37
BRANCH  10  40
ATOM     40  C   UNL     1       4.968   2.825  -9.525  0.00  0.00    +0.101 C 
ATOM     41  N   UNL     1       5.185   3.421 -10.467  0.00  0.00    -0.191 NA
ENDBRANCH  10  40
TORSDOF 10
