REMARK  Name = ZINC40036176
REMARK  11 active torsions:
REMARK  status: ('A' for Active; 'I' for Inactive)
REMARK    1  A    between atoms: C_1  and  C_2
REMARK    2  A    between atoms: C_2  and  C_3
REMARK    3  A    between atoms: C_3  and  C_4
REMARK    4  A    between atoms: C_4  and  C_38
REMARK    5  A    between atoms: N_16  and  C_29
REMARK    6  A    between atoms: N_19  and  N_20
REMARK    7  A    between atoms: C_21  and  C_22
REMARK    8  A    between atoms: C_25  and  O_28
REMARK    9  A    between atoms: C_32  and  O_35
REMARK   10  A    between atoms: O_35  and  C_36
REMARK   11  A    between atoms: C_36  and  C_37
REMARK                            x       y       z     vdW  Elec       q    Type
REMARK                         _______ _______ _______ _____ _____    ______ ____
ROOT
ATOM      1  C   UNL     1       0.083  -1.273   1.284  0.00  0.00    +0.004 C 
ATOM      2  C   UNL     1       1.258  -1.355   2.255  0.00  0.00    +0.047 C 
ATOM      3  C   UNL     1       0.770  -1.595   3.658  0.00  0.00    -0.037 A 
ATOM      4  C   UNL     1       1.420  -1.023   4.732  0.00  0.00    +0.004 A 
ATOM      5  C   UNL     1       0.967  -1.252   6.019  0.00  0.00    +0.000 A 
ATOM      6  C   UNL     1      -0.138  -2.056   6.239  0.00  0.00    +0.001 A 
ATOM      7  C   UNL     1      -0.798  -2.634   5.173  0.00  0.00    +0.010 A 
ATOM      8  C   UNL     1      -0.346  -2.403   3.877  0.00  0.00    +0.004 A 
ATOM      9  C   UNL     1      -1.039  -3.001   2.713  0.00  0.00    +0.084 A 
ATOM     10  C   UNL     1      -0.828  -2.455   1.454  0.00  0.00    +0.050 A 
ATOM     11  C   UNL     1      -1.477  -3.027   0.353  0.00  0.00    +0.264 A 
ATOM     12  O   UNL     1      -1.313  -2.577  -0.770  0.00  0.00    -0.267 OA
ATOM     13  N   UNL     1      -2.287  -4.088   0.559  0.00  0.00    -0.248 N 
ATOM     14  C   UNL     1      -2.465  -4.581   1.818  0.00  0.00    +0.223 A 
ATOM     15  N   UNL     1      -1.857  -4.048   2.858  0.00  0.00    -0.214 NA
ATOM     16  N   UNL     1      -3.296  -5.656   2.005  0.00  0.00    -0.206 N 
ATOM     17  C   UNL     1       0.615  -1.248  -0.150  0.00  0.00    +0.017 C 
ATOM     18  H   UNL     1      -3.691  -6.103   1.240  0.00  0.00    +0.177 HD
ENDROOT
BRANCH  13  19
ATOM     19  C   UNL     1      -2.948  -4.682  -0.524  0.00  0.00    +0.053 A 
ATOM     20  C   UNL     1      -4.208  -4.234  -0.901  0.00  0.00    +0.030 A 
ATOM     21  C   UNL     1      -4.858  -4.820  -1.968  0.00  0.00    +0.047 A 
ATOM     22  C   UNL     1      -4.254  -5.857  -2.665  0.00  0.00    +0.121 A 
ATOM     23  C   UNL     1      -2.995  -6.305  -2.290  0.00  0.00    +0.047 A 
ATOM     24  C   UNL     1      -2.342  -5.716  -1.226  0.00  0.00    +0.030 A 
BRANCH  22  25
ATOM     25  O   UNL     1      -4.895  -6.434  -3.716  0.00  0.00    -0.492 OA
BRANCH  25  26
ATOM     26  C   UNL     1      -4.214  -7.496  -4.387  0.00  0.00    +0.225 C 
ATOM     27  C   UNL     1      -5.085  -8.016  -5.533  0.00  0.00    +0.048 C 
ENDBRANCH  25  26
ENDBRANCH  22  25
ENDBRANCH  13  19
BRANCH  16  28
ATOM     28  N   UNL     1      -3.575  -6.108   3.301  0.00  0.00    -0.188 NA
ATOM     29  C   UNL     1      -4.362  -7.125   3.479  0.00  0.00    +0.138 C 
BRANCH  29  30
ATOM     30  C   UNL     1      -4.655  -7.601   4.843  0.00  0.00    -0.005 A 
ATOM     31  C   UNL     1      -4.093  -6.954   5.947  0.00  0.00    +0.013 A 
ATOM     32  C   UNL     1      -4.370  -7.402   7.220  0.00  0.00    +0.046 A 
ATOM     33  C   UNL     1      -5.208  -8.495   7.407  0.00  0.00    +0.117 A 
ATOM     34  C   UNL     1      -5.769  -9.140   6.313  0.00  0.00    +0.046 A 
ATOM     35  C   UNL     1      -5.502  -8.695   5.036  0.00  0.00    +0.013 A 
BRANCH  33  36
ATOM     36  O   UNL     1      -5.478  -8.933   8.664  0.00  0.00    -0.507 OA
ATOM     37  H   UNL     1      -6.253  -8.519   9.067  0.00  0.00    +0.292 HD
ENDBRANCH  33  36
ENDBRANCH  29  30
ENDBRANCH  16  28
BRANCH   1  38
ATOM     38  C   UNL     1      -0.704   0.012   1.552  0.00  0.00    +0.011 C 
BRANCH  38  40
ATOM     39  C   UNL     1      -2.653   1.398   0.831  0.00  0.00    +0.004 C 
ATOM     40  C   UNL     1      -1.867   0.114   0.563  0.00  0.00    -0.003 C 
ENDBRANCH  38  40
ENDBRANCH   1  38
TORSDOF 8
