REMARK  Name = ZINC39747378
REMARK  9 active torsions:
REMARK  status: ('A' for Active; 'I' for Inactive)
REMARK    1  A    between atoms: C_1  and  C_2
REMARK    2  A    between atoms: C_2  and  C_3
REMARK    3  A    between atoms: C_2  and  C_4
REMARK    4  A    between atoms: C_4  and  C_6
REMARK    5  A    between atoms: C_4  and  N_16
REMARK    6  A    between atoms: C_17  and  C_19
REMARK    7  A    between atoms: C_19  and  S_20
REMARK    8  A    between atoms: S_20  and  C_21
REMARK    9  A    between atoms: C_25  and  C_27
REMARK                            x       y       z     vdW  Elec       q    Type
REMARK                         _______ _______ _______ _____ _____    ______ ____
ROOT
ATOM      1  N   UNL     1      -2.142  -0.048  -1.174  0.00  0.00    -0.308 N 
ATOM      2  C   UNL     1      -2.727   1.166  -1.160  0.00  0.00    +0.224 C 
ATOM      3  O   UNL     1      -2.667   1.857  -0.165  0.00  0.00    -0.275 OA
ATOM      4  H   UNL     1      -2.190  -0.601  -1.970  0.00  0.00    +0.149 HD
ENDROOT
BRANCH   1   5
ATOM      5  C   UNL     1      -1.433  -0.534   0.013  0.00  0.00    +0.106 C 
BRANCH   5   6
ATOM      6  C   UNL     1      -1.413  -2.041   0.005  0.00  0.00    -0.023 A 
ATOM      7  C   UNL     1      -1.201  -2.721  -1.180  0.00  0.00    +0.009 A 
ATOM      8  C   UNL     1      -1.183  -4.103  -1.192  0.00  0.00    +0.050 A 
ATOM      9  C   UNL     1      -1.377  -4.811  -0.015  0.00  0.00    +0.162 A 
ATOM     10  C   UNL     1      -1.587  -4.126   1.176  0.00  0.00    +0.162 A 
ATOM     11  C   UNL     1      -1.600  -2.739   1.182  0.00  0.00    +0.055 A 
ATOM     12  O   UNL     1      -1.772  -4.801   2.344  0.00  0.00    -0.485 OA
ATOM     13  C   UNL     1      -2.118  -6.186   2.239  0.00  0.00    +0.270 C 
ATOM     14  C   UNL     1      -1.183  -6.839   1.211  0.00  0.00    +0.270 C 
ATOM     15  O   UNL     1      -1.361  -6.171  -0.043  0.00  0.00    -0.485 OA
ENDBRANCH   5   6
BRANCH   5  17
ATOM     16  C   UNL     1      -0.019   1.526   0.010  0.00  0.00    +0.009 C 
ATOM     17  C   UNL     1       0.002  -0.004   0.002  0.00  0.00    +0.008 C 
ATOM     18  C   UNL     1       0.742  -0.511   1.242  0.00  0.00    +0.009 C 
ENDBRANCH   5  17
ENDBRANCH   1   5
BRANCH   2  19
ATOM     19  C   UNL     1      -3.456   1.665  -2.381  0.00  0.00    +0.170 C 
BRANCH  19  20
ATOM     20  S   UNL     1      -4.128   3.317  -2.050  0.00  0.00    -0.087 S 
BRANCH  20  21
ATOM     21  C   UNL     1      -4.963   3.768  -3.596  0.00  0.00    +0.339 C 
ATOM     22  N   UNL     1      -4.012   3.744  -4.721  0.00  0.00    -0.219 N 
ATOM     23  N   UNL     1      -4.502   2.775  -5.607  0.00  0.00    -0.145 NA
ATOM     24  C   UNL     1      -5.601   2.249  -5.135  0.00  0.00    +0.238 C 
ATOM     25  O   UNL     1      -5.951   2.786  -3.938  0.00  0.00    -0.443 OA
ATOM     26  H   UNL     1      -3.213   4.285  -4.826  0.00  0.00    +0.173 HD
BRANCH  24  27
ATOM     27  C   UNL     1      -6.335   1.249  -5.789  0.00  0.00    +0.043 C 
ATOM     28  C   UNL     1      -6.039   0.648  -7.013  0.00  0.00    +0.008 A 
ATOM     29  C   UNL     1      -4.984   0.830  -7.933  0.00  0.00    +0.010 A 
ATOM     30  C   UNL     1      -4.948   0.089  -9.070  0.00  0.00    +0.001 A 
ATOM     31  C   UNL     1      -5.934  -0.857  -9.359  0.00  0.00    +0.002 A 
ATOM     32  C   UNL     1      -6.975  -1.083  -8.520  0.00  0.00    +0.026 A 
ATOM     33  C   UNL     1      -7.080  -0.347  -7.312  0.00  0.00    +0.043 A 
ATOM     34  N   UNL     1      -7.979  -0.379  -6.347  0.00  0.00    -0.380 N 
ATOM     35  C   UNL     1      -7.612   0.592  -5.311  0.00  0.00    +0.154 C 
ATOM     36  H   UNL     1      -8.758  -0.957  -6.324  0.00  0.00    +0.160 HD
ENDBRANCH  24  27
ENDBRANCH  20  21
ENDBRANCH  19  20
ENDBRANCH   2  19
TORSDOF 7
