REMARK  Name = ZINC59382214
REMARK  5 active torsions:
REMARK  status: ('A' for Active; 'I' for Inactive)
REMARK    1  A    between atoms: C_1  and  C_2
REMARK    2  A    between atoms: C_7  and  N_8
REMARK    3  A    between atoms: C_9  and  C_10
REMARK    4  A    between atoms: N_30  and  C_33
REMARK    5  A    between atoms: C_38  and  N_39
REMARK                            x       y       z     vdW  Elec       q    Type
REMARK                         _______ _______ _______ _____ _____    ______ ____
ROOT
ATOM      1  C   UNL     1       0.171  -0.029   4.856  0.00  0.00    +0.068 C 
ATOM      2  C   UNL     1       1.435  -0.393   5.618  0.00  0.00    -0.027 A 
ATOM      3  C   UNL     1       2.439  -1.183   5.133  0.00  0.00    +0.005 A 
ATOM      4  C   UNL     1       3.541  -1.435   5.939  0.00  0.00    +0.000 A 
ATOM      5  C   UNL     1       3.618  -0.895   7.210  0.00  0.00    +0.000 A 
ATOM      6  C   UNL     1       2.594  -0.093   7.696  0.00  0.00    +0.004 A 
ATOM      7  C   UNL     1       1.513   0.152   6.898  0.00  0.00    -0.035 A 
ATOM      8  C   UNL     1       0.319   1.007   7.290  0.00  0.00    +0.062 C 
ATOM      9  C   UNL     1       0.179   2.034   6.177  0.00  0.00    -0.035 A 
ATOM     10  C   UNL     1       0.101   1.489   4.897  0.00  0.00    -0.027 A 
ATOM     11  C   UNL     1      -0.026   2.295   3.802  0.00  0.00    +0.005 A 
ATOM     12  C   UNL     1      -0.077   3.671   3.985  0.00  0.00    +0.000 A 
ATOM     13  C   UNL     1       0.001   4.211   5.255  0.00  0.00    +0.000 A 
ATOM     14  C   UNL     1       0.130   3.386   6.365  0.00  0.00    +0.004 A 
ATOM     15  C   UNL     1      -0.911   0.084   7.153  0.00  0.00    +0.101 C 
ATOM     16  C   UNL     1      -1.012  -0.519   5.720  0.00  0.00    +0.109 C 
ATOM     17  C   UNL     1      -2.295   0.046   5.149  0.00  0.00    +0.232 C 
ATOM     18  O   UNL     1      -2.729  -0.179   4.040  0.00  0.00    -0.274 OA
ATOM     19  N   UNL     1      -2.873   0.833   6.065  0.00  0.00    -0.208 N 
ATOM     20  C   UNL     1      -2.164   0.927   7.258  0.00  0.00    +0.231 C 
ATOM     21  O   UNL     1      -2.490   1.583   8.223  0.00  0.00    -0.274 OA
ENDROOT
BRANCH  19  22
ATOM     22  C   UNL     1      -4.082   1.504   5.833  0.00  0.00    +0.074 A 
ATOM     23  C   UNL     1      -4.076   2.784   5.296  0.00  0.00    +0.026 A 
ATOM     24  C   UNL     1      -5.268   3.443   5.069  0.00  0.00    +0.002 A 
ATOM     25  C   UNL     1      -6.468   2.828   5.377  0.00  0.00    +0.002 A 
ATOM     26  C   UNL     1      -6.478   1.554   5.912  0.00  0.00    +0.034 A 
ATOM     27  C   UNL     1      -5.289   0.888   6.136  0.00  0.00    +0.148 A 
BRANCH  27  28
ATOM     28  N   UNL     1      -5.301  -0.479   6.703  0.00  0.00    +0.058 N 
ATOM     29  O   UNL     1      -6.350  -1.059   6.861  0.00  0.00    -0.126 OA
ATOM     30  O   UNL     1      -4.261  -1.016   7.008  0.00  0.00    -0.126 OA
ENDBRANCH  27  28
ENDBRANCH  19  22
BRANCH   1  32
ATOM     31  N   UNL     1      -0.715  -1.489   3.133  0.00  0.00    -0.258 NA
ATOM     32  C   UNL     1       0.147  -0.583   3.454  0.00  0.00    +0.101 C 
BRANCH  31  39
ATOM     33  C   UNL     1      -0.775  -4.325   2.981  0.00  0.00    +0.046 C 
ATOM     34  C   UNL     1      -0.702  -3.452   1.755  0.00  0.00    -0.025 A 
ATOM     35  C   UNL     1      -0.667  -4.023   0.499  0.00  0.00    +0.005 A 
ATOM     36  C   UNL     1      -0.600  -3.223  -0.627  0.00  0.00    +0.000 A 
ATOM     37  C   UNL     1      -0.568  -1.845  -0.502  0.00  0.00    +0.002 A 
ATOM     38  C   UNL     1      -0.602  -1.262   0.748  0.00  0.00    +0.028 A 
ATOM     39  C   UNL     1      -0.675  -2.063   1.887  0.00  0.00    +0.066 A 
ENDBRANCH  31  39
ENDBRANCH   1  32
TORSDOF 4
