REMARK  Name = ZINC39690083
REMARK  7 active torsions:
REMARK  status: ('A' for Active; 'I' for Inactive)
REMARK    1  A    between atoms: N_4  and  C_6
REMARK    2  A    between atoms: C_9  and  C_12
REMARK    3  A    between atoms: C_12  and  N_13
REMARK    4  A    between atoms: C_14  and  C_16
REMARK    5  A    between atoms: C_27  and  C_29
REMARK    6  A    between atoms: C_32  and  O_35
REMARK    7  A    between atoms: O_35  and  C_36
REMARK                            x       y       z     vdW  Elec       q    Type
REMARK                         _______ _______ _______ _____ _____    ______ ____
ROOT
ATOM      1  C   UNL     1       3.834  -7.992   3.654  0.00  0.00    +0.100 C 
ATOM      2  C   UNL     1       2.361  -7.852   4.098  0.00  0.00    +0.121 C 
ATOM      3  N   UNL     1       1.780  -9.201   3.898  0.00  0.00    -0.296 N 
ATOM      4  C   UNL     1       2.851 -10.131   4.329  0.00  0.00    +0.115 C 
ATOM      5  C   UNL     1       4.153  -9.489   3.811  0.00  0.00    -0.004 C 
ATOM      6  C   UNL     1       5.278  -9.686   4.823  0.00  0.00    -0.010 C 
ATOM      7  C   UNL     1       5.617 -11.176   4.919  0.00  0.00    -0.082 C 
ATOM      8  N   UNL     1       6.026 -11.672   3.599  0.00  0.00    +0.379 N 
ATOM      9  C   UNL     1       4.907 -11.565   2.655  0.00  0.00    -0.082 C 
ATOM     10  C   UNL     1       4.538 -10.091   2.464  0.00  0.00    -0.010 C 
ATOM     11  C   UNL     1       0.554  -9.512   3.431  0.00  0.00    +0.247 C 
ATOM     12  O   UNL     1      -0.171  -8.637   2.998  0.00  0.00    -0.270 OA
ATOM     13  H   UNL     1       6.803 -11.125   3.261  0.00  0.00    -0.086 HD
ATOM     14  H   UNL     1       6.307 -12.638   3.677  0.00  0.00    -0.086 HD
ENDROOT
BRANCH  11  15
ATOM     15  C   UNL     1       0.093 -10.914   3.446  0.00  0.00    +0.037 A 
ATOM     16  C   UNL     1       0.689 -11.838   4.307  0.00  0.00    +0.016 A 
ATOM     17  C   UNL     1       0.255 -13.145   4.317  0.00  0.00    +0.047 A 
ATOM     18  C   UNL     1      -0.774 -13.545   3.473  0.00  0.00    +0.130 A 
ATOM     19  C   UNL     1      -1.369 -12.628   2.614  0.00  0.00    +0.047 A 
ATOM     20  C   UNL     1      -0.945 -11.318   2.602  0.00  0.00    +0.016 A 
BRANCH  18  21
ATOM     21  O   UNL     1      -1.198 -14.834   3.485  0.00  0.00    -0.406 OA
BRANCH  21  22
ATOM     22  C   UNL     1      -2.259 -15.177   2.592  0.00  0.00    +0.575 C 
ATOM     23  F   UNL     1      -1.859 -14.926   1.275  0.00  0.00    -0.133 F 
ATOM     24  F   UNL     1      -2.568 -16.534   2.734  0.00  0.00    -0.133 F 
ATOM     25  F   UNL     1      -3.388 -14.407   2.891  0.00  0.00    -0.133 F 
ENDBRANCH  21  22
ENDBRANCH  18  21
ENDBRANCH  11  15
BRANCH   1  27
ATOM     26  N   UNL     1       5.192  -7.155   1.763  0.00  0.00    -0.311 N 
ATOM     27  C   UNL     1       3.992  -7.570   2.216  0.00  0.00    +0.218 C 
ATOM     28  O   UNL     1       3.039  -7.604   1.466  0.00  0.00    -0.275 OA
ATOM     29  H   UNL     1       5.954  -7.129   2.363  0.00  0.00    +0.149 HD
BRANCH  26  30
ATOM     30  C   UNL     1       5.345  -6.745   0.365  0.00  0.00    +0.139 C 
BRANCH  30  34
ATOM     31  C   UNL     1       9.392  -5.566  -0.337  0.00  0.00    +0.046 A 
ATOM     32  C   UNL     1       9.010  -6.888  -0.524  0.00  0.00    +0.026 A 
ATOM     33  C   UNL     1       7.702  -7.266  -0.296  0.00  0.00    +0.007 A 
ATOM     34  C   UNL     1       6.772  -6.329   0.118  0.00  0.00    -0.030 A 
ATOM     35  C   UNL     1       7.149  -5.012   0.304  0.00  0.00    +0.007 A 
ATOM     36  C   UNL     1       8.458  -4.629   0.083  0.00  0.00    +0.026 A 
BRANCH  31  40
ATOM     37  C   UNL     1      12.530  -3.942  -0.730  0.00  0.00    +0.019 A 
ATOM     38  C   UNL     1      12.854  -5.266  -1.089  0.00  0.00    +0.019 A 
ATOM     39  C   UNL     1      11.729  -6.002  -0.981  0.00  0.00    +0.091 A 
ATOM     40  N   UNL     1      10.720  -5.179  -0.568  0.00  0.00    -0.323 N 
ATOM     41  C   UNL     1      11.220  -3.917  -0.416  0.00  0.00    +0.091 A 
ENDBRANCH  31  40
ENDBRANCH  30  34
ENDBRANCH  26  30
ENDBRANCH   1  27
TORSDOF 7
