REMARK  Name = ZINC38901504
REMARK  8 active torsions:
REMARK  status: ('A' for Active; 'I' for Inactive)
REMARK    1  A    between atoms: C_1  and  C_2
REMARK    2  A    between atoms: C_7  and  C_8
REMARK    3  A    between atoms: C_8  and  C_10
REMARK    4  A    between atoms: C_8  and  N_16
REMARK    5  A    between atoms: C_17  and  C_19
REMARK    6  A    between atoms: N_24  and  C_26
REMARK    7  A    between atoms: C_26  and  C_27
REMARK    8  A    between atoms: C_29  and  C_32
REMARK                            x       y       z     vdW  Elec       q    Type
REMARK                         _______ _______ _______ _____ _____    ______ ____
ROOT
ATOM      1  C   UNL     1      -2.205  -1.919   4.917  0.00  0.00    +0.058 C 
ATOM      2  C   UNL     1      -1.712  -3.342   4.639  0.00  0.00    +0.009 C 
ATOM      3  C   UNL     1      -2.253  -4.280   5.722  0.00  0.00    -0.018 C 
ATOM      4  C   UNL     1      -3.781  -4.191   5.750  0.00  0.00    -0.078 C 
ATOM      5  N   UNL     1      -4.188  -2.812   6.046  0.00  0.00    +0.386 N 
ATOM      6  C   UNL     1      -3.735  -1.917   4.975  0.00  0.00    -0.065 C 
ATOM      7  H   UNL     1      -3.779  -2.522   6.921  0.00  0.00    -0.081 HD
ENDROOT
BRANCH   1   9
ATOM      8  N   UNL     1      -0.425  -0.847   3.576  0.00  0.00    -0.304 N 
ATOM      9  C   UNL     1      -1.742  -1.002   3.815  0.00  0.00    +0.215 C 
ATOM     10  O   UNL     1      -2.555  -0.403   3.143  0.00  0.00    -0.276 OA
ATOM     11  H   UNL     1       0.225  -1.326   4.113  0.00  0.00    +0.150 HD
BRANCH   8  12
ATOM     12  C   UNL     1       0.025   0.045   2.504  0.00  0.00    +0.134 C 
BRANCH  12  19
ATOM     13  C   UNL     1      -0.018   1.503   0.010  0.00  0.00    +0.044 C 
ATOM     14  C   UNL     1       0.002  -0.004   0.002  0.00  0.00    -0.045 A 
ATOM     15  C   UNL     1       0.006  -0.689  -1.199  0.00  0.00    +0.004 A 
ATOM     16  C   UNL     1       0.025  -2.071  -1.207  0.00  0.00    +0.000 A 
ATOM     17  C   UNL     1       0.040  -2.768  -0.013  0.00  0.00    +0.000 A 
ATOM     18  C   UNL     1       0.037  -2.084   1.188  0.00  0.00    +0.006 A 
ATOM     19  C   UNL     1       0.023  -0.702   1.195  0.00  0.00    -0.020 A 
ENDBRANCH  12  19
BRANCH  12  20
ATOM     20  C   UNL     1       1.421   0.527   2.805  0.00  0.00    -0.023 A 
ATOM     21  C   UNL     1       2.354  -0.345   3.334  0.00  0.00    +0.006 A 
ATOM     22  C   UNL     1       3.635   0.097   3.610  0.00  0.00    +0.000 A 
ATOM     23  C   UNL     1       3.982   1.411   3.357  0.00  0.00    +0.000 A 
ATOM     24  C   UNL     1       3.049   2.283   2.827  0.00  0.00    +0.000 A 
ATOM     25  C   UNL     1       1.770   1.839   2.547  0.00  0.00    +0.006 A 
ENDBRANCH  12  20
ENDBRANCH   8  12
ENDBRANCH   1   9
BRANCH   5  26
ATOM     26  C   UNL     1      -5.652  -2.748   6.149  0.00  0.00    +0.022 C 
BRANCH  26  27
ATOM     27  C   UNL     1      -6.109  -3.562   7.331  0.00  0.00    +0.211 A 
ATOM     28  N   UNL     1      -6.264  -3.120   8.546  0.00  0.00    -0.193 NA
ATOM     29  C   UNL     1      -6.683  -4.114   9.349  0.00  0.00    +0.202 A 
ATOM     30  N   UNL     1      -6.798  -5.208   8.636  0.00  0.00    -0.056 NA
ATOM     31  O   UNL     1      -6.431  -4.862   7.309  0.00  0.00    -0.340 OA
BRANCH  29  32
ATOM     32  C   UNL     1      -6.968  -3.994  10.800  0.00  0.00    +0.023 A 
ATOM     33  C   UNL     1      -6.812  -2.767  11.443  0.00  0.00    +0.014 A 
ATOM     34  C   UNL     1      -7.079  -2.659  12.792  0.00  0.00    +0.039 A 
ATOM     35  C   UNL     1      -7.502  -3.768  13.508  0.00  0.00    +0.123 A 
ATOM     36  C   UNL     1      -7.658  -4.989  12.873  0.00  0.00    +0.039 A 
ATOM     37  C   UNL     1      -7.399  -5.105  11.523  0.00  0.00    +0.014 A 
ATOM     38  F   UNL     1      -7.762  -3.658  14.829  0.00  0.00    -0.205 F 
ENDBRANCH  29  32
ENDBRANCH  26  27
ENDBRANCH   5  26
TORSDOF 7
