REMARK  Name = ZINC09109462
REMARK  10 active torsions:
REMARK  status: ('A' for Active; 'I' for Inactive)
REMARK    1  A    between atoms: C_1  and  C_2
REMARK    2  A    between atoms: C_5  and  N_9
REMARK    3  A    between atoms: C_6  and  C_8
REMARK    4  A    between atoms: C_12  and  C_18
REMARK    5  A    between atoms: C_13  and  O_17
REMARK    6  A    between atoms: C_15  and  O_16
REMARK    7  A    between atoms: C_22  and  O_30
REMARK    8  A    between atoms: C_23  and  O_28
REMARK    9  A    between atoms: O_28  and  C_29
REMARK   10  A    between atoms: O_30  and  C_31
REMARK                            x       y       z     vdW  Elec       q    Type
REMARK                         _______ _______ _______ _____ _____    ______ ____
ROOT
ATOM      1  N   UNL     1       3.318  -2.749  -3.168  0.00  0.00    -0.230 N 
ATOM      2  C   UNL     1       3.415  -1.683  -2.347  0.00  0.00    +0.267 A 
ATOM      3  O   UNL     1       3.367  -0.548  -2.793  0.00  0.00    -0.267 OA
ATOM      4  C   UNL     1       3.578  -1.902  -0.973  0.00  0.00    +0.069 A 
ATOM      5  C   UNL     1       3.622  -3.205  -0.508  0.00  0.00    +0.224 A 
ATOM      6  N   UNL     1       3.514  -4.222  -1.371  0.00  0.00    -0.161 NA
ATOM      7  C   UNL     1       3.367  -4.010  -2.659  0.00  0.00    +0.306 A 
ENDROOT
BRANCH   4   8
ATOM      8  C   UNL     1       3.697  -0.742  -0.019  0.00  0.00    +0.001 C 
ATOM      9  C   UNL     1       2.406   0.034  -0.016  0.00  0.00    -0.050 A 
ATOM     10  C   UNL     1       1.212  -0.673  -0.011  0.00  0.00    +0.052 A 
ATOM     11  C   UNL     1       0.002  -0.004   0.002  0.00  0.00    +0.162 A 
ATOM     12  C   UNL     1      -0.017   1.388   0.010  0.00  0.00    +0.162 A 
ATOM     13  C   UNL     1       1.176   2.089   0.002  0.00  0.00    +0.053 A 
ATOM     14  C   UNL     1       2.387   1.413  -0.013  0.00  0.00    -0.044 A 
ATOM     15  C   UNL     1       3.659   2.222  -0.030  0.00  0.00    +0.016 C 
ATOM     16  C   UNL     1       4.842   1.342   0.375  0.00  0.00    -0.077 C 
ATOM     17  N   UNL     1       4.815   0.114  -0.440  0.00  0.00    +0.387 N 
ATOM     18  H   UNL     1       4.698   0.364  -1.429  0.00  0.00    -0.085 HD
ATOM     19  H   UNL     1       5.698  -0.395  -0.318  0.00  0.00    -0.085 HD
BRANCH  12  20
ATOM     20  O   UNL     1      -1.202   2.055   0.019  0.00  0.00    -0.491 OA
ATOM     21  C   UNL     1      -1.142   3.483   0.026  0.00  0.00    +0.277 C 
ENDBRANCH  12  20
BRANCH  11  22
ATOM     22  O   UNL     1      -1.165  -0.703   0.007  0.00  0.00    -0.491 OA
ATOM     23  C   UNL     1      -1.067  -2.128  -0.002  0.00  0.00    +0.277 C 
ENDBRANCH  11  22
ENDBRANCH   4   8
BRANCH   1  28
ATOM     24  C   UNL     1       2.679  -1.970  -8.753  0.00  0.00    +0.044 C 
ATOM     25  C   UNL     1       2.849  -2.177  -7.270  0.00  0.00    -0.050 A 
ATOM     26  C   UNL     1       1.736  -2.263  -6.454  0.00  0.00    +0.005 A 
ATOM     27  C   UNL     1       1.888  -2.453  -5.094  0.00  0.00    +0.027 A 
ATOM     28  C   UNL     1       3.160  -2.557  -4.548  0.00  0.00    +0.057 A 
ATOM     29  C   UNL     1       4.275  -2.466  -5.369  0.00  0.00    -0.026 A 
ATOM     30  C   UNL     1       4.117  -2.281  -6.729  0.00  0.00    +0.008 A 
ATOM     31  C   UNL     1       5.658  -2.572  -4.779  0.00  0.00    +0.046 C 
ENDBRANCH   1  28
BRANCH   7  32
ATOM     32  O   UNL     1       3.263  -5.064  -3.494  0.00  0.00    -0.479 OA
ATOM     33  H   UNL     1       3.302  -5.944  -3.097  0.00  0.00    +0.295 HD
ENDBRANCH   7  32
BRANCH   5  34
ATOM     34  O   UNL     1       3.772  -3.450   0.814  0.00  0.00    -0.492 OA
ATOM     35  H   UNL     1       3.791  -4.389   1.041  0.00  0.00    +0.294 HD
ENDBRANCH   5  34
TORSDOF 6
