REMARK  Name = ZINC06465623
REMARK  4 active torsions:
REMARK  status: ('A' for Active; 'I' for Inactive)
REMARK    1  A    between atoms: C_1  and  C_2
REMARK    2  A    between atoms: C_2  and  C_4
REMARK    3  A    between atoms: C_2  and  S_16
REMARK    4  A    between atoms: S_16  and  C_17
REMARK                            x       y       z     vdW  Elec       q    Type
REMARK                         _______ _______ _______ _____ _____    ______ ____
ROOT
ATOM      1  C   UNL     1      -1.200   1.623   0.017  0.00  0.00    +0.124 A 
ATOM      2  N   UNL     1      -0.011   0.966   0.007  0.00  0.00    -0.309 N 
ATOM      3  H   UNL     1       0.002  -0.004   0.002  0.00  0.00    +0.170 HD
ATOM      4  C   UNL     1       1.155   1.652  -0.000  0.00  0.00    +0.259 A 
ATOM      5  O   UNL     1       2.228   1.077  -0.013  0.00  0.00    -0.267 OA
ATOM      6  C   UNL     1       1.077   3.121   0.009  0.00  0.00    +0.065 A 
ATOM      7  C   UNL     1       2.218   3.920   0.002  0.00  0.00    +0.015 A 
ATOM      8  C   UNL     1       2.086   5.291   0.011  0.00  0.00    +0.001 A 
ATOM      9  C   UNL     1       0.828   5.880   0.027  0.00  0.00    +0.002 A 
ATOM     10  C   UNL     1      -0.312   5.108   0.033  0.00  0.00    +0.028 A 
ATOM     11  C   UNL     1      -0.204   3.716   0.024  0.00  0.00    +0.078 A 
ATOM     12  N   UNL     1      -1.301   2.917   0.030  0.00  0.00    -0.233 NA
ENDROOT
BRANCH   1  14
ATOM     13  C   UNL     1      -2.971   0.645  -1.418  0.00  0.00    +0.027 C 
ATOM     14  C   UNL     1      -2.467   0.807   0.018  0.00  0.00    +0.116 C 
BRANCH  14  15
ATOM     15  S   UNL     1      -2.135  -0.824   0.728  0.00  0.00    -0.086 S 
BRANCH  15  16
ATOM     16  C   UNL     1      -3.767  -1.488   0.747  0.00  0.00    +0.159 A 
ATOM     17  N   UNL     1      -4.914  -0.946   0.359  0.00  0.00    -0.135 NA
ATOM     18  N   UNL     1      -6.006  -1.572   0.440  0.00  0.00    -0.149 NA
ATOM     19  C   UNL     1      -6.079  -2.796   0.923  0.00  0.00    +0.182 A 
ATOM     20  S   UNL     1      -4.354  -3.086   1.303  0.00  0.00    -0.048 S 
ENDBRANCH  15  16
ENDBRANCH  14  15
ENDBRANCH   1  14
TORSDOF 3
