REMARK  Name = ZINC13129385
REMARK  12 active torsions:
REMARK  status: ('A' for Active; 'I' for Inactive)
REMARK    1  A    between atoms: C_1  and  C_2
REMARK    2  A    between atoms: C_6  and  C_35
REMARK    3  A    between atoms: C_7  and  O_8
REMARK    4  A    between atoms: O_8  and  C_9
REMARK    5  A    between atoms: C_9  and  C_10
REMARK    6  A    between atoms: N_12  and  C_13
REMARK    7  A    between atoms: C_19  and  N_21
REMARK    8  A    between atoms: C_22  and  C_24
REMARK    9  A    between atoms: C_24  and  O_25
REMARK   10  A    between atoms: O_25  and  C_26
REMARK   11  A    between atoms: C_27  and  C_34
REMARK   12  A    between atoms: C_31  and  C_32
REMARK                            x       y       z     vdW  Elec       q    Type
REMARK                         _______ _______ _______ _____ _____    ______ ____
ROOT
ATOM      1  C   UNL     1      -0.013   1.086   0.008  0.00  0.00    +0.093 C 
ATOM      2  C   UNL     1      -0.729   1.579   1.267  0.00  0.00    +0.024 C 
ATOM      3  C   UNL     1       0.011   1.072   2.506  0.00  0.00    +0.002 C 
ATOM      4  C   UNL     1       1.446   1.602   2.495  0.00  0.00    +0.002 C 
ATOM      5  C   UNL     1       2.163   1.109   1.237  0.00  0.00    +0.024 C 
ATOM      6  C   UNL     1       1.423   1.615  -0.003  0.00  0.00    +0.093 C 
ENDROOT
BRANCH   1   9
ATOM      7  C   UNL     1      -1.773   0.883  -1.664  0.00  0.00    +0.251 C 
ATOM      8  O   UNL     1      -2.134  -0.139  -1.118  0.00  0.00    -0.272 OA
ATOM      9  N   UNL     1      -0.721   1.571  -1.179  0.00  0.00    -0.308 N 
ATOM     10  H   UNL     1      -0.433   2.388  -1.615  0.00  0.00    +0.149 HD
BRANCH   7  11
ATOM     11  C   UNL     1      -2.502   1.382  -2.885  0.00  0.00    +0.324 C 
BRANCH  11  12
ATOM     12  O   UNL     1      -3.571   0.487  -3.201  0.00  0.00    -0.482 OA
BRANCH  12  19
ATOM     13  C   UNL     1      -5.851   2.099  -2.772  0.00  0.00    +0.047 C 
ATOM     14  C   UNL     1      -5.465   1.582  -4.134  0.00  0.00    -0.007 A 
ATOM     15  C   UNL     1      -6.237   1.897  -5.236  0.00  0.00    +0.027 A 
ATOM     16  C   UNL     1      -5.886   1.419  -6.486  0.00  0.00    +0.042 A 
ATOM     17  C   UNL     1      -4.761   0.629  -6.636  0.00  0.00    +0.027 A 
ATOM     18  C   UNL     1      -3.984   0.316  -5.537  0.00  0.00    -0.007 A 
ATOM     19  C   UNL     1      -4.333   0.794  -4.283  0.00  0.00    +0.127 A 
ATOM     20  C   UNL     1      -2.758  -0.545  -5.701  0.00  0.00    +0.047 C 
ATOM     21 CL   UNL     1      -6.860   1.812  -7.869  0.00  0.00    -0.084 Cl
ENDBRANCH  12  19
ENDBRANCH  11  12
ENDBRANCH   7  11
ENDBRANCH   1   9
BRANCH   6  22
ATOM     22  N   UNL     1       2.108   1.143  -1.208  0.00  0.00    -0.308 N 
ATOM     23  C   UNL     1       3.151   1.837  -1.706  0.00  0.00    +0.251 C 
ATOM     24  O   UNL     1       3.522   2.852  -1.156  0.00  0.00    -0.272 OA
ATOM     25  H   UNL     1       1.812   0.331  -1.648  0.00  0.00    +0.149 HD
BRANCH  23  26
ATOM     26  C   UNL     1       3.857   1.351  -2.946  0.00  0.00    +0.324 C 
BRANCH  26  27
ATOM     27  O   UNL     1       4.919   2.249  -3.272  0.00  0.00    -0.482 OA
BRANCH  27  28
ATOM     28  C   UNL     1       5.661   1.953  -4.372  0.00  0.00    +0.127 A 
ATOM     29  C   UNL     1       6.795   1.164  -4.253  0.00  0.00    -0.007 A 
ATOM     30  C   UNL     1       7.545   0.861  -5.373  0.00  0.00    +0.027 A 
ATOM     31  C   UNL     1       7.171   1.352  -6.611  0.00  0.00    +0.042 A 
ATOM     32  C   UNL     1       6.043   2.144  -6.731  0.00  0.00    +0.027 A 
ATOM     33  C   UNL     1       5.287   2.445  -5.614  0.00  0.00    -0.007 A 
ATOM     34  C   UNL     1       4.059   3.308  -5.745  0.00  0.00    +0.047 C 
ATOM     35 CL   UNL     1       8.118   0.975  -8.016  0.00  0.00    -0.084 Cl
ATOM     36  C   UNL     1       7.206   0.633  -2.904  0.00  0.00    +0.047 C 
ENDBRANCH  27  28
ENDBRANCH  26  27
ENDBRANCH  23  26
ENDBRANCH   6  22
TORSDOF 8
