REMARK  Name = ZINC16363259
REMARK  11 active torsions:
REMARK  status: ('A' for Active; 'I' for Inactive)
REMARK    1  A    between atoms: C_1  and  C_2
REMARK    2  A    between atoms: C_4  and  O_28
REMARK    3  A    between atoms: C_5  and  C_9
REMARK    4  A    between atoms: C_6  and  O_8
REMARK    5  A    between atoms: C_9  and  C_10
REMARK    6  A    between atoms: C_9  and  C_19
REMARK    7  A    between atoms: C_13  and  O_17
REMARK    8  A    between atoms: O_17  and  C_18
REMARK    9  A    between atoms: C_20  and  O_27
REMARK   10  A    between atoms: C_22  and  C_26
REMARK   11  A    between atoms: C_24  and  O_25
REMARK                            x       y       z     vdW  Elec       q    Type
REMARK                         _______ _______ _______ _____ _____    ______ ____
ROOT
ATOM      1  C   UNL     1       1.401   1.921  -2.526  0.00  0.00    +0.100 C 
ENDROOT
BRANCH   1   6
ATOM      2  C   UNL     1      -0.375  -0.794   2.156  0.00  0.00    +0.088 C 
ATOM      3  C   UNL     1       0.095  -0.076   0.917  0.00  0.00    +0.134 A 
ATOM      4  N   UNL     1       0.782   1.040   1.046  0.00  0.00    -0.198 NA
ATOM      5  C   UNL     1       1.214   1.704  -0.022  0.00  0.00    +0.223 A 
ATOM      6  C   UNL     1       0.931   1.202  -1.287  0.00  0.00    +0.087 A 
ATOM      7  C   UNL     1       0.203   0.022  -1.381  0.00  0.00    +0.223 A 
ATOM      8  N   UNL     1      -0.198  -0.579  -0.265  0.00  0.00    -0.198 NA
BRANCH   7   9
ATOM      9  O   UNL     1      -0.098  -0.506  -2.592  0.00  0.00    -0.492 OA
ATOM     10  H   UNL     1       0.566  -1.124  -2.928  0.00  0.00    +0.294 HD
ENDBRANCH   7   9
BRANCH   5  11
ATOM     11  O   UNL     1       1.921   2.852   0.120  0.00  0.00    -0.492 OA
ATOM     12  H   UNL     1       1.372   3.637   0.251  0.00  0.00    +0.294 HD
ENDBRANCH   5  11
ENDBRANCH   1   6
BRANCH   1  13
ATOM     13  C   UNL     1       1.557   3.389  -2.226  0.00  0.00    -0.034 A 
ATOM     14  C   UNL     1       2.773   3.878  -1.784  0.00  0.00    +0.008 A 
ATOM     15  C   UNL     1       2.921   5.224  -1.512  0.00  0.00    +0.047 A 
ATOM     16  C   UNL     1       1.845   6.085  -1.674  0.00  0.00    +0.134 A 
ATOM     17  C   UNL     1       0.624   5.592  -2.113  0.00  0.00    +0.060 A 
ATOM     18  C   UNL     1       0.483   4.245  -2.388  0.00  0.00    +0.023 A 
ATOM     19 BR   UNL     1      -0.844   6.763  -2.335  0.00  0.00    -0.047 Br
BRANCH  16  20
ATOM     20  O   UNL     1       1.987   7.410  -1.402  0.00  0.00    -0.494 OA
ATOM     21  C   UNL     1       3.272   7.846  -0.954  0.00  0.00    +0.277 C 
ENDBRANCH  16  20
ENDBRANCH   1  13
BRANCH   1  22
ATOM     22  C   UNL     1       2.726   1.354  -2.964  0.00  0.00    +0.087 A 
ATOM     23  C   UNL     1       3.744   1.128  -2.044  0.00  0.00    +0.223 A 
ATOM     24  N   UNL     1       4.898   0.622  -2.469  0.00  0.00    -0.198 NA
ATOM     25  C   UNL     1       5.086   0.345  -3.743  0.00  0.00    +0.134 A 
ATOM     26  N   UNL     1       4.148   0.549  -4.645  0.00  0.00    -0.198 NA
ATOM     27  C   UNL     1       2.965   1.048  -4.299  0.00  0.00    +0.223 A 
ATOM     28  C   UNL     1       6.412  -0.223  -4.181  0.00  0.00    +0.088 C 
BRANCH  27  29
ATOM     29  O   UNL     1       2.006   1.256  -5.234  0.00  0.00    -0.492 OA
ATOM     30  H   UNL     1       2.034   2.134  -5.637  0.00  0.00    +0.294 HD
ENDBRANCH  27  29
BRANCH  23  31
ATOM     31  O   UNL     1       3.561   1.415  -0.732  0.00  0.00    -0.492 OA
ATOM     32  H   UNL     1       3.301   0.654  -0.195  0.00  0.00    +0.294 HD
ENDBRANCH  23  31
ENDBRANCH   1  22
TORSDOF 8
