REMARK  Name = ZINC36558465
REMARK  12 active torsions:
REMARK  status: ('A' for Active; 'I' for Inactive)
REMARK    1  A    between atoms: C_1  and  C_2
REMARK    2  A    between atoms: C_2  and  C_3
REMARK    3  A    between atoms: C_3  and  C_5
REMARK    4  A    between atoms: C_3  and  C_11
REMARK    5  A    between atoms: N_13  and  C_14
REMARK    6  A    between atoms: N_13  and  C_21
REMARK    7  A    between atoms: C_14  and  C_15
REMARK    8  A    between atoms: C_18  and  C_20
REMARK    9  A    between atoms: C_21  and  C_23
REMARK   10  A    between atoms: C_21  and  C_30
REMARK   11  A    between atoms: C_28  and  O_29
REMARK   12  A    between atoms: N_32  and  C_33
REMARK                            x       y       z     vdW  Elec       q    Type
REMARK                         _______ _______ _______ _____ _____    ______ ____
ROOT
ATOM      1  C   UNL     1      -2.165   0.073  -0.969  0.00  0.00    +0.224 C 
ATOM      2  O   UNL     1      -2.850  -0.741  -1.551  0.00  0.00    -0.275 OA
ATOM      3  N   UNL     1      -2.104   1.344  -1.413  0.00  0.00    -0.278 N 
ENDROOT
BRANCH   1   4
ATOM      4  C   UNL     1      -1.383  -0.337   0.252  0.00  0.00    +0.105 C 
BRANCH   4   5
ATOM      5  C   UNL     1      -2.265  -0.242   1.470  0.00  0.00    -0.036 A 
ATOM      6  C   UNL     1      -3.419  -1.000   1.549  0.00  0.00    +0.004 A 
ATOM      7  C   UNL     1      -4.228  -0.913   2.666  0.00  0.00    +0.000 A 
ATOM      8  C   UNL     1      -3.884  -0.068   3.704  0.00  0.00    +0.000 A 
ATOM      9  C   UNL     1      -2.730   0.689   3.626  0.00  0.00    +0.000 A 
ATOM     10  C   UNL     1      -1.919   0.599   2.511  0.00  0.00    +0.004 A 
ENDBRANCH   4   5
BRANCH   4  12
ATOM     11  C   UNL     1       0.074  -1.856  -1.094  0.00  0.00    +0.005 C 
ATOM     12  C   UNL     1      -0.896  -1.778   0.086  0.00  0.00    +0.014 C 
ENDBRANCH   4  12
ENDBRANCH   1   4
BRANCH   3  13
ATOM     13  C   UNL     1      -1.353   2.349  -0.656  0.00  0.00    +0.183 C 
BRANCH  13  14
ATOM     14  C   UNL     1       0.039   2.467  -1.221  0.00  0.00    +0.122 A 
ATOM     15  C   UNL     1       0.444   3.368  -2.134  0.00  0.00    +0.046 A 
ATOM     16  C   UNL     1       1.814   3.120  -2.375  0.00  0.00    +0.045 A 
ATOM     17  C   UNL     1       2.165   2.081  -1.595  0.00  0.00    +0.102 A 
ATOM     18  O   UNL     1       1.087   1.694  -0.894  0.00  0.00    -0.463 OA
ATOM     19  C   UNL     1       3.537   1.462  -1.517  0.00  0.00    +0.086 C 
ENDBRANCH  13  14
ENDBRANCH   3  13
BRANCH   3  20
ATOM     20  C   UNL     1      -2.787   1.720  -2.653  0.00  0.00    +0.196 C 
BRANCH  20  21
ATOM     21  C   UNL     1      -4.269   1.488  -2.500  0.00  0.00    +0.023 A 
ATOM     22  C   UNL     1      -4.860   0.386  -3.087  0.00  0.00    +0.009 A 
ATOM     23  C   UNL     1      -6.219   0.172  -2.948  0.00  0.00    +0.001 A 
ATOM     24  C   UNL     1      -6.989   1.061  -2.221  0.00  0.00    +0.004 A 
ATOM     25  C   UNL     1      -6.403   2.164  -1.631  0.00  0.00    +0.046 A 
ATOM     26  C   UNL     1      -5.038   2.377  -1.765  0.00  0.00    +0.122 A 
BRANCH  26  27
ATOM     27  O   UNL     1      -4.458   3.459  -1.182  0.00  0.00    -0.506 OA
ATOM     28  H   UNL     1      -4.508   4.266  -1.712  0.00  0.00    +0.292 HD
ENDBRANCH  26  27
ENDBRANCH  20  21
BRANCH  20  29
ATOM     29  C   UNL     1      -2.262   0.882  -3.790  0.00  0.00    +0.238 C 
ATOM     30  O   UNL     1      -1.478  -0.016  -3.570  0.00  0.00    -0.273 OA
ATOM     31  N   UNL     1      -2.665   1.131  -5.052  0.00  0.00    -0.311 N 
ATOM     32  H   UNL     1      -3.235   1.894  -5.238  0.00  0.00    +0.149 HD
BRANCH  31  33
ATOM     33  C   UNL     1      -2.241   0.250  -6.143  0.00  0.00    +0.073 C 
ATOM     34  C   UNL     1      -0.867   0.690  -6.651  0.00  0.00    +0.022 C 
ATOM     35  C   UNL     1      -0.425  -0.230  -7.790  0.00  0.00    +0.002 C 
ATOM     36  C   UNL     1      -1.439  -0.151  -8.932  0.00  0.00    +0.000 C 
ATOM     37  C   UNL     1      -2.814  -0.592  -8.425  0.00  0.00    +0.002 C 
ATOM     38  C   UNL     1      -3.256   0.329  -7.285  0.00  0.00    +0.022 C 
ENDBRANCH  31  33
ENDBRANCH  20  29
ENDBRANCH   3  20
TORSDOF 10
