REMARK  Name = ZINC18074723
REMARK  9 active torsions:
REMARK  status: ('A' for Active; 'I' for Inactive)
REMARK    1  A    between atoms: C_1  and  O_2
REMARK    2  A    between atoms: O_2  and  C_3
REMARK    3  A    between atoms: C_6  and  C_9
REMARK    4  A    between atoms: C_9  and  C_11
REMARK    5  A    between atoms: C_9  and  C_28
REMARK    6  A    between atoms: C_11  and  N_12
REMARK    7  A    between atoms: C_13  and  C_15
REMARK    8  A    between atoms: C_15  and  N_16
REMARK    9  A    between atoms: C_17  and  C_23
REMARK                            x       y       z     vdW  Elec       q    Type
REMARK                         _______ _______ _______ _____ _____    ______ ____
ROOT
ATOM      1  C   UNL     1      -0.281   1.264  -4.889  0.00  0.00    +0.068 C 
ENDROOT
BRANCH   1   2
ATOM      2  C   UNL     1       1.091   1.884  -4.962  0.00  0.00    -0.013 A 
ATOM      3  C   UNL     1       1.372   3.195  -5.021  0.00  0.00    +0.088 A 
ATOM      4  N   UNL     1       2.727   3.380  -5.077  0.00  0.00    -0.360 N 
ATOM      5  H   UNL     1       3.171   4.241  -5.124  0.00  0.00    +0.165 HD
ATOM      6  C   UNL     1       3.367   2.161  -5.055  0.00  0.00    +0.047 A 
ATOM      7  C   UNL     1       2.370   1.170  -4.976  0.00  0.00    +0.003 A 
ATOM      8  C   UNL     1       2.729  -0.178  -4.933  0.00  0.00    +0.010 A 
ATOM      9  C   UNL     1       4.050  -0.529  -4.964  0.00  0.00    +0.001 A 
ATOM     10  C   UNL     1       5.037   0.444  -5.038  0.00  0.00    +0.002 A 
ATOM     11  C   UNL     1       4.704   1.780  -5.089  0.00  0.00    +0.026 A 
ENDBRANCH   1   2
BRANCH   1  15
ATOM     12  C   UNL     1      -2.537   2.383  -8.341  0.00  0.00    +0.120 A 
ATOM     13  C   UNL     1      -2.285   1.044  -8.080  0.00  0.00    +0.046 A 
ATOM     14  C   UNL     1      -1.555   0.685  -6.963  0.00  0.00    +0.008 A 
ATOM     15  C   UNL     1      -1.076   1.659  -6.106  0.00  0.00    -0.038 A 
ATOM     16  C   UNL     1      -1.331   2.994  -6.362  0.00  0.00    +0.008 A 
ATOM     17  C   UNL     1      -2.054   3.358  -7.481  0.00  0.00    +0.046 A 
BRANCH  12  19
ATOM     18  C   UNL     1      -3.475   4.136  -9.645  0.00  0.00    +0.277 C 
ATOM     19  O   UNL     1      -3.255   2.739  -9.439  0.00  0.00    -0.495 OA
ENDBRANCH  12  19
ENDBRANCH   1  15
BRANCH   1  20
ATOM     20  C   UNL     1      -0.997   1.758  -3.630  0.00  0.00    +0.117 C 
BRANCH  20  21
ATOM     21  N   UNL     1      -0.288   1.272  -2.443  0.00  0.00    -0.313 N 
ATOM     22  C   UNL     1      -0.742   1.585  -1.213  0.00  0.00    +0.233 C 
ATOM     23  O   UNL     1      -1.736   2.268  -1.088  0.00  0.00    -0.274 OA
ATOM     24  H   UNL     1       0.507   0.726  -2.543  0.00  0.00    +0.149 HD
BRANCH  22  25
ATOM     25  C   UNL     1      -0.013   1.086   0.008  0.00  0.00    +0.221 C 
BRANCH  25  26
ATOM     26  N   UNL     1      -0.698   1.558   1.213  0.00  0.00    -0.294 N 
ATOM     27  C   UNL     1      -1.712   0.896   1.881  0.00  0.00    +0.170 A 
ATOM     28  N   UNL     1      -2.074   1.620   2.906  0.00  0.00    -0.153 NA
ATOM     29  N   UNL     1      -1.288   2.780   2.917  0.00  0.00    -0.254 N 
ATOM     30  H   UNL     1      -1.337   3.500   3.565  0.00  0.00    +0.191 HD
ATOM     31  C   UNL     1      -0.446   2.711   1.865  0.00  0.00    +0.176 A 
ATOM     32  S   UNL     1       0.730   3.878   1.434  0.00  0.00    -0.011 S 
BRANCH  27  33
ATOM     33  C   UNL     1      -2.285  -0.406   1.500  0.00  0.00    +0.056 A 
ATOM     34  C   UNL     1      -3.076  -1.250   2.237  0.00  0.00    +0.019 A 
ATOM     35  C   UNL     1      -3.498  -2.429   1.665  0.00  0.00    +0.008 A 
ATOM     36  C   UNL     1      -3.121  -2.719   0.392  0.00  0.00    +0.046 A 
ATOM     37  S   UNL     1      -2.140  -1.292  -0.043  0.00  0.00    -0.094 S 
ENDBRANCH  27  33
ENDBRANCH  25  26
ENDBRANCH  22  25
ENDBRANCH  20  21
ENDBRANCH   1  20
TORSDOF 8
