REMARK  Name = ZINC55084044
REMARK  5 active torsions:
REMARK  status: ('A' for Active; 'I' for Inactive)
REMARK    1  A    between atoms: C_1  and  C_2
REMARK    2  A    between atoms: C_2  and  C_3
REMARK    3  A    between atoms: C_3  and  C_5
REMARK    4  A    between atoms: C_3  and  N_6
REMARK    5  A    between atoms: C_18  and  C_21
REMARK                            x       y       z     vdW  Elec       q    Type
REMARK                         _______ _______ _______ _____ _____    ______ ____
ROOT
ATOM      1  N   UNL     1       0.567   0.497  -2.477  0.00  0.00    +0.383 N 
ATOM      2  C   UNL     1       1.339  -0.004  -3.621  0.00  0.00    -0.059 C 
ATOM      3  C   UNL     1       0.384  -0.348  -4.769  0.00  0.00    +0.091 C 
ATOM      4  N   UNL     1      -0.438   0.836  -5.063  0.00  0.00    -0.289 N 
ATOM      5  C   UNL     1      -1.119   1.502  -3.942  0.00  0.00    +0.091 C 
ATOM      6  C   UNL     1      -0.093   1.759  -2.834  0.00  0.00    -0.059 C 
ATOM      7  C   UNL     1      -0.563   1.297  -6.323  0.00  0.00    +0.305 C 
ATOM      8  O   UNL     1      -1.100   2.368  -6.528  0.00  0.00    -0.252 OA
ATOM      9  N   UNL     1      -0.092   0.571  -7.356  0.00  0.00    -0.285 N 
ATOM     10  C   UNL     1       0.136  -0.874  -7.214  0.00  0.00    +0.109 C 
ATOM     11  C   UNL     1      -0.611  -1.604  -8.334  0.00  0.00    +0.020 C 
ATOM     12  C   UNL     1      -0.181  -1.030  -9.686  0.00  0.00    +0.018 C 
ATOM     13  C   UNL     1      -0.546   0.455  -9.751  0.00  0.00    +0.119 C 
ATOM     14  C   UNL     1       0.196   1.207  -8.649  0.00  0.00    +0.124 C 
ATOM     15  H   UNL     1      -0.131  -0.185  -2.220  0.00  0.00    -0.081 HD
ENDROOT
BRANCH  13  16
ATOM     16  C   UNL     1      -0.153   1.011 -11.096  0.00  0.00    +0.361 C 
ATOM     17  O   UNL     1      -0.884   1.802 -11.666  0.00  0.00    -0.246 OA
ATOM     18  O   UNL     1       0.897   0.669 -11.613  0.00  0.00    -0.246 OA
ENDBRANCH  13  16
BRANCH   1  19
ATOM     19  C   UNL     1       1.470   0.723  -1.341  0.00  0.00    -0.072 C 
ATOM     20  C   UNL     1       2.614   1.643  -1.773  0.00  0.00    -0.013 C 
BRANCH  19  22
ATOM     21  C   UNL     1       0.912  -1.487  -0.319  0.00  0.00    +0.002 C 
ATOM     22  C   UNL     1       2.042  -0.615  -0.870  0.00  0.00    -0.019 C 
ENDBRANCH  19  22
ENDBRANCH   1  19
TORSDOF 3
