REMARK  Name = ZINC35744095
REMARK  11 active torsions:
REMARK  status: ('A' for Active; 'I' for Inactive)
REMARK    1  A    between atoms: C_1  and  C_2
REMARK    2  A    between atoms: C_2  and  C_4
REMARK    3  A    between atoms: C_2  and  N_8
REMARK    4  A    between atoms: C_4  and  C_6
REMARK    5  A    between atoms: C_4  and  O_7
REMARK    6  A    between atoms: N_8  and  C_9
REMARK    7  A    between atoms: N_8  and  C_15
REMARK    8  A    between atoms: C_9  and  C_10
REMARK    9  A    between atoms: C_15  and  C_16
REMARK   10  A    between atoms: N_28  and  C_31
REMARK   11  A    between atoms: C_31  and  C_32
REMARK                            x       y       z     vdW  Elec       q    Type
REMARK                         _______ _______ _______ _____ _____    ______ ____
ROOT
ATOM      1  C   UNL     1      -1.228   2.162  -0.165  0.00  0.00    +0.094 A 
ATOM      2  N   UNL     1      -1.627   3.232  -0.900  0.00  0.00    -0.312 N 
ATOM      3  H   UNL     1      -2.194   3.091  -1.675  0.00  0.00    +0.170 HD
ATOM      4  C   UNL     1      -1.253   4.483  -0.577  0.00  0.00    +0.260 A 
ATOM      5  O   UNL     1      -1.620   5.433  -1.247  0.00  0.00    -0.267 OA
ATOM      6  C   UNL     1      -0.415   4.682   0.570  0.00  0.00    +0.075 A 
ATOM      7  C   UNL     1       0.112   5.934   1.105  0.00  0.00    -0.020 A 
ATOM      8  C   UNL     1       0.887   5.852   2.209  0.00  0.00    +0.010 A 
ATOM      9  S   UNL     1       0.957   4.125   2.593  0.00  0.00    -0.072 S 
ATOM     10  C   UNL     1      -0.055   3.517   1.267  0.00  0.00    +0.116 A 
ATOM     11  N   UNL     1      -0.470   2.311   0.888  0.00  0.00    -0.229 NA
ATOM     12  C   UNL     1       1.536   6.992   2.931  0.00  0.00    +0.127 C 
ATOM     13  N   UNL     1       1.495   8.177   2.053  0.00  0.00    -0.293 NA
ATOM     14  C   UNL     1       0.142   8.376   1.516  0.00  0.00    +0.090 C 
ATOM     15  C   UNL     1      -0.177   7.296   0.479  0.00  0.00    +0.052 C 
ENDROOT
BRANCH   1  16
ATOM     16  C   UNL     1      -1.674   0.780  -0.567  0.00  0.00    -0.002 C 
BRANCH  16  17
ATOM     17  N   UNL     1      -0.963  -0.218   0.243  0.00  0.00    +0.392 N 
ATOM     18  H   UNL     1      -0.680   0.198   1.118  0.00  0.00    -0.080 HD
BRANCH  17  20
ATOM     19  C   UNL     1       0.109  -0.287  -1.958  0.00  0.00    -0.011 C 
ATOM     20  C   UNL     1       0.226  -0.683  -0.485  0.00  0.00    -0.042 C 
BRANCH  20  21
ATOM     21  C   UNL     1       1.477  -0.041   0.118  0.00  0.00    +0.098 C 
ATOM     22  C   UNL     1       1.571  -0.404   1.602  0.00  0.00    +0.036 C 
BRANCH  21  23
ATOM     23  O   UNL     1       1.398   1.379  -0.021  0.00  0.00    -0.394 OA
ATOM     24  H   UNL     1       2.195   1.847   0.264  0.00  0.00    +0.210 HD
ENDBRANCH  21  23
ENDBRANCH  20  21
ENDBRANCH  17  20
BRANCH  17  25
ATOM     25  C   UNL     1      -1.851  -1.358   0.507  0.00  0.00    -0.002 C 
BRANCH  25  26
ATOM     26  C   UNL     1      -1.177  -2.310   1.461  0.00  0.00    +0.089 A 
ATOM     27  C   UNL     1      -1.323  -2.320   2.798  0.00  0.00    +0.042 A 
ATOM     28  C   UNL     1      -0.515  -3.370   3.291  0.00  0.00    +0.041 A 
ATOM     29  C   UNL     1       0.076  -3.940   2.225  0.00  0.00    +0.195 A 
ATOM     30  O   UNL     1      -0.333  -3.298   1.119  0.00  0.00    -0.470 OA
ENDBRANCH  25  26
ENDBRANCH  17  25
ENDBRANCH  16  17
ENDBRANCH   1  16
BRANCH  13  31
ATOM     31  C   UNL     1       1.961   9.375   2.764  0.00  0.00    +0.120 C 
BRANCH  31  32
ATOM     32  C   UNL     1       3.424   9.225   3.096  0.00  0.00    -0.033 A 
ATOM     33  C   UNL     1       3.805   8.644   4.290  0.00  0.00    +0.005 A 
ATOM     34  C   UNL     1       5.147   8.507   4.595  0.00  0.00    +0.000 A 
ATOM     35  C   UNL     1       6.106   8.950   3.704  0.00  0.00    +0.000 A 
ATOM     36  C   UNL     1       5.725   9.531   2.509  0.00  0.00    +0.000 A 
ATOM     37  C   UNL     1       4.383   9.664   2.203  0.00  0.00    +0.005 A 
ENDBRANCH  31  32
ENDBRANCH  13  31
TORSDOF 9
