REMARK  Name = ZINC66705087
REMARK  6 active torsions:
REMARK  status: ('A' for Active; 'I' for Inactive)
REMARK    1  A    between atoms: C_1  and  C_2
REMARK    2  A    between atoms: C_2  and  C_7
REMARK    3  A    between atoms: C_7  and  N_8
REMARK    4  A    between atoms: N_11  and  N_12
REMARK    5  A    between atoms: C_13  and  C_15
REMARK    6  A    between atoms: N_19  and  C_20
REMARK                            x       y       z     vdW  Elec       q    Type
REMARK                         _______ _______ _______ _____ _____    ______ ____
ROOT
ATOM      1  N   UNL     1      -2.402   0.777  -0.751  0.00  0.00    -0.298 N 
ATOM      2  C   UNL     1      -3.704   0.491  -0.948  0.00  0.00    +0.316 C 
ATOM      3  O   UNL     1      -4.349  -0.042  -0.066  0.00  0.00    -0.251 OA
ATOM      4  N   UNL     1      -4.291   0.796  -2.122  0.00  0.00    -0.218 N 
ATOM      5  H   UNL     1      -1.887   1.202  -1.455  0.00  0.00    +0.150 HD
ATOM      6  H   UNL     1      -5.228   0.590  -2.264  0.00  0.00    +0.174 HD
ENDROOT
BRANCH   4   7
ATOM      7  N   UNL     1      -3.547   1.410  -3.139  0.00  0.00    -0.228 N 
ATOM      8  C   UNL     1      -4.134   1.715  -4.313  0.00  0.00    +0.277 C 
ATOM      9  O   UNL     1      -5.279   1.365  -4.530  0.00  0.00    -0.267 OA
ATOM     10  H   UNL     1      -2.610   1.615  -2.997  0.00  0.00    +0.173 HD
BRANCH   8  11
ATOM     11  C   UNL     1      -3.392   2.467  -5.330  0.00  0.00    +0.107 A 
ATOM     12  C   UNL     1      -2.070   2.853  -5.256  0.00  0.00    +0.047 A 
ATOM     13  C   UNL     1      -1.776   3.544  -6.436  0.00  0.00    +0.036 A 
ATOM     14  C   UNL     1      -2.900   3.567  -7.194  0.00  0.00    +0.101 A 
ATOM     15  N   UNL     1      -3.887   2.912  -6.535  0.00  0.00    -0.345 N 
ATOM     16  C   UNL     1      -5.254   2.713  -7.023  0.00  0.00    +0.149 C 
ATOM     17 BR   UNL     1      -0.109   4.310  -6.892  0.00  0.00    -0.049 Br
ENDBRANCH   8  11
ENDBRANCH   4   7
BRANCH   1  18
ATOM     18  C   UNL     1      -1.764   0.445   0.525  0.00  0.00    +0.112 C 
BRANCH  18  20
ATOM     19  C   UNL     1      -0.193   2.377   0.233  0.00  0.00    +0.013 C 
ATOM     20  C   UNL     1      -0.295   0.872   0.487  0.00  0.00    -0.016 C 
ATOM     21  C   UNL     1       0.453   0.097  -0.618  0.00  0.00    +0.008 C 
ATOM     22  C   UNL     1       1.854  -0.170  -0.014  0.00  0.00    +0.001 C 
ATOM     23  C   UNL     1       1.534  -0.466   1.473  0.00  0.00    +0.001 C 
ATOM     24  C   UNL     1       0.393   0.514   1.816  0.00  0.00    +0.008 C 
ENDBRANCH  18  20
ENDBRANCH   1  18
TORSDOF 4
