REMARK  Name = ZINC37136173
REMARK  6 active torsions:
REMARK  status: ('A' for Active; 'I' for Inactive)
REMARK    1  A    between atoms: C_1  and  C_2
REMARK    2  A    between atoms: C_7  and  N_10
REMARK    3  A    between atoms: N_10  and  C_11
REMARK    4  A    between atoms: C_14  and  N_18
REMARK    5  A    between atoms: N_18  and  S_19
REMARK    6  A    between atoms: S_19  and  C_22
REMARK                            x       y       z     vdW  Elec       q    Type
REMARK                         _______ _______ _______ _____ _____    ______ ____
ROOT
ATOM      1  C   UNL     1      -1.290  -3.619   2.175  0.00  0.00    +0.029 A 
ATOM      2  C   UNL     1      -0.173  -4.349   2.563  0.00  0.00    +0.025 A 
ATOM      3  C   UNL     1      -0.306  -5.675   2.925  0.00  0.00    +0.028 A 
ATOM      4  C   UNL     1      -1.556  -6.280   2.900  0.00  0.00    +0.066 A 
ATOM      5  C   UNL     1      -2.673  -5.551   2.512  0.00  0.00    +0.065 A 
ATOM      6  C   UNL     1      -2.540  -4.222   2.156  0.00  0.00    +0.044 A 
ATOM      7 CL   UNL     1      -4.235  -6.306   2.481  0.00  0.00    -0.082 Cl
ENDROOT
BRANCH   1   8
ATOM      8  N   UNL     1      -1.155  -2.275   1.810  0.00  0.00    -0.341 N 
ATOM      9  H   UNL     1      -1.935  -1.764   1.542  0.00  0.00    +0.146 HD
BRANCH   8  15
ATOM     10  C   UNL     1      -0.984   1.948   1.033  0.00  0.00    +0.007 C 
ATOM     11  C   UNL     1      -0.820   0.438   0.852  0.00  0.00    -0.012 C 
ATOM     12  C   UNL     1      -0.099   0.158  -0.468  0.00  0.00    +0.003 C 
ATOM     13  C   UNL     1       0.066  -1.352  -0.650  0.00  0.00    +0.002 C 
ATOM     14  C   UNL     1       0.887  -1.919   0.510  0.00  0.00    +0.022 C 
ATOM     15  C   UNL     1       0.165  -1.639   1.830  0.00  0.00    +0.071 C 
ATOM     16  C   UNL     1       0.001  -0.129   2.012  0.00  0.00    +0.025 C 
ENDBRANCH   8  15
ENDBRANCH   1   8
BRANCH   4  17
ATOM     17  N   UNL     1      -1.690  -7.625   3.266  0.00  0.00    -0.219 N 
ATOM     18  H   UNL     1      -2.336  -8.189   2.812  0.00  0.00    +0.173 HD
BRANCH  17  19
ATOM     19  S   UNL     1      -0.746  -8.253   4.473  0.00  0.00    +0.040 S 
ATOM     20  O   UNL     1      -1.207  -9.588   4.636  0.00  0.00    -0.155 OA
ATOM     21  O   UNL     1       0.589  -7.993   4.063  0.00  0.00    -0.155 OA
ATOM     22  C   UNL     1      -1.152  -7.269   5.942  0.00  0.00    +0.218 C 
ENDBRANCH  17  19
ENDBRANCH   4  17
TORSDOF 4
