REMARK  Name = ZINC01375285
REMARK  14 active torsions:
REMARK  status: ('A' for Active; 'I' for Inactive)
REMARK    1  A    between atoms: C_1  and  C_2
REMARK    2  A    between atoms: C_2  and  C_3
REMARK    3  A    between atoms: C_3  and  C_5
REMARK    4  A    between atoms: C_3  and  N_19
REMARK    5  A    between atoms: N_9  and  C_10
REMARK    6  A    between atoms: C_10  and  C_11
REMARK    7  A    between atoms: C_14  and  O_17
REMARK    8  A    between atoms: O_17  and  C_18
REMARK    9  A    between atoms: N_19  and  C_20
REMARK   10  A    between atoms: N_19  and  C_30
REMARK   11  A    between atoms: C_20  and  C_21
REMARK   12  A    between atoms: C_30  and  C_31
REMARK   13  A    between atoms: C_34  and  C_44
REMARK   14  A    between atoms: C_36  and  C_43
REMARK                            x       y       z     vdW  Elec       q    Type
REMARK                         _______ _______ _______ _____ _____    ______ ____
ROOT
ATOM      1  N   UNL     1       2.316   0.172   1.073  0.00  0.00    -0.284 NA
ENDROOT
BRANCH   1   2
ATOM      2  C   UNL     1       1.085  -0.520   1.479  0.00  0.00    +0.127 C 
BRANCH   2   3
ATOM      3  C   UNL     1       0.601   0.045   2.790  0.00  0.00    +0.169 A 
ATOM      4  N   UNL     1       1.330   0.303   3.848  0.00  0.00    -0.112 NA
ATOM      5  N   UNL     1       0.553   0.774   4.761  0.00  0.00    -0.023 NA
ATOM      6  N   UNL     1      -0.653   0.824   4.313  0.00  0.00    -0.044 NA
ATOM      7  N   UNL     1      -0.664   0.387   3.099  0.00  0.00    -0.223 N 
BRANCH   7   8
ATOM      8  C   UNL     1      -1.833   0.281   2.222  0.00  0.00    +0.182 C 
BRANCH   8   9
ATOM      9  C   UNL     1      -2.551  -1.015   2.497  0.00  0.00    -0.026 A 
ATOM     10  C   UNL     1      -2.205  -2.157   1.798  0.00  0.00    +0.009 A 
ATOM     11  C   UNL     1      -2.862  -3.346   2.048  0.00  0.00    +0.046 A 
ATOM     12  C   UNL     1      -3.869  -3.394   3.001  0.00  0.00    +0.120 A 
ATOM     13  C   UNL     1      -4.213  -2.248   3.701  0.00  0.00    +0.046 A 
ATOM     14  C   UNL     1      -3.550  -1.062   3.451  0.00  0.00    +0.009 A 
BRANCH  12  15
ATOM     15  O   UNL     1      -4.516  -4.563   3.248  0.00  0.00    -0.495 OA
ATOM     16  C   UNL     1      -5.542  -4.539   4.243  0.00  0.00    +0.277 C 
ENDBRANCH  12  15
ENDBRANCH   8   9
ENDBRANCH   7   8
ENDBRANCH   2   3
BRANCH   2  18
ATOM     17  C   UNL     1       1.749  -2.611   0.285  0.00  0.00    +0.006 C 
ATOM     18  C   UNL     1       1.370  -2.014   1.642  0.00  0.00    +0.023 C 
ENDBRANCH   2  18
ENDBRANCH   1   2
BRANCH   1  19
ATOM     19  C   UNL     1       3.331   0.106   2.133  0.00  0.00    +0.120 C 
BRANCH  19  20
ATOM     20  C   UNL     1       4.684   0.431   1.554  0.00  0.00    -0.030 A 
ATOM     21  C   UNL     1       5.428  -0.560   0.942  0.00  0.00    +0.009 A 
ATOM     22  C   UNL     1       6.669  -0.267   0.409  0.00  0.00    +0.050 A 
ATOM     23  C   UNL     1       7.171   1.022   0.488  0.00  0.00    +0.166 A 
ATOM     24  C   UNL     1       6.422   2.020   1.105  0.00  0.00    +0.167 A 
ATOM     25  C   UNL     1       5.176   1.720   1.632  0.00  0.00    +0.054 A 
ATOM     26  O   UNL     1       7.126   3.188   1.055  0.00  0.00    -0.453 OA
ATOM     27  C   UNL     1       8.484   2.806   0.766  0.00  0.00    +0.466 C 
ATOM     28  O   UNL     1       8.345   1.564   0.051  0.00  0.00    -0.453 OA
ENDBRANCH  19  20
ENDBRANCH   1  19
BRANCH   1  29
ATOM     29  C   UNL     1       2.038   1.565   0.697  0.00  0.00    +0.126 C 
BRANCH  29  30
ATOM     30  C   UNL     1       1.423   1.600  -0.678  0.00  0.00    +0.032 A 
ATOM     31  C   UNL     1       0.076   1.669  -0.814  0.00  0.00    +0.020 A 
ATOM     32  C   UNL     1      -0.490   1.702  -2.164  0.00  0.00    +0.002 A 
ATOM     33  C   UNL     1      -1.872   1.774  -2.368  0.00  0.00    -0.041 A 
ATOM     34  C   UNL     1      -2.369   1.804  -3.640  0.00  0.00    +0.007 A 
ATOM     35  C   UNL     1      -1.514   1.763  -4.733  0.00  0.00    -0.048 A 
ATOM     36  C   UNL     1      -0.149   1.692  -4.556  0.00  0.00    +0.029 A 
ATOM     37  C   UNL     1       0.380   1.661  -3.270  0.00  0.00    +0.050 A 
ATOM     38  N   UNL     1       1.741   1.591  -3.064  0.00  0.00    -0.322 N 
ATOM     39  H   UNL     1       2.339   1.563  -3.827  0.00  0.00    +0.169 HD
ATOM     40  C   UNL     1       2.252   1.566  -1.820  0.00  0.00    +0.254 A 
ATOM     41  O   UNL     1       3.461   1.509  -1.676  0.00  0.00    -0.268 OA
ATOM     42  C   UNL     1      -2.084   1.796  -6.128  0.00  0.00    +0.044 C 
ATOM     43  C   UNL     1      -2.810   1.818  -1.189  0.00  0.00    +0.044 C 
ENDBRANCH  29  30
ENDBRANCH   1  29
TORSDOF 10
