REMARK  Name = ZINC00823019
REMARK  6 active torsions:
REMARK  status: ('A' for Active; 'I' for Inactive)
REMARK    1  A    between atoms: C_4  and  O_7
REMARK    2  A    between atoms: O_7  and  C_8
REMARK    3  A    between atoms: C_12  and  C_14
REMARK    4  A    between atoms: C_19  and  N_28
REMARK    5  A    between atoms: C_23  and  N_27
REMARK    6  A    between atoms: C_24  and  C_25
REMARK                            x       y       z     vdW  Elec       q    Type
REMARK                         _______ _______ _______ _____ _____    ______ ____
ROOT
ATOM      1  C   UNL     1       7.218   1.656  -0.068  0.00  0.00    +0.098 C 
ATOM      2  C   UNL     1       7.926   2.171  -1.293  0.00  0.00    +0.008 A 
ATOM      3  C   UNL     1       7.609   1.645  -2.533  0.00  0.00    +0.010 A 
ATOM      4  C   UNL     1       8.247   2.104  -3.668  0.00  0.00    +0.023 A 
ATOM      5  C   UNL     1       9.212   3.100  -3.567  0.00  0.00    +0.028 A 
ATOM      6  C   UNL     1       9.530   3.630  -2.325  0.00  0.00    +0.069 A 
ATOM      7  C   UNL     1       8.887   3.165  -1.186  0.00  0.00    +0.136 A 
ATOM      8  O   UNL     1       9.210   3.692   0.021  0.00  0.00    -0.441 OA
ATOM      9  C   UNL     1       8.908   3.024   1.147  0.00  0.00    +0.199 C 
ATOM     10  C   UNL     1       7.973   2.046   1.171  0.00  0.00    +0.098 C 
ENDROOT
BRANCH   1  15
ATOM     11  C   UNL     1       3.451   1.943   0.013  0.00  0.00    +0.129 A 
ATOM     12  C   UNL     1       3.282   3.319   0.088  0.00  0.00    +0.046 A 
ATOM     13  C   UNL     1       4.386   4.148   0.122  0.00  0.00    +0.004 A 
ATOM     14  C   UNL     1       5.659   3.609   0.070  0.00  0.00    +0.005 A 
ATOM     15  C   UNL     1       5.829   2.239  -0.011  0.00  0.00    -0.031 A 
ATOM     16  C   UNL     1       4.728   1.405  -0.040  0.00  0.00    +0.050 A 
BRANCH  11  17
ATOM     17  O   UNL     1       2.366   1.125  -0.015  0.00  0.00    -0.456 OA
BRANCH  17  21
ATOM     18  C   UNL     1       0.883  -0.248   3.581  0.00  0.00    +0.000 A 
ATOM     19  C   UNL     1       0.281  -0.628   2.396  0.00  0.00    +0.004 A 
ATOM     20  C   UNL     1       0.779  -0.175   1.190  0.00  0.00    +0.046 A 
ATOM     21  C   UNL     1       1.878   0.673   1.170  0.00  0.00    +0.128 A 
ATOM     22  C   UNL     1       2.476   1.058   2.361  0.00  0.00    +0.046 A 
ATOM     23  C   UNL     1       1.978   0.597   3.564  0.00  0.00    +0.004 A 
ENDBRANCH  17  21
ENDBRANCH  11  17
ENDBRANCH   1  15
BRANCH   9  24
ATOM     24  N   UNL     1       9.569   3.343   2.307  0.00  0.00    -0.328 N 
ATOM     25  H   UNL     1       9.363   2.869   3.128  0.00  0.00    +0.145 HD
ATOM     26  H   UNL     1      10.242   4.041   2.306  0.00  0.00    +0.145 HD
ENDBRANCH   9  24
BRANCH   5  27
ATOM     27  N   UNL     1       9.859   3.567  -4.713  0.00  0.00    -0.358 N 
ATOM     28  H   UNL     1       9.635   3.196  -5.581  0.00  0.00    +0.142 HD
ATOM     29  H   UNL     1      10.532   4.261  -4.642  0.00  0.00    +0.142 HD
ENDBRANCH   5  27
BRANCH  10  30
ATOM     30  C   UNL     1       7.697   1.370   2.403  0.00  0.00    +0.101 C 
ATOM     31  N   UNL     1       7.478   0.833   3.380  0.00  0.00    -0.191 NA
ENDBRANCH  10  30
TORSDOF 6
