REMARK  Name = ZINC20907832
REMARK  10 active torsions:
REMARK  status: ('A' for Active; 'I' for Inactive)
REMARK    1  A    between atoms: C_1  and  C_2
REMARK    2  A    between atoms: C_2  and  C_3
REMARK    3  A    between atoms: C_2  and  S_4
REMARK    4  A    between atoms: S_4  and  C_5
REMARK    5  A    between atoms: C_11  and  C_13
REMARK    6  A    between atoms: C_13  and  S_14
REMARK    7  A    between atoms: S_14  and  C_15
REMARK    8  A    between atoms: N_20  and  N_21
REMARK    9  A    between atoms: C_22  and  C_23
REMARK   10  A    between atoms: C_32  and  O_33
REMARK                            x       y       z     vdW  Elec       q    Type
REMARK                         _______ _______ _______ _____ _____    ______ ____
ROOT
ATOM      1  C   UNL     1       0.002  -0.004   0.002  0.00  0.00    +0.211 A 
ATOM      2  N   UNL     1      -0.016   1.362   0.009  0.00  0.00    -0.186 NA
ATOM      3  C   UNL     1       1.278   1.802  -0.001  0.00  0.00    +0.232 A 
ATOM      4  N   UNL     1       2.063   0.752  -0.014  0.00  0.00    -0.245 N 
ATOM      5  N   UNL     1       1.255  -0.393  -0.012  0.00  0.00    -0.144 NA
ATOM      6  N   UNL     1       1.689   3.127   0.003  0.00  0.00    -0.205 N 
ATOM      7  H   UNL     1       0.942   3.934   0.014  0.00  0.00    +0.177 HD
ATOM      8  H   UNL     1       3.155   0.882  -0.023  0.00  0.00    +0.192 HD
ENDROOT
BRANCH   6   9
ATOM      9  N   UNL     1       3.055   3.437  -0.009  0.00  0.00    -0.187 NA
ATOM     10  C   UNL     1       3.440   4.679  -0.006  0.00  0.00    +0.142 C 
BRANCH  10  11
ATOM     11  C   UNL     1       4.873   5.004  -0.018  0.00  0.00    +0.044 A 
ATOM     12  C   UNL     1       5.323   6.395  -0.014  0.00  0.00    -0.006 A 
ATOM     13  C   UNL     1       4.412   7.457   0.000  0.00  0.00    +0.009 A 
ATOM     14  C   UNL     1       4.873   8.740   0.003  0.00  0.00    +0.001 A 
ATOM     15  C   UNL     1       6.240   9.009  -0.008  0.00  0.00    +0.001 A 
ATOM     16  C   UNL     1       7.153   7.999  -0.022  0.00  0.00    +0.008 A 
ATOM     17  C   UNL     1       6.714   6.664  -0.026  0.00  0.00    -0.017 A 
ATOM     18  C   UNL     1       7.627   5.596  -0.039  0.00  0.00    +0.012 A 
ATOM     19  C   UNL     1       7.191   4.308  -0.041  0.00  0.00    +0.046 A 
ATOM     20  C   UNL     1       5.833   3.992  -0.026  0.00  0.00    +0.126 A 
BRANCH  20  21
ATOM     21  O   UNL     1       5.443   2.692  -0.024  0.00  0.00    -0.506 OA
ATOM     22  H   UNL     1       6.197   1.891  -0.031  0.00  0.00    +0.292 HD
ENDBRANCH  20  21
ENDBRANCH  10  11
ENDBRANCH   6   9
BRANCH   1  23
ATOM     23  S   UNL     1      -1.409  -1.059   0.010  0.00  0.00    -0.075 S 
BRANCH  23  24
ATOM     24  C   UNL     1      -0.707  -2.732  -0.006  0.00  0.00    +0.173 C 
BRANCH  24  31
ATOM     25  C   UNL     1      -4.269  -8.047  -0.001  0.00  0.00    +0.160 A 
ATOM     26  N   UNL     1      -4.685  -6.789   0.010  0.00  0.00    -0.133 NA
ATOM     27  N   UNL     1      -3.878  -5.820   0.007  0.00  0.00    -0.125 NA
ATOM     28  C   UNL     1      -2.568  -5.998  -0.006  0.00  0.00    +0.189 A 
ATOM     29  S   UNL     1      -2.498  -7.787  -0.023  0.00  0.00    -0.024 S 
ATOM     30  N   UNL     1      -1.537  -5.062  -0.011  0.00  0.00    -0.263 N 
ATOM     31  C   UNL     1      -1.823  -3.745  -0.001  0.00  0.00    +0.229 C 
ATOM     32  O   UNL     1      -2.978  -3.375   0.012  0.00  0.00    -0.275 OA
ATOM     33  H   UNL     1      -0.489  -5.397  -0.022  0.00  0.00    +0.157 HD
BRANCH  25  34
ATOM     34  S   UNL     1      -5.194  -9.546  -0.002  0.00  0.00    -0.094 S 
BRANCH  34  36
ATOM     35  C   UNL     1      -7.235  -8.252  -1.283  0.00  0.00    +0.019 C 
ATOM     36  C   UNL     1      -6.923  -8.996   0.017  0.00  0.00    +0.047 C 
ATOM     37  C   UNL     1      -7.844 -10.211   0.144  0.00  0.00    +0.019 C 
ENDBRANCH  34  36
ENDBRANCH  25  34
ENDBRANCH  24  31
ENDBRANCH  23  24
ENDBRANCH   1  23
TORSDOF 8
