REMARK  Name = ZINC06177921
REMARK  10 active torsions:
REMARK  status: ('A' for Active; 'I' for Inactive)
REMARK    1  A    between atoms: C_1  and  C_2
REMARK    2  A    between atoms: C_4  and  C_41
REMARK    3  A    between atoms: C_9  and  C_14
REMARK    4  A    between atoms: C_14  and  C_16
REMARK    5  A    between atoms: C_14  and  N_75
REMARK    6  A    between atoms: N_20  and  C_21
REMARK    7  A    between atoms: C_27  and  C_28
REMARK    8  A    between atoms: C_27  and  N_75
REMARK    9  A    between atoms: C_34  and  C_35
REMARK   10  A    between atoms: C_34  and  N_75
REMARK                            x       y       z     vdW  Elec       q    Type
REMARK                         _______ _______ _______ _____ _____    ______ ____
ROOT
ATOM      1  C   UNL     1      -1.431   2.745   1.039  0.00  0.00    +0.040 C 
ENDROOT
BRANCH   1  10
ATOM      2  C   UNL     1       5.841   3.871   2.246  0.00  0.00    +0.044 C 
ATOM      3  C   UNL     1       4.672   2.943   2.038  0.00  0.00    -0.050 A 
ATOM      4  C   UNL     1       4.873   1.570   2.046  0.00  0.00    +0.008 A 
ATOM      5  C   UNL     1       3.818   0.703   1.859  0.00  0.00    -0.026 A 
ATOM      6  C   UNL     1       2.537   1.208   1.659  0.00  0.00    +0.052 A 
ATOM      7  C   UNL     1       2.337   2.601   1.652  0.00  0.00    -0.001 A 
ATOM      8  C   UNL     1       3.423   3.462   1.844  0.00  0.00    +0.013 A 
ATOM      9  C   UNL     1       0.986   3.123   1.440  0.00  0.00    +0.017 A 
ATOM     10  C   UNL     1      -0.028   2.241   1.258  0.00  0.00    +0.011 A 
ATOM     11  C   UNL     1       0.228   0.853   1.267  0.00  0.00    +0.251 A 
ATOM     12  O   UNL     1      -0.697   0.077   1.095  0.00  0.00    -0.268 OA
ATOM     13  N   UNL     1       1.464   0.364   1.467  0.00  0.00    -0.322 N 
ATOM     14  H   UNL     1       1.604  -0.596   1.472  0.00  0.00    +0.169 HD
ATOM     15  C   UNL     1       4.051  -0.786   1.869  0.00  0.00    +0.046 C 
ENDBRANCH   1  10
BRANCH   1  16
ATOM     16  C   UNL     1      -1.888   2.370  -0.348  0.00  0.00    +0.143 A 
ATOM     17  N   UNL     1      -2.482   1.257  -0.702  0.00  0.00    -0.115 NA
ATOM     18  N   UNL     1      -2.713   1.315  -1.968  0.00  0.00    -0.023 NA
ATOM     19  N   UNL     1      -2.281   2.436  -2.431  0.00  0.00    -0.044 NA
ATOM     20  N   UNL     1      -1.770   3.117  -1.462  0.00  0.00    -0.227 N 
BRANCH  20  21
ATOM     21  C   UNL     1      -1.172   4.451  -1.556  0.00  0.00    +0.111 C 
ATOM     22  C   UNL     1      -2.179   5.418  -2.181  0.00  0.00    +0.027 C 
ATOM     23  C   UNL     1      -1.554   6.811  -2.279  0.00  0.00    +0.002 C 
ATOM     24  C   UNL     1      -0.299   6.747  -3.152  0.00  0.00    +0.000 C 
ATOM     25  C   UNL     1       0.708   5.779  -2.527  0.00  0.00    +0.002 C 
ATOM     26  C   UNL     1       0.083   4.386  -2.429  0.00  0.00    +0.027 C 
ENDBRANCH  20  21
ENDBRANCH   1  16
BRANCH   1  27
ATOM     27  N   UNL     1      -2.335   2.112   2.022  0.00  0.00    +0.395 N 
ATOM     28  H   UNL     1      -2.514   1.142   1.736  0.00  0.00    -0.079 HD
BRANCH  27  29
ATOM     29  C   UNL     1      -3.619   2.842   2.072  0.00  0.00    -0.041 C 
BRANCH  29  30
ATOM     30  C   UNL     1      -4.465   2.410   0.903  0.00  0.00    -0.064 A 
ATOM     31  C   UNL     1      -4.533   3.198  -0.230  0.00  0.00    +0.002 A 
ATOM     32  C   UNL     1      -5.306   2.799  -1.305  0.00  0.00    +0.000 A 
ATOM     33  C   UNL     1      -6.019   1.616  -1.242  0.00  0.00    +0.000 A 
ATOM     34  C   UNL     1      -5.955   0.831  -0.106  0.00  0.00    +0.000 A 
ATOM     35  C   UNL     1      -5.178   1.227   0.966  0.00  0.00    +0.002 A 
ENDBRANCH  29  30
ENDBRANCH  27  29
BRANCH  27  36
ATOM     36  C   UNL     1      -1.704   2.108   3.359  0.00  0.00    -0.040 C 
BRANCH  36  37
ATOM     37  C   UNL     1      -2.466   1.163   4.252  0.00  0.00    -0.046 A 
ATOM     38  C   UNL     1      -3.437   1.644   5.117  0.00  0.00    +0.005 A 
ATOM     39  C   UNL     1      -4.116   0.737   5.916  0.00  0.00    +0.020 A 
ATOM     40  C   UNL     1      -3.797  -0.605   5.832  0.00  0.00    +0.111 A 
ATOM     41  N   UNL     1      -2.864  -1.026   5.002  0.00  0.00    -0.263 NA
ATOM     42  C   UNL     1      -2.201  -0.193   4.223  0.00  0.00    +0.112 A 
ENDBRANCH  36  37
ENDBRANCH  27  36
ENDBRANCH   1  27
TORSDOF 8
