REMARK  Name = ZINC00803887
REMARK  7 active torsions:
REMARK  status: ('A' for Active; 'I' for Inactive)
REMARK    1  A    between atoms: C_1  and  C_2
REMARK    2  A    between atoms: C_2  and  C_3
REMARK    3  A    between atoms: C_2  and  C_4
REMARK    4  A    between atoms: C_2  and  N_5
REMARK    5  A    between atoms: C_6  and  C_8
REMARK    6  A    between atoms: C_9  and  N_22
REMARK    7  A    between atoms: N_19  and  C_21
REMARK                            x       y       z     vdW  Elec       q    Type
REMARK                         _______ _______ _______ _____ _____    ______ ____
ROOT
ATOM      1  C   UNL     1       2.635  -0.589  -2.593  0.00  0.00    +0.097 A 
ATOM      2  C   UNL     1       3.933  -0.349  -2.986  0.00  0.00    +0.053 A 
ATOM      3  C   UNL     1       4.394  -0.932  -4.237  0.00  0.00    +0.029 A 
ATOM      4  C   UNL     1       5.667  -0.828  -4.847  0.00  0.00    +0.016 A 
ATOM      5  C   UNL     1       5.898  -1.468  -6.048  0.00  0.00    -0.042 A 
ATOM      6  C   UNL     1       4.889  -2.204  -6.646  0.00  0.00    +0.042 A 
ATOM      7  N   UNL     1       3.701  -2.295  -6.072  0.00  0.00    -0.244 NA
ATOM      8  C   UNL     1       3.434  -1.703  -4.930  0.00  0.00    +0.111 A 
ATOM      9  S   UNL     1       1.992  -1.619  -3.898  0.00  0.00    -0.062 S 
ATOM     10  C   UNL     1       5.111  -2.921  -7.954  0.00  0.00    +0.037 C 
ATOM     11  C   UNL     1       6.365  -2.374  -8.637  0.00  0.00    -0.073 C 
ATOM     12  N   UNL     1       7.473  -2.395  -7.670  0.00  0.00    +0.381 N 
ATOM     13  C   UNL     1       7.260  -1.337  -6.678  0.00  0.00    -0.042 C 
ATOM     14  C   UNL     1       8.743  -2.163  -8.372  0.00  0.00    -0.096 C 
ATOM     15  H   UNL     1       7.501  -3.291  -7.207  0.00  0.00    -0.082 HD
ENDROOT
BRANCH   1  17
ATOM     16  N   UNL     1       0.688  -0.476  -1.203  0.00  0.00    -0.306 N 
ATOM     17  C   UNL     1       1.972  -0.132  -1.427  0.00  0.00    +0.253 C 
ATOM     18  O   UNL     1       2.561   0.572  -0.627  0.00  0.00    -0.270 OA
ATOM     19  H   UNL     1       0.218  -1.037  -1.840  0.00  0.00    +0.150 HD
BRANCH  16  21
ATOM     20  C   UNL     1      -0.019   1.526   0.010  0.00  0.00    +0.031 C 
ATOM     21  C   UNL     1       0.002  -0.004   0.002  0.00  0.00    +0.026 C 
ATOM     22  C   UNL     1       0.742  -0.511   1.242  0.00  0.00    +0.031 C 
ATOM     23  C   UNL     1      -1.433  -0.534   0.013  0.00  0.00    +0.031 C 
ENDBRANCH  16  21
ENDBRANCH   1  17
BRANCH   2  24
ATOM     24  N   UNL     1       4.779   0.429  -2.209  0.00  0.00    -0.356 N 
ATOM     25  H   UNL     1       4.459   0.812  -1.378  0.00  0.00    +0.142 HD
ATOM     26  H   UNL     1       5.691   0.591  -2.498  0.00  0.00    +0.142 HD
ENDBRANCH   2  24
TORSDOF 3
