REMARK  Name = ZINC09292882
REMARK  12 active torsions:
REMARK  status: ('A' for Active; 'I' for Inactive)
REMARK    1  A    between atoms: C_1  and  C_2
REMARK    2  A    between atoms: C_2  and  O_3
REMARK    3  A    between atoms: O_3  and  C_4
REMARK    4  A    between atoms: C_7  and  C_12
REMARK    5  A    between atoms: C_9  and  O_10
REMARK    6  A    between atoms: O_10  and  C_11
REMARK    7  A    between atoms: C_19  and  N_34
REMARK    8  A    between atoms: C_20  and  C_32
REMARK    9  A    between atoms: C_21  and  C_23
REMARK   10  A    between atoms: C_26  and  N_29
REMARK   11  A    between atoms: N_29  and  C_30
REMARK   12  A    between atoms: N_29  and  C_31
REMARK                            x       y       z     vdW  Elec       q    Type
REMARK                         _______ _______ _______ _____ _____    ______ ____
ROOT
ATOM      1  C   UNL     1      -1.959  -6.465   0.130  0.00  0.00    +0.100 A 
ATOM      2  C   UNL     1      -1.157  -7.208  -0.742  0.00  0.00    +0.054 A 
ATOM      3  C   UNL     1      -1.511  -8.521  -0.627  0.00  0.00    +0.223 A 
ATOM      4  N   UNL     1      -2.500  -8.601   0.287  0.00  0.00    -0.246 N 
ATOM      5  H   UNL     1      -2.947  -9.413   0.574  0.00  0.00    +0.192 HD
ATOM      6  N   UNL     1      -2.764  -7.304   0.755  0.00  0.00    -0.171 NA
ATOM      7  O   UNL     1      -0.918  -9.505  -1.349  0.00  0.00    -0.423 OA
ATOM      8  C   UNL     1      -0.149  -9.137  -2.394  0.00  0.00    +0.200 C 
ATOM      9  C   UNL     1       0.275  -7.871  -2.606  0.00  0.00    +0.098 C 
ATOM     10  C   UNL     1      -0.074  -6.735  -1.677  0.00  0.00    +0.102 C 
ENDROOT
BRANCH   1  14
ATOM     11  C   UNL     1      -1.816  -2.246   0.681  0.00  0.00    +0.162 A 
ATOM     12  C   UNL     1      -1.733  -2.783  -0.595  0.00  0.00    +0.050 A 
ATOM     13  C   UNL     1      -1.779  -4.150  -0.776  0.00  0.00    +0.014 A 
ATOM     14  C   UNL     1      -1.909  -4.995   0.324  0.00  0.00    +0.006 A 
ATOM     15  C   UNL     1      -1.993  -4.457   1.607  0.00  0.00    +0.059 A 
ATOM     16  C   UNL     1      -1.941  -3.086   1.784  0.00  0.00    +0.162 A 
BRANCH  16  17
ATOM     17  O   UNL     1      -2.016  -2.559   3.036  0.00  0.00    -0.491 OA
ATOM     18  C   UNL     1      -2.143  -3.479   4.121  0.00  0.00    +0.277 C 
ENDBRANCH  16  17
BRANCH  11  19
ATOM     19  O   UNL     1      -1.771  -0.899   0.855  0.00  0.00    -0.489 OA
BRANCH  19  21
ATOM     20  C   UNL     1      -1.608   1.382   0.072  0.00  0.00    +0.048 C 
ATOM     21  C   UNL     1      -1.642  -0.096  -0.321  0.00  0.00    +0.226 C 
ENDBRANCH  19  21
ENDBRANCH  11  19
ENDBRANCH   1  14
BRANCH  10  22
ATOM     22  C   UNL     1       1.143  -6.334  -0.884  0.00  0.00    -0.034 A 
ATOM     23  C   UNL     1       1.731  -7.239  -0.019  0.00  0.00    +0.006 A 
ATOM     24  C   UNL     1       2.847  -6.875   0.709  0.00  0.00    +0.023 A 
ATOM     25  C   UNL     1       3.378  -5.599   0.572  0.00  0.00    +0.029 A 
ATOM     26  C   UNL     1       2.784  -4.693  -0.298  0.00  0.00    +0.023 A 
ATOM     27  C   UNL     1       1.672  -5.065  -1.027  0.00  0.00    +0.006 A 
BRANCH  25  28
ATOM     28  N   UNL     1       4.506  -5.227   1.307  0.00  0.00    -0.336 N 
ATOM     29  C   UNL     1       5.130  -6.184   2.224  0.00  0.00    +0.129 C 
ATOM     30  C   UNL     1       5.064  -3.881   1.161  0.00  0.00    +0.129 C 
ENDBRANCH  25  28
ENDBRANCH  10  22
BRANCH   8  31
ATOM     31  N   UNL     1       0.225 -10.104  -3.293  0.00  0.00    -0.328 N 
ATOM     32  H   UNL     1      -0.064 -11.021  -3.167  0.00  0.00    +0.145 HD
ATOM     33  H   UNL     1       0.778  -9.869  -4.055  0.00  0.00    +0.145 HD
ENDBRANCH   8  31
BRANCH   9  34
ATOM     34  C   UNL     1       1.085  -7.599  -3.755  0.00  0.00    +0.101 C 
ATOM     35  N   UNL     1       1.728  -7.383  -4.667  0.00  0.00    -0.191 NA
ENDBRANCH   9  34
TORSDOF 8
