REMARK  Name = ZINC15240798
REMARK  12 active torsions:
REMARK  status: ('A' for Active; 'I' for Inactive)
REMARK    1  A    between atoms: C_1  and  C_2
REMARK    2  A    between atoms: C_2  and  O_3
REMARK    3  A    between atoms: O_3  and  C_4
REMARK    4  A    between atoms: C_8  and  C_11
REMARK    5  A    between atoms: C_9  and  O_10
REMARK    6  A    between atoms: N_19  and  C_22
REMARK    7  A    between atoms: C_22  and  C_23
REMARK    8  A    between atoms: C_29  and  C_30
REMARK    9  A    between atoms: C_29  and  C_34
REMARK   10  A    between atoms: C_30  and  C_31
REMARK   11  A    between atoms: C_31  and  C_32
REMARK   12  A    between atoms: C_31  and  C_33
REMARK                            x       y       z     vdW  Elec       q    Type
REMARK                         _______ _______ _______ _____ _____    ______ ____
ROOT
ATOM      1  C   UNL     1      -1.993  -0.953   2.227  0.00  0.00    -0.023 C 
ATOM      2  C   UNL     1      -0.882  -1.963   1.998  0.00  0.00    +0.077 C 
ATOM      3  C   UNL     1      -1.133  -2.244   0.467  0.00  0.00    +0.086 C 
ATOM      4  C   UNL     1      -0.386  -3.460   0.266  0.00  0.00    +0.225 C 
ATOM      5  O   UNL     1       0.215  -3.801  -0.730  0.00  0.00    -0.275 OA
ATOM      6  N   UNL     1      -0.502  -4.150   1.448  0.00  0.00    -0.237 N 
ATOM      7  C   UNL     1      -1.002  -3.381   2.461  0.00  0.00    +0.225 C 
ATOM      8  O   UNL     1      -1.451  -3.767   3.518  0.00  0.00    -0.275 OA
ATOM      9  C   UNL     1      -1.253  -0.881  -0.078  0.00  0.00    +0.048 C 
ATOM     10  N   UNL     1      -2.116  -0.211   0.945  0.00  0.00    +0.396 N 
ATOM     11  H   UNL     1      -1.808   0.760   1.075  0.00  0.00    -0.083 HD
ATOM     12  H   UNL     1      -3.094  -0.221   0.632  0.00  0.00    -0.083 HD
ENDROOT
BRANCH   1  17
ATOM     13  C   UNL     1      -4.771  -2.656   4.153  0.00  0.00    +0.162 A 
ATOM     14  C   UNL     1      -5.657  -2.966   3.134  0.00  0.00    +0.049 A 
ATOM     15  C   UNL     1      -5.356  -2.624   1.829  0.00  0.00    +0.004 A 
ATOM     16  C   UNL     1      -4.172  -1.974   1.537  0.00  0.00    +0.006 A 
ATOM     17  C   UNL     1      -3.283  -1.662   2.549  0.00  0.00    -0.015 A 
ATOM     18  C   UNL     1      -3.576  -2.007   3.859  0.00  0.00    +0.160 A 
BRANCH  18  19
ATOM     19  O   UNL     1      -2.700  -1.706   4.855  0.00  0.00    -0.503 OA
ATOM     20  H   UNL     1      -2.847  -0.840   5.259  0.00  0.00    +0.292 HD
ENDBRANCH  18  19
BRANCH  13  21
ATOM     21  O   UNL     1      -5.066  -2.992   5.438  0.00  0.00    -0.489 OA
BRANCH  21  23
ATOM     22  C   UNL     1      -6.463  -3.956   7.158  0.00  0.00    +0.048 C 
ATOM     23  C   UNL     1      -6.307  -3.662   5.665  0.00  0.00    +0.226 C 
ENDBRANCH  21  23
ENDBRANCH  13  21
ENDBRANCH   1  17
BRANCH   9  24
ATOM     24  C   UNL     1       0.097  -0.216  -0.159  0.00  0.00    +0.346 C 
ATOM     25  O   UNL     1       1.083  -0.876  -0.384  0.00  0.00    -0.248 OA
ATOM     26  O   UNL     1       0.204   1.110   0.019  0.00  0.00    -0.248 OA
ENDBRANCH   9  24
BRANCH   6  27
ATOM     27  C   UNL     1      -0.130  -5.558   1.606  0.00  0.00    +0.151 C 
BRANCH  27  28
ATOM     28  C   UNL     1      -1.321  -6.430   1.303  0.00  0.00    -0.030 A 
ATOM     29  C   UNL     1      -2.189  -6.790   2.317  0.00  0.00    +0.005 A 
ATOM     30  C   UNL     1      -3.284  -7.587   2.038  0.00  0.00    +0.000 A 
ATOM     31  C   UNL     1      -3.507  -8.029   0.748  0.00  0.00    +0.000 A 
ATOM     32  C   UNL     1      -2.636  -7.672  -0.265  0.00  0.00    +0.000 A 
ATOM     33  C   UNL     1      -1.544  -6.873   0.013  0.00  0.00    +0.005 A 
ENDBRANCH  27  28
ENDBRANCH   6  27
BRANCH   9  34
ATOM     34  C   UNL     1      -1.932  -0.896  -1.448  0.00  0.00    +0.002 C 
BRANCH  34  35
ATOM     35  C   UNL     1      -2.007   0.531  -1.996  0.00  0.00    -0.018 C 
ATOM     36  C   UNL     1      -2.552   0.500  -3.426  0.00  0.00    +0.007 C 
ATOM     37  C   UNL     1      -2.936   1.367  -1.114  0.00  0.00    +0.007 C 
ENDBRANCH  34  35
ENDBRANCH   9  34
TORSDOF 9
