REMARK  Name = ZINC19898625
REMARK  14 active torsions:
REMARK  status: ('A' for Active; 'I' for Inactive)
REMARK    1  A    between atoms: C_1  and  C_2
REMARK    2  A    between atoms: C_2  and  C_3
REMARK    3  A    between atoms: C_3  and  C_4
REMARK    4  A    between atoms: C_4  and  O_5
REMARK    5  A    between atoms: O_5  and  C_6
REMARK    6  A    between atoms: C_6  and  C_8
REMARK    7  A    between atoms: C_9  and  C_38
REMARK    8  A    between atoms: C_13  and  C_15
REMARK    9  A    between atoms: C_19  and  O_21
REMARK   10  A    between atoms: C_25  and  C_28
REMARK   11  A    between atoms: C_31  and  O_36
REMARK   12  A    between atoms: C_32  and  O_34
REMARK   13  A    between atoms: O_34  and  C_35
REMARK   14  A    between atoms: O_36  and  C_37
REMARK                            x       y       z     vdW  Elec       q    Type
REMARK                         _______ _______ _______ _____ _____    ______ ____
ROOT
ATOM      1  C   UNL     1       2.427  -4.420   3.549  0.00  0.00    +0.065 C 
ATOM      2  C   UNL     1       2.251  -5.721   3.841  0.00  0.00    +0.016 C 
ATOM      3  N   UNL     1       2.702  -6.233   5.025  0.00  0.00    -0.321 N 
ATOM      4  C   UNL     1       3.661  -5.576   5.749  0.00  0.00    +0.016 C 
ATOM      5  C   UNL     1       3.902  -4.265   5.537  0.00  0.00    +0.024 C 
ATOM      6  C   UNL     1       3.118  -3.495   4.507  0.00  0.00    +0.092 C 
ATOM      7  C   UNL     1       4.896  -3.584   6.262  0.00  0.00    +0.162 C 
ATOM      8  O   UNL     1       5.082  -2.401   6.052  0.00  0.00    -0.292 OA
ATOM      9  C   UNL     1       5.731  -4.291   7.293  0.00  0.00    +0.088 C 
ATOM     10  C   UNL     1       5.846  -5.771   6.914  0.00  0.00    +0.032 C 
ATOM     11  C   UNL     1       4.435  -6.350   6.787  0.00  0.00    +0.059 C 
ATOM     12  C   UNL     1       1.551  -6.620   2.855  0.00  0.00    +0.061 C 
ATOM     13  H   UNL     1       2.339  -7.069   5.356  0.00  0.00    +0.152 HD
ENDROOT
BRANCH   6  14
ATOM     14  C   UNL     1       2.087  -2.650   5.209  0.00  0.00    -0.032 A 
ATOM     15  C   UNL     1       1.105  -3.252   5.975  0.00  0.00    +0.005 A 
ATOM     16  C   UNL     1       0.158  -2.479   6.621  0.00  0.00    +0.004 A 
ATOM     17  C   UNL     1       0.189  -1.103   6.501  0.00  0.00    +0.045 A 
ATOM     18  C   UNL     1       1.172  -0.497   5.734  0.00  0.00    +0.117 A 
ATOM     19  C   UNL     1       2.126  -1.274   5.092  0.00  0.00    +0.050 A 
BRANCH  18  20
ATOM     20  O   UNL     1       1.204   0.857   5.615  0.00  0.00    -0.507 OA
ATOM     21  H   UNL     1       1.737   1.298   6.290  0.00  0.00    +0.292 HD
ENDBRANCH  18  20
ENDBRANCH   6  14
BRANCH  10  22
ATOM     22  C   UNL     1       6.607  -6.510   7.984  0.00  0.00    -0.040 A 
ATOM     23  C   UNL     1       6.123  -6.540   9.279  0.00  0.00    +0.008 A 
ATOM     24  C   UNL     1       6.818  -7.217  10.264  0.00  0.00    +0.049 A 
ATOM     25  C   UNL     1       8.002  -7.868   9.954  0.00  0.00    +0.161 A 
ATOM     26  C   UNL     1       8.488  -7.839   8.651  0.00  0.00    +0.162 A 
ATOM     27  C   UNL     1       7.784  -7.162   7.667  0.00  0.00    +0.053 A 
BRANCH  26  28
ATOM     28  O   UNL     1       9.649  -8.476   8.342  0.00  0.00    -0.491 OA
ATOM     29  C   UNL     1      10.087  -8.403   6.984  0.00  0.00    +0.277 C 
ENDBRANCH  26  28
BRANCH  25  30
ATOM     30  O   UNL     1       8.686  -8.534  10.922  0.00  0.00    -0.491 OA
ATOM     31  C   UNL     1       8.128  -8.522  12.238  0.00  0.00    +0.277 C 
ENDBRANCH  25  30
ENDBRANCH  10  22
BRANCH   1  32
ATOM     32  C   UNL     1       1.958  -3.916   2.314  0.00  0.00    +0.338 C 
ATOM     33  O   UNL     1       1.512  -4.678   1.476  0.00  0.00    -0.245 OA
BRANCH  32  34
ATOM     34  O   UNL     1       2.005  -2.591   2.064  0.00  0.00    -0.461 OA
BRANCH  34  35
ATOM     35  C   UNL     1       1.514  -2.152   0.796  0.00  0.00    +0.232 C 
BRANCH  35  36
ATOM     36  C   UNL     1       1.647  -0.631   0.696  0.00  0.00    +0.041 C 
BRANCH  36  38
ATOM     37  C   UNL     1       1.255   1.360  -0.761  0.00  0.00    +0.004 C 
ATOM     38  C   UNL     1       1.122  -0.161  -0.661  0.00  0.00    -0.000 C 
ENDBRANCH  36  38
ENDBRANCH  35  36
ENDBRANCH  34  35
ENDBRANCH  32  34
ENDBRANCH   1  32
TORSDOF 10
