REMARK  Name = ZINC59369490
REMARK  9 active torsions:
REMARK  status: ('A' for Active; 'I' for Inactive)
REMARK    1  A    between atoms: C_1  and  C_2
REMARK    2  A    between atoms: C_4  and  C_30
REMARK    3  A    between atoms: C_8  and  C_12
REMARK    4  A    between atoms: C_9  and  C_11
REMARK    5  A    between atoms: N_14  and  C_15
REMARK    6  A    between atoms: C_15  and  C_17
REMARK    7  A    between atoms: C_15  and  C_27
REMARK    8  A    between atoms: C_27  and  C_28
REMARK    9  A    between atoms: C_27  and  C_29
REMARK                            x       y       z     vdW  Elec       q    Type
REMARK                         _______ _______ _______ _____ _____    ______ ____
ROOT
ATOM      1  C   UNL     1       3.686  -2.577  -0.030  0.00  0.00    +0.250 C 
ATOM      2  O   UNL     1       4.284  -2.449   1.022  0.00  0.00    -0.270 OA
ATOM      3  N   UNL     1       4.338  -2.422  -1.199  0.00  0.00    -0.301 N 
ATOM      4  H   UNL     1       3.860  -2.524  -2.037  0.00  0.00    +0.150 HD
ENDROOT
BRANCH   1  12
ATOM      5  C   UNL     1      -0.018   1.503   0.010  0.00  0.00    +0.066 C 
ATOM      6  C   UNL     1       0.002  -0.004   0.002  0.00  0.00    +0.042 A 
ATOM      7  C   UNL     1      -1.201  -0.719   0.004  0.00  0.00    +0.046 A 
ATOM      8  C   UNL     1      -1.169  -2.076  -0.004  0.00  0.00    +0.044 A 
ATOM      9  N   UNL     1       0.037  -2.712  -0.013  0.00  0.00    -0.218 N 
ATOM     10  C   UNL     1       1.190  -1.978  -0.014  0.00  0.00    +0.168 A 
ATOM     11  N   UNL     1       1.150  -0.645  -0.012  0.00  0.00    -0.232 NA
ATOM     12  C   UNL     1       2.255  -2.898  -0.025  0.00  0.00    +0.103 A 
ATOM     13  C   UNL     1       1.686  -4.184  -0.029  0.00  0.00    +0.075 A 
ATOM     14  N   UNL     1       0.385  -4.067  -0.022  0.00  0.00    -0.169 NA
ATOM     15  C   UNL     1       2.451  -5.483  -0.040  0.00  0.00    +0.068 C 
ATOM     16  C   UNL     1      -2.450  -2.870  -0.001  0.00  0.00    +0.066 C 
ENDBRANCH   1  12
BRANCH   3  17
ATOM     17  C   UNL     1       5.767  -2.101  -1.204  0.00  0.00    +0.142 C 
BRANCH  17  18
ATOM     18  C   UNL     1       6.119  -1.398  -2.490  0.00  0.00    +0.129 A 
ATOM     19  N   UNL     1       5.224  -1.019  -3.441  0.00  0.00    -0.340 N 
ATOM     20  H   UNL     1       4.263  -1.152  -3.412  0.00  0.00    +0.167 HD
ATOM     21  C   UNL     1       5.936  -0.411  -4.456  0.00  0.00    +0.066 A 
ATOM     22  C   UNL     1       5.588   0.168  -5.669  0.00  0.00    +0.028 A 
ATOM     23  C   UNL     1       6.568   0.703  -6.476  0.00  0.00    +0.002 A 
ATOM     24  C   UNL     1       7.899   0.665  -6.086  0.00  0.00    +0.002 A 
ATOM     25  C   UNL     1       8.261   0.099  -4.896  0.00  0.00    +0.030 A 
ATOM     26  C   UNL     1       7.284  -0.449  -4.061  0.00  0.00    +0.089 A 
ATOM     27  N   UNL     1       7.323  -1.060  -2.849  0.00  0.00    -0.231 NA
ENDBRANCH  17  18
BRANCH  17  28
ATOM     28  C   UNL     1       6.580  -3.392  -1.089  0.00  0.00    +0.011 C 
ATOM     29  C   UNL     1       6.354  -4.250  -2.336  0.00  0.00    +0.009 C 
ATOM     30  C   UNL     1       8.066  -3.050  -0.969  0.00  0.00    +0.009 C 
ENDBRANCH  17  28
ENDBRANCH   3  17
TORSDOF 4
