REMARK  Name = ZINC40512739
REMARK  9 active torsions:
REMARK  status: ('A' for Active; 'I' for Inactive)
REMARK    1  A    between atoms: C_1  and  C_2
REMARK    2  A    between atoms: C_2  and  O_3
REMARK    3  A    between atoms: O_3  and  C_4
REMARK    4  A    between atoms: C_4  and  C_6
REMARK    5  A    between atoms: C_7  and  N_36
REMARK    6  A    between atoms: C_11  and  C_35
REMARK    7  A    between atoms: N_24  and  C_27
REMARK    8  A    between atoms: C_27  and  C_28
REMARK    9  A    between atoms: C_33  and  C_34
REMARK                            x       y       z     vdW  Elec       q    Type
REMARK                         _______ _______ _______ _____ _____    ______ ____
ROOT
ATOM      1  C   UNL     1       2.593  -1.503  -1.623  0.00  0.00    +0.117 C 
ATOM      2  C   UNL     1       3.025  -2.784  -1.488  0.00  0.00    +0.196 C 
ATOM      3  O   UNL     1       3.584  -3.455  -2.508  0.00  0.00    -0.441 OA
ATOM      4  C   UNL     1       3.404  -3.034  -3.778  0.00  0.00    +0.142 A 
ATOM      5  C   UNL     1       3.643  -3.915  -4.853  0.00  0.00    +0.067 A 
ATOM      6  C   UNL     1       3.462  -3.490  -6.122  0.00  0.00    +0.019 A 
ATOM      7  N   UNL     1       3.050  -2.221  -6.381  0.00  0.00    -0.326 N 
ATOM      8  H   UNL     1       2.925  -1.938  -7.300  0.00  0.00    +0.169 HD
ATOM      9  C   UNL     1       2.812  -1.351  -5.381  0.00  0.00    +0.257 A 
ATOM     10  O   UNL     1       2.442  -0.215  -5.636  0.00  0.00    -0.267 OA
ATOM     11  C   UNL     1       2.986  -1.747  -4.050  0.00  0.00    +0.083 A 
ATOM     12  C   UNL     1       2.718  -0.781  -2.934  0.00  0.00    +0.144 C 
ATOM     13  C   UNL     1       3.789   0.263  -2.870  0.00  0.00    -0.002 A 
ATOM     14  C   UNL     1       5.145   0.166  -2.643  0.00  0.00    +0.007 A 
ATOM     15  C   UNL     1       5.872   1.351  -2.649  0.00  0.00    +0.000 A 
ATOM     16  C   UNL     1       5.260   2.568  -2.873  0.00  0.00    +0.002 A 
ATOM     17  C   UNL     1       3.897   2.673  -3.101  0.00  0.00    +0.024 A 
ATOM     18  C   UNL     1       3.156   1.490  -3.097  0.00  0.00    +0.041 A 
ATOM     19  N   UNL     1       1.800   1.303  -3.295  0.00  0.00    -0.265 N 
ATOM     20  C   UNL     1       1.452   0.002  -3.217  0.00  0.00    +0.240 C 
ATOM     21  O   UNL     1       0.336  -0.456  -3.349  0.00  0.00    -0.274 OA
ATOM     22  C   UNL     1       3.720  -4.435  -7.266  0.00  0.00    +0.063 C 
ENDROOT
BRANCH   2  23
ATOM     23  N   UNL     1       2.886  -3.409  -0.278  0.00  0.00    -0.329 N 
ATOM     24  H   UNL     1       2.416  -2.966   0.446  0.00  0.00    +0.145 HD
ATOM     25  H   UNL     1       3.258  -4.295  -0.143  0.00  0.00    +0.145 HD
ENDBRANCH   2  23
BRANCH   1  26
ATOM     26  C   UNL     1       2.017  -0.848  -0.525  0.00  0.00    +0.342 C 
ATOM     27  O   UNL     1       2.673  -0.051   0.122  0.00  0.00    -0.245 OA
BRANCH  26  28
ATOM     28  O   UNL     1       0.734  -1.101  -0.184  0.00  0.00    -0.462 OA
BRANCH  28  30
ATOM     29  C   UNL     1      -1.242  -0.812   1.176  0.00  0.00    +0.048 C 
ATOM     30  C   UNL     1       0.213  -0.398   0.946  0.00  0.00    +0.229 C 
ENDBRANCH  28  30
ENDBRANCH  26  28
ENDBRANCH   1  26
BRANCH  19  31
ATOM     31  C   UNL     1       0.852   2.389  -3.557  0.00  0.00    +0.149 C 
BRANCH  31  32
ATOM     32  C   UNL     1       0.880   2.736  -5.023  0.00  0.00    -0.027 A 
ATOM     33  C   UNL     1       2.018   2.491  -5.771  0.00  0.00    +0.005 A 
ATOM     34  C   UNL     1       2.043   2.809  -7.115  0.00  0.00    +0.000 A 
ATOM     35  C   UNL     1       0.932   3.374  -7.713  0.00  0.00    +0.000 A 
ATOM     36  C   UNL     1      -0.205   3.619  -6.967  0.00  0.00    +0.003 A 
ATOM     37  C   UNL     1      -0.232   3.296  -5.622  0.00  0.00    -0.046 A 
ATOM     38  C   UNL     1      -1.474   3.558  -4.810  0.00  0.00    +0.044 C 
ENDBRANCH  31  32
ENDBRANCH  19  31
TORSDOF 6
