REMARK  Name = ZINC00804143
REMARK  8 active torsions:
REMARK  status: ('A' for Active; 'I' for Inactive)
REMARK    1  A    between atoms: C_1  and  C_2
REMARK    2  A    between atoms: C_2  and  N_3
REMARK    3  A    between atoms: C_14  and  C_16
REMARK    4  A    between atoms: C_19  and  C_30
REMARK    5  A    between atoms: C_25  and  N_29
REMARK    6  A    between atoms: C_26  and  C_27
REMARK    7  A    between atoms: C_30  and  C_31
REMARK    8  A    between atoms: C_30  and  C_32
REMARK                            x       y       z     vdW  Elec       q    Type
REMARK                         _______ _______ _______ _____ _____    ______ ____
ROOT
ATOM      1  C   UNL     1      -5.084  -1.841  -4.032  0.00  0.00    +0.101 C 
ATOM      2  C   UNL     1      -5.393  -0.645  -4.896  0.00  0.00    +0.049 A 
ATOM      3  C   UNL     1      -6.076   0.471  -4.601  0.00  0.00    +0.046 A 
ATOM      4  N   UNL     1      -6.082   1.253  -5.705  0.00  0.00    -0.278 N 
ATOM      5  H   UNL     1      -6.502   2.123  -5.784  0.00  0.00    +0.189 HD
ATOM      6  N   UNL     1      -5.374   0.584  -6.716  0.00  0.00    -0.135 NA
ATOM      7  C   UNL     1      -4.960  -0.553  -6.237  0.00  0.00    +0.245 A 
ATOM      8  O   UNL     1      -4.240  -1.541  -6.832  0.00  0.00    -0.421 OA
ATOM      9  C   UNL     1      -4.177  -2.730  -6.200  0.00  0.00    +0.201 C 
ATOM     10  C   UNL     1      -4.549  -2.937  -4.919  0.00  0.00    +0.098 C 
ENDROOT
BRANCH   1  22
ATOM     11  N   UNL     1      -1.372  -0.511   0.012  0.00  0.00    -0.340 N 
ATOM     12  C   UNL     1      -2.105  -0.785   1.153  0.00  0.00    +0.050 A 
ATOM     13  C   UNL     1      -1.805  -0.679   2.508  0.00  0.00    +0.026 A 
ATOM     14  C   UNL     1      -2.746  -1.028   3.453  0.00  0.00    +0.002 A 
ATOM     15  C   UNL     1      -3.996  -1.487   3.067  0.00  0.00    +0.001 A 
ATOM     16  C   UNL     1      -4.312  -1.600   1.730  0.00  0.00    +0.010 A 
ATOM     17  C   UNL     1      -3.370  -1.250   0.765  0.00  0.00    +0.008 A 
ATOM     18  C   UNL     1      -3.382  -1.249  -0.709  0.00  0.00    +0.008 A 
ATOM     19  C   UNL     1      -2.125  -0.779  -1.117  0.00  0.00    +0.050 A 
ATOM     20  C   UNL     1      -1.849  -0.665  -2.476  0.00  0.00    +0.027 A 
ATOM     21  C   UNL     1      -2.806  -1.008  -3.406  0.00  0.00    +0.006 A 
ATOM     22  C   UNL     1      -4.049  -1.470  -3.002  0.00  0.00    -0.034 A 
ATOM     23  C   UNL     1      -4.338  -1.599  -1.660  0.00  0.00    +0.015 A 
BRANCH  11  25
ATOM     24  C   UNL     1      -0.019   1.526   0.010  0.00  0.00    +0.027 C 
ATOM     25  C   UNL     1       0.002  -0.004   0.002  0.00  0.00    +0.119 C 
ENDBRANCH  11  25
ENDBRANCH   1  22
BRANCH   9  26
ATOM     26  N   UNL     1      -3.700  -3.805  -6.908  0.00  0.00    -0.328 N 
ATOM     27  H   UNL     1      -3.423  -3.694  -7.831  0.00  0.00    +0.145 HD
ATOM     28  H   UNL     1      -3.640  -4.676  -6.485  0.00  0.00    +0.145 HD
ENDBRANCH   9  26
BRANCH   3  29
ATOM     29  C   UNL     1      -6.720   0.796  -3.277  0.00  0.00    +0.031 C 
ATOM     30  C   UNL     1      -6.110   2.082  -2.715  0.00  0.00    +0.014 C 
ATOM     31  C   UNL     1      -8.224   0.990  -3.476  0.00  0.00    +0.014 C 
ENDBRANCH   3  29
BRANCH  10  32
ATOM     32  C   UNL     1      -4.431  -4.257  -4.377  0.00  0.00    +0.101 C 
ATOM     33  N   UNL     1      -4.338  -5.305  -3.947  0.00  0.00    -0.191 NA
ENDBRANCH  10  32
TORSDOF 5
