REMARK  Name = ZINC13500122
REMARK  11 active torsions:
REMARK  status: ('A' for Active; 'I' for Inactive)
REMARK    1  A    between atoms: C_1  and  C_2
REMARK    2  A    between atoms: C_2  and  C_3
REMARK    3  A    between atoms: C_3  and  C_4
REMARK    4  A    between atoms: C_4  and  C_6
REMARK    5  A    between atoms: C_4  and  N_72
REMARK    6  A    between atoms: N_10  and  C_11
REMARK    7  A    between atoms: C_11  and  C_12
REMARK    8  A    between atoms: C_18  and  C_19
REMARK    9  A    between atoms: C_18  and  N_72
REMARK   10  A    between atoms: C_25  and  C_31
REMARK   11  A    between atoms: C_32  and  N_72
REMARK                            x       y       z     vdW  Elec       q    Type
REMARK                         _______ _______ _______ _____ _____    ______ ____
ROOT
ATOM      1  N   UNL     1      -0.308   2.837   1.313  0.00  0.00    +0.391 N 
ATOM      2  H   UNL     1      -0.496   3.274   2.224  0.00  0.00    -0.080 HD
ENDROOT
BRANCH   1   3
ATOM      3  C   UNL     1       1.129   2.979   1.000  0.00  0.00    -0.067 C 
ATOM      4  C   UNL     1       1.488   2.169  -0.248  0.00  0.00    -0.015 C 
ATOM      5  C   UNL     1       2.979   2.329  -0.548  0.00  0.00    -0.002 C 
ATOM      6  C   UNL     1       3.796   1.822   0.642  0.00  0.00    -0.000 C 
ATOM      7  C   UNL     1       3.438   2.632   1.889  0.00  0.00    -0.002 C 
ATOM      8  C   UNL     1       1.946   2.471   2.189  0.00  0.00    -0.015 C 
ENDBRANCH   1   3
BRANCH   1   9
ATOM      9  C   UNL     1      -0.672   1.407   1.384  0.00  0.00    +0.003 C 
BRANCH   9  10
ATOM     10  C   UNL     1      -0.776   0.820  -0.001  0.00  0.00    +0.138 A 
ATOM     11  N   UNL     1      -1.452   1.311  -1.010  0.00  0.00    -0.115 NA
ATOM     12  N   UNL     1      -1.290   0.525  -2.018  0.00  0.00    -0.023 NA
ATOM     13  N   UNL     1      -0.534  -0.459  -1.675  0.00  0.00    -0.044 NA
ATOM     14  N   UNL     1      -0.196  -0.313  -0.439  0.00  0.00    -0.226 N 
BRANCH  14  15
ATOM     15  C   UNL     1       0.658  -1.212   0.342  0.00  0.00    +0.182 C 
BRANCH  15  16
ATOM     16  C   UNL     1      -0.195  -2.260   1.009  0.00  0.00    -0.026 A 
ATOM     17  C   UNL     1      -0.706  -2.033   2.273  0.00  0.00    +0.005 A 
ATOM     18  C   UNL     1      -1.492  -2.993   2.883  0.00  0.00    +0.000 A 
ATOM     19  C   UNL     1      -1.757  -4.184   2.234  0.00  0.00    +0.000 A 
ATOM     20  C   UNL     1      -1.241  -4.414   0.972  0.00  0.00    +0.000 A 
ATOM     21  C   UNL     1      -0.460  -3.452   0.360  0.00  0.00    +0.005 A 
ENDBRANCH  15  16
ENDBRANCH  14  15
ENDBRANCH   9  10
BRANCH   9  22
ATOM     22  C   UNL     1      -2.020   1.276   2.095  0.00  0.00    -0.008 C 
BRANCH  22  24
ATOM     23  C   UNL     1      -3.252   1.733   4.220  0.00  0.00    +0.004 C 
ATOM     24  C   UNL     1      -1.880   1.751   3.543  0.00  0.00    -0.005 C 
ENDBRANCH  22  24
ENDBRANCH   9  22
ENDBRANCH   1   9
BRANCH   1  25
ATOM     25  C   UNL     1      -1.120   3.514   0.280  0.00  0.00    -0.036 C 
BRANCH  25  26
ATOM     26  C   UNL     1      -1.025   5.004   0.490  0.00  0.00    +0.001 A 
ATOM     27  C   UNL     1      -0.132   5.731  -0.226  0.00  0.00    +0.017 A 
ATOM     28  C   UNL     1      -0.065   7.176   0.001  0.00  0.00    -0.001 A 
ATOM     29  C   UNL     1       0.836   7.978  -0.707  0.00  0.00    +0.010 A 
ATOM     30  C   UNL     1       0.875   9.323  -0.471  0.00  0.00    +0.001 A 
ATOM     31  C   UNL     1       0.027   9.901   0.464  0.00  0.00    +0.005 A 
ATOM     32  C   UNL     1      -0.869   9.130   1.173  0.00  0.00    -0.026 A 
ATOM     33  C   UNL     1      -0.926   7.758   0.950  0.00  0.00    +0.052 A 
ATOM     34  N   UNL     1      -1.812   6.963   1.645  0.00  0.00    -0.322 N 
ATOM     35  H   UNL     1      -2.405   7.366   2.298  0.00  0.00    +0.169 HD
ATOM     36  C   UNL     1      -1.871   5.638   1.425  0.00  0.00    +0.251 A 
ATOM     37  O   UNL     1      -2.670   4.966   2.054  0.00  0.00    -0.268 OA
ATOM     38  C   UNL     1      -1.783   9.771   2.185  0.00  0.00    +0.046 C 
ENDBRANCH  25  26
ENDBRANCH   1  25
TORSDOF 9
