REMARK  Name = ZINC57142821
REMARK  6 active torsions:
REMARK  status: ('A' for Active; 'I' for Inactive)
REMARK    1  A    between atoms: C_1  and  C_2
REMARK    2  A    between atoms: C_2  and  C_3
REMARK    3  A    between atoms: N_15  and  C_18
REMARK    4  A    between atoms: C_18  and  C_19
REMARK    5  A    between atoms: C_19  and  C_21
REMARK    6  A    between atoms: C_19  and  O_22
REMARK                            x       y       z     vdW  Elec       q    Type
REMARK                         _______ _______ _______ _____ _____    ______ ____
ROOT
ATOM      1  C   UNL     1       0.707  -0.490  -1.238  0.00  0.00    -0.030 A 
ATOM      2  C   UNL     1       2.028  -0.806  -1.211  0.00  0.00    +0.096 A 
ATOM      3  C   UNL     1       2.665  -1.259  -2.385  0.00  0.00    +0.337 A 
ATOM      4  O   UNL     1       3.850  -1.538  -2.346  0.00  0.00    -0.245 OA
ATOM      5  O   UNL     1       2.000  -1.391  -3.542  0.00  0.00    -0.422 OA
ATOM      6  C   UNL     1       0.686  -1.092  -3.638  0.00  0.00    +0.147 A 
ATOM      7  C   UNL     1      -0.013  -0.640  -2.504  0.00  0.00    +0.021 A 
ATOM      8  C   UNL     1      -1.376  -0.337  -2.598  0.00  0.00    +0.015 A 
ATOM      9  C   UNL     1      -2.022  -0.486  -3.790  0.00  0.00    +0.047 A 
ATOM     10  C   UNL     1      -1.335  -0.937  -4.919  0.00  0.00    +0.130 A 
ATOM     11  C   UNL     1       0.016  -1.229  -4.846  0.00  0.00    +0.051 A 
ATOM     12  C   UNL     1       0.770  -1.709  -6.059  0.00  0.00    +0.130 C 
ATOM     13  N   UNL     1      -0.180  -2.167  -7.082  0.00  0.00    -0.264 NA
ATOM     14  C   UNL     1      -1.229  -1.155  -7.289  0.00  0.00    +0.318 C 
ATOM     15  O   UNL     1      -2.012  -1.075  -6.089  0.00  0.00    -0.476 OA
ENDROOT
BRANCH   1  17
ATOM     16  C   UNL     1      -0.019   1.526   0.010  0.00  0.00    +0.009 C 
ATOM     17  C   UNL     1       0.002  -0.004   0.002  0.00  0.00    +0.033 C 
ENDBRANCH   1  17
BRANCH  13  18
ATOM     18  C   UNL     1       0.510  -2.476  -8.341  0.00  0.00    +0.119 C 
BRANCH  18  19
ATOM     19  C   UNL     1      -0.458  -3.180  -9.294  0.00  0.00    +0.126 C 
ATOM     20  C   UNL     1       0.261  -3.502 -10.606  0.00  0.00    +0.039 C 
BRANCH  19  21
ATOM     21  O   UNL     1      -0.920  -4.392  -8.694  0.00  0.00    -0.391 OA
ATOM     22  H   UNL     1      -0.215  -5.021  -8.487  0.00  0.00    +0.210 HD
ENDBRANCH  19  21
ENDBRANCH  18  19
ENDBRANCH  13  18
TORSDOF 4
