REMARK  Name = ZINC19790686
REMARK  13 active torsions:
REMARK  status: ('A' for Active; 'I' for Inactive)
REMARK    1  A    between atoms: C_1  and  C_2
REMARK    2  A    between atoms: C_6  and  C_40
REMARK    3  A    between atoms: C_8  and  O_11
REMARK    4  A    between atoms: O_11  and  C_12
REMARK    5  A    between atoms: C_12  and  C_13
REMARK    6  A    between atoms: C_13  and  C_15
REMARK    7  A    between atoms: C_13  and  O_39
REMARK    8  A    between atoms: C_15  and  N_16
REMARK    9  A    between atoms: N_19  and  C_22
REMARK   10  A    between atoms: C_22  and  C_23
REMARK   11  A    between atoms: C_23  and  N_24
REMARK   12  A    between atoms: C_40  and  C_41
REMARK   13  A    between atoms: C_40  and  C_42
REMARK                            x       y       z     vdW  Elec       q    Type
REMARK                         _______ _______ _______ _____ _____    ______ ____
ROOT
ATOM      1  N   UNL     1       7.728   7.711   1.677  0.00  0.00    -0.303 NA
ATOM      2  C   UNL     1       6.701   8.575   2.275  0.00  0.00    +0.066 C 
ATOM      3  C   UNL     1       5.336   7.893   2.166  0.00  0.00    -0.063 C 
ATOM      4  N   UNL     1       5.037   7.625   0.753  0.00  0.00    +0.382 N 
ATOM      5  C   UNL     1       6.063   6.760   0.154  0.00  0.00    -0.063 C 
ATOM      6  C   UNL     1       7.428   7.443   0.263  0.00  0.00    +0.066 C 
ATOM      7  H   UNL     1       5.046   8.585   0.216  0.00  0.00    -0.082 HD
ENDROOT
BRANCH   1   8
ATOM      8  C   UNL     1       9.066   8.299   1.829  0.00  0.00    +0.117 C 
BRANCH   8   9
ATOM      9  C   UNL     1      10.069   7.508   0.988  0.00  0.00    +0.154 C 
BRANCH   9  10
ATOM     10  O   UNL     1      10.093   6.149   1.427  0.00  0.00    -0.388 OA
ATOM     11  H   UNL     1       9.177   5.542   1.388  0.00  0.00    +0.210 HD
ENDBRANCH   9  10
BRANCH   9  12
ATOM     12  C   UNL     1      11.462   8.120   1.146  0.00  0.00    +0.192 C 
BRANCH  12  13
ATOM     13  O   UNL     1      12.377   7.457   0.272  0.00  0.00    -0.374 OA
BRANCH  13  19
ATOM     14  C   UNL     1      15.897   9.197   1.852  0.00  0.00    +0.007 C 
ATOM     15  C   UNL     1      15.924   7.712   1.482  0.00  0.00    -0.012 C 
ATOM     16  C   UNL     1      16.606   7.538   0.124  0.00  0.00    +0.004 C 
ATOM     17  C   UNL     1      15.828   8.314  -0.941  0.00  0.00    +0.006 C 
ATOM     18  C   UNL     1      14.396   7.781  -1.016  0.00  0.00    +0.020 C 
ATOM     19  C   UNL     1      13.714   7.955   0.343  0.00  0.00    +0.122 C 
ATOM     20  C   UNL     1      14.492   7.179   1.407  0.00  0.00    +0.035 C 
BRANCH  18  21
ATOM     21  C   UNL     1      13.618   8.557  -2.080  0.00  0.00    -0.012 C 
ATOM     22  C   UNL     1      13.679  10.053  -1.767  0.00  0.00    +0.007 C 
ATOM     23  C   UNL     1      14.237   8.298  -3.455  0.00  0.00    +0.007 C 
ENDBRANCH  18  21
ENDBRANCH  13  19
ENDBRANCH  12  13
ENDBRANCH   9  12
ENDBRANCH   8   9
ENDBRANCH   1   8
BRANCH   4  24
ATOM     24  C   UNL     1       3.699   7.037   0.600  0.00  0.00    -0.059 C 
BRANCH  24  25
ATOM     25  C   UNL     1       3.323   7.003  -0.883  0.00  0.00    +0.098 C 
BRANCH  25  26
ATOM     26  N   UNL     1       1.989   6.417  -1.035  0.00  0.00    -0.236 N 
ATOM     27  C   UNL     1       1.881   5.085  -1.201  0.00  0.00    +0.254 C 
ATOM     28  O   UNL     1       2.882   4.395  -1.222  0.00  0.00    -0.270 OA
ATOM     29  C   UNL     1       0.559   4.460  -1.357  0.00  0.00    +0.046 A 
ATOM     30  C   UNL     1       0.402   3.093  -1.531  0.00  0.00    +0.014 A 
ATOM     31  C   UNL     1      -0.869   2.549  -1.674  0.00  0.00    +0.001 A 
ATOM     32  C   UNL     1      -1.988   3.331  -1.655  0.00  0.00    +0.008 A 
ATOM     33  C   UNL     1      -1.873   4.720  -1.475  0.00  0.00    -0.016 A 
ATOM     34  C   UNL     1      -0.588   5.285  -1.329  0.00  0.00    +0.006 A 
ATOM     35  C   UNL     1      -0.439   6.679  -1.153  0.00  0.00    +0.046 A 
ATOM     36  C   UNL     1      -1.571   7.480  -1.127  0.00  0.00    +0.014 A 
ATOM     37  C   UNL     1      -2.832   6.911  -1.272  0.00  0.00    +0.001 A 
ATOM     38  C   UNL     1      -2.995   5.566  -1.443  0.00  0.00    +0.008 A 
ATOM     39  C   UNL     1       0.916   7.230  -1.004  0.00  0.00    +0.254 C 
ATOM     40  O   UNL     1       1.069   8.427  -0.852  0.00  0.00    -0.270 OA
ENDBRANCH  25  26
ENDBRANCH  24  25
ENDBRANCH   4  24
TORSDOF 10
