REMARK  Name = ZINC45630244
REMARK  3 active torsions:
REMARK  status: ('A' for Active; 'I' for Inactive)
REMARK    1  A    between atoms: C_2  and  N_9
REMARK    2  A    between atoms: C_10  and  C_12
REMARK    3  A    between atoms: C_12  and  N_13
REMARK                            x       y       z     vdW  Elec       q    Type
REMARK                         _______ _______ _______ _____ _____    ______ ____
ROOT
ATOM      1  N   UNL     1       3.658   6.181   0.311  0.00  0.00    -0.215 N 
ATOM      2  C   UNL     1       4.369   6.325   1.452  0.00  0.00    +0.247 C 
ATOM      3  O   UNL     1       4.187   5.794   2.520  0.00  0.00    -0.273 OA
ATOM      4  C   UNL     1       5.433   7.351   1.101  0.00  0.00    +0.113 C 
ATOM      5  C   UNL     1       4.824   8.745   1.235  0.00  0.00    +0.035 C 
ATOM      6  C   UNL     1       5.901   9.828   1.294  0.00  0.00    +0.003 C 
ATOM      7  C   UNL     1       6.403  10.241  -0.102  0.00  0.00    +0.000 C 
ATOM      8  C   UNL     1       7.357   9.149  -0.618  0.00  0.00    +0.000 C 
ATOM      9  C   UNL     1       8.277   8.691   0.515  0.00  0.00    +0.000 C 
ATOM     10  C   UNL     1       7.941   7.274   0.968  0.00  0.00    +0.003 C 
ATOM     11  C   UNL     1       6.718   7.201   1.881  0.00  0.00    +0.035 C 
ATOM     12  N   UNL     1       5.625   6.980  -0.317  0.00  0.00    -0.285 N 
ATOM     13  C   UNL     1       4.416   6.534  -0.734  0.00  0.00    +0.310 C 
ATOM     14  O   UNL     1       4.074   6.466  -1.892  0.00  0.00    -0.252 OA
ATOM     15  H   UNL     1       6.427   6.928  -0.836  0.00  0.00    +0.151 HD
ENDROOT
BRANCH   1  16
ATOM     16  C   UNL     1       2.291   5.677   0.225  0.00  0.00    +0.214 C 
BRANCH  16  18
ATOM     17  N   UNL     1       1.160   3.488   0.009  0.00  0.00    -0.284 N 
ATOM     18  C   UNL     1       2.315   4.175   0.104  0.00  0.00    +0.235 C 
ATOM     19  O   UNL     1       3.375   3.585   0.091  0.00  0.00    -0.274 OA
ATOM     20  H   UNL     1       0.316   3.963  -0.048  0.00  0.00    +0.155 HD
BRANCH  17  22
ATOM     21  C   UNL     1       0.154   1.374   0.602  0.00  0.00    +0.061 A 
ATOM     22  C   UNL     1       1.177   2.089  -0.006  0.00  0.00    +0.039 A 
ATOM     23  C   UNL     1       2.218   1.413  -0.629  0.00  0.00    +0.061 A 
ATOM     24  C   UNL     1       2.233   0.030  -0.644  0.00  0.00    +0.128 A 
ATOM     25  C   UNL     1       1.211  -0.681  -0.037  0.00  0.00    +0.076 A 
ATOM     26  C   UNL     1       0.173  -0.009   0.586  0.00  0.00    +0.128 A 
ATOM     27  F   UNL     1      -0.823  -0.705   1.177  0.00  0.00    -0.205 F 
ATOM     28  F   UNL     1       3.245  -0.628  -1.251  0.00  0.00    -0.205 F 
ENDBRANCH  17  22
ENDBRANCH  16  18
ENDBRANCH   1  16
TORSDOF 3
