REMARK  Name = ZINC36158648
REMARK  10 active torsions:
REMARK  status: ('A' for Active; 'I' for Inactive)
REMARK    1  A    between atoms: C_1  and  C_2
REMARK    2  A    between atoms: C_2  and  C_3
REMARK    3  A    between atoms: C_3  and  N_4
REMARK    4  A    between atoms: N_4  and  C_5
REMARK    5  A    between atoms: N_4  and  C_21
REMARK    6  A    between atoms: C_5  and  C_6
REMARK    7  A    between atoms: C_21  and  C_22
REMARK    8  A    between atoms: C_22  and  C_24
REMARK    9  A    between atoms: C_22  and  O_31
REMARK   10  A    between atoms: C_24  and  C_25
REMARK                            x       y       z     vdW  Elec       q    Type
REMARK                         _______ _______ _______ _____ _____    ______ ____
ROOT
ATOM      1  N   UNL     1       0.701  -2.084   1.090  0.00  0.00    +0.386 N 
ATOM      2  H   UNL     1      -0.219  -2.422   0.850  0.00  0.00    -0.081 HD
ENDROOT
BRANCH   1   3
ATOM      3  C   UNL     1       0.641  -0.638   1.342  0.00  0.00    -0.078 C 
BRANCH   3   5
ATOM      4  C   UNL     1       1.980   1.378   1.964  0.00  0.00    +0.002 C 
ATOM      5  C   UNL     1       2.052  -0.107   1.603  0.00  0.00    -0.022 C 
ENDBRANCH   3   5
ENDBRANCH   1   3
BRANCH   1   6
ATOM      6  C   UNL     1       1.175  -2.773   2.298  0.00  0.00    -0.003 C 
BRANCH   6   7
ATOM      7  C   UNL     1       0.164  -2.602   3.403  0.00  0.00    +0.094 A 
ATOM      8  N   UNL     1       0.405  -3.157   4.618  0.00  0.00    -0.312 N 
ATOM      9  H   UNL     1       1.225  -3.656   4.759  0.00  0.00    +0.170 HD
ATOM     10  C   UNL     1      -0.470  -3.029   5.633  0.00  0.00    +0.260 A 
ATOM     11  O   UNL     1      -0.239  -3.533   6.718  0.00  0.00    -0.267 OA
ATOM     12  C   UNL     1      -1.679  -2.290   5.415  0.00  0.00    +0.075 A 
ATOM     13  C   UNL     1      -2.764  -2.023   6.359  0.00  0.00    -0.023 A 
ATOM     14  C   UNL     1      -3.804  -1.294   5.906  0.00  0.00    -0.004 A 
ATOM     15  S   UNL     1      -3.406  -0.923   4.218  0.00  0.00    -0.073 S 
ATOM     16  C   UNL     1      -1.839  -1.753   4.128  0.00  0.00    +0.116 A 
ATOM     17  N   UNL     1      -0.925  -1.918   3.176  0.00  0.00    -0.229 NA
ATOM     18  C   UNL     1      -5.029  -0.888   6.667  0.00  0.00    +0.043 C 
ATOM     19  C   UNL     1      -5.110  -1.739   7.943  0.00  0.00    +0.005 C 
ATOM     20  C   UNL     1      -3.739  -1.730   8.626  0.00  0.00    +0.005 C 
ATOM     21  C   UNL     1      -2.740  -2.538   7.796  0.00  0.00    +0.037 C 
ENDBRANCH   6   7
ENDBRANCH   1   6
BRANCH   1  22
ATOM     22  C   UNL     1       1.626  -2.350  -0.020  0.00  0.00    -0.046 C 
BRANCH  22  23
ATOM     23  C   UNL     1       1.069  -1.736  -1.306  0.00  0.00    +0.102 C 
BRANCH  23  24
ATOM     24  O   UNL     1      -0.209  -2.306  -1.592  0.00  0.00    -0.393 OA
ATOM     25  H   UNL     1      -0.193  -3.265  -1.718  0.00  0.00    +0.210 HD
ENDBRANCH  23  24
BRANCH  23  26
ATOM     26  C   UNL     1       2.027  -2.022  -2.464  0.00  0.00    +0.064 C 
BRANCH  26  27
ATOM     27  C   UNL     1       1.542  -1.314  -3.703  0.00  0.00    -0.045 A 
ATOM     28  C   UNL     1       0.669  -1.950  -4.565  0.00  0.00    +0.004 A 
ATOM     29  C   UNL     1       0.224  -1.300  -5.702  0.00  0.00    +0.000 A 
ATOM     30  C   UNL     1       0.653  -0.015  -5.976  0.00  0.00    +0.000 A 
ATOM     31  C   UNL     1       1.527   0.621  -5.114  0.00  0.00    +0.000 A 
ATOM     32  C   UNL     1       1.968  -0.027  -3.975  0.00  0.00    +0.004 A 
ENDBRANCH  26  27
ENDBRANCH  23  26
ENDBRANCH  22  23
ENDBRANCH   1  22
TORSDOF 9
