REMARK  Name = ZINC07048508
REMARK  7 active torsions:
REMARK  status: ('A' for Active; 'I' for Inactive)
REMARK    1  A    between atoms: C_1  and  C_2
REMARK    2  A    between atoms: C_5  and  C_8
REMARK    3  A    between atoms: C_14  and  C_16
REMARK    4  A    between atoms: C_16  and  S_17
REMARK    5  A    between atoms: S_17  and  C_18
REMARK    6  A    between atoms: C_20  and  C_25
REMARK    7  A    between atoms: C_22  and  N_24
REMARK                            x       y       z     vdW  Elec       q    Type
REMARK                         _______ _______ _______ _____ _____    ______ ____
ROOT
ATOM      1  C   UNL     1      -1.440   2.058  -5.800  0.00  0.00    +0.080 A 
ATOM      2  C   UNL     1      -2.531   2.807  -5.458  0.00  0.00    +0.076 A 
ATOM      3  S   UNL     1      -2.436   2.736  -3.674  0.00  0.00    -0.060 S 
ATOM      4  C   UNL     1      -0.961   1.733  -3.569  0.00  0.00    +0.165 A 
ATOM      5  N   UNL     1      -0.682   1.540  -4.845  0.00  0.00    -0.225 NA
ATOM      6  N   UNL     1      -0.288   1.272  -2.443  0.00  0.00    -0.264 N 
ATOM      7  C   UNL     1      -0.742   1.585  -1.213  0.00  0.00    +0.229 C 
ATOM      8  O   UNL     1      -1.736   2.268  -1.088  0.00  0.00    -0.275 OA
ATOM      9  H   UNL     1       0.507   0.726  -2.543  0.00  0.00    +0.157 HD
ENDROOT
BRANCH   1  14
ATOM     10  C   UNL     1      -0.149   1.163 -11.340  0.00  0.00    +0.044 C 
ATOM     11  C   UNL     1      -0.486   1.398  -9.890  0.00  0.00    -0.050 A 
ATOM     12  C   UNL     1       0.311   0.852  -8.900  0.00  0.00    +0.004 A 
ATOM     13  C   UNL     1       0.006   1.063  -7.571  0.00  0.00    +0.010 A 
ATOM     14  C   UNL     1      -1.107   1.828  -7.226  0.00  0.00    +0.001 A 
ATOM     15  C   UNL     1      -1.911   2.370  -8.228  0.00  0.00    +0.010 A 
ATOM     16  C   UNL     1      -1.593   2.157  -9.555  0.00  0.00    +0.004 A 
ENDBRANCH   1  14
BRANCH   7  17
ATOM     17  C   UNL     1      -0.013   1.086   0.008  0.00  0.00    +0.173 C 
BRANCH  17  18
ATOM     18  S   UNL     1      -0.860   1.669   1.497  0.00  0.00    -0.077 S 
BRANCH  18  19
ATOM     19  C   UNL     1       0.174   0.961   2.735  0.00  0.00    +0.191 A 
ATOM     20  N   UNL     1      -0.116   1.162   4.013  0.00  0.00    -0.227 NA
ATOM     21  C   UNL     1       0.637   0.645   4.972  0.00  0.00    +0.044 A 
ATOM     22  C   UNL     1       1.741  -0.113   4.630  0.00  0.00    +0.066 A 
ATOM     23  C   UNL     1       2.022  -0.308   3.276  0.00  0.00    +0.121 A 
ATOM     24  N   UNL     1       1.220   0.235   2.366  0.00  0.00    -0.207 NA
ATOM     25  C   UNL     1       0.296   0.882   6.420  0.00  0.00    +0.066 C 
BRANCH  23  26
ATOM     26  N   UNL     1       3.117  -1.061   2.887  0.00  0.00    -0.343 N 
ATOM     27  H   UNL     1       3.696  -1.458   3.557  0.00  0.00    +0.144 HD
ATOM     28  H   UNL     1       3.306  -1.192   1.945  0.00  0.00    +0.144 HD
ENDBRANCH  23  26
ENDBRANCH  18  19
ENDBRANCH  17  18
ENDBRANCH   7  17
TORSDOF 5
