REMARK  Name = ZINC34749882
REMARK  9 active torsions:
REMARK  status: ('A' for Active; 'I' for Inactive)
REMARK    1  A    between atoms: C_1  and  C_2
REMARK    2  A    between atoms: C_2  and  C_37
REMARK    3  A    between atoms: C_9  and  N_20
REMARK    4  A    between atoms: C_11  and  C_13
REMARK    5  A    between atoms: C_13  and  C_14
REMARK    6  A    between atoms: N_23  and  C_26
REMARK    7  A    between atoms: C_26  and  C_27
REMARK    8  A    between atoms: C_27  and  C_28
REMARK    9  A    between atoms: C_28  and  C_29
REMARK                            x       y       z     vdW  Elec       q    Type
REMARK                         _______ _______ _______ _____ _____    ______ ____
ROOT
ATOM      1  C   UNL     1       0.000   1.488   0.023  0.00  0.00    +0.041 C 
ATOM      2  C   UNL     1       0.008  -0.042   0.012  0.00  0.00    +0.068 C 
ATOM      3  C   UNL     1      -1.434  -0.557   0.003  0.00  0.00    +0.071 C 
ATOM      4  C   UNL     1      -2.057  -0.250   1.363  0.00  0.00    -0.020 A 
ATOM      5  C   UNL     1      -1.251   0.036   2.413  0.00  0.00    +0.021 A 
ATOM      6  S   UNL     1      -2.346   0.327   3.777  0.00  0.00    -0.071 S 
ATOM      7  C   UNL     1      -3.879   0.066   2.943  0.00  0.00    +0.114 A 
ATOM      8  C   UNL     1      -3.486  -0.242   1.615  0.00  0.00    +0.051 A 
ATOM      9  C   UNL     1      -4.529  -0.508   0.682  0.00  0.00    +0.133 A 
ATOM     10  N   UNL     1      -5.769  -0.437   1.161  0.00  0.00    -0.216 NA
ATOM     11  C   UNL     1      -6.059  -0.144   2.413  0.00  0.00    +0.137 A 
ATOM     12  N   UNL     1      -5.137   0.114   3.333  0.00  0.00    -0.224 NA
ATOM     13  C   UNL     1       0.245   0.087   2.393  0.00  0.00    +0.203 C 
ATOM     14  O   UNL     1       0.693  -0.521   1.172  0.00  0.00    -0.368 OA
ATOM     15  C   UNL     1       0.728  -0.537  -1.244  0.00  0.00    +0.041 C 
ENDROOT
BRANCH   9  16
ATOM     16  N   UNL     1      -4.269  -0.820  -0.641  0.00  0.00    -0.318 N 
ATOM     17  C   UNL     1      -3.969  -2.201  -1.047  0.00  0.00    +0.088 C 
ATOM     18  C   UNL     1      -4.872  -2.567  -2.230  0.00  0.00    -0.060 C 
ATOM     19  N   UNL     1      -4.707  -1.572  -3.297  0.00  0.00    +0.382 N 
ATOM     20  C   UNL     1      -5.175  -0.259  -2.833  0.00  0.00    -0.060 C 
ATOM     21  C   UNL     1      -4.292   0.220  -1.681  0.00  0.00    +0.088 C 
ATOM     22  H   UNL     1      -3.732  -1.510  -3.549  0.00  0.00    -0.082 HD
BRANCH  19  23
ATOM     23  C   UNL     1      -5.488  -1.981  -4.471  0.00  0.00    -0.078 C 
BRANCH  23  24
ATOM     24  C   UNL     1      -5.219  -1.013  -5.625  0.00  0.00    -0.014 C 
BRANCH  24  25
ATOM     25  C   UNL     1      -6.033  -1.440  -6.849  0.00  0.00    +0.033 C 
BRANCH  25  26
ATOM     26  C   UNL     1      -5.769  -0.487  -7.985  0.00  0.00    -0.047 A 
ATOM     27  C   UNL     1      -6.553   0.641  -8.138  0.00  0.00    +0.003 A 
ATOM     28  C   UNL     1      -6.311   1.516  -9.181  0.00  0.00    +0.000 A 
ATOM     29  C   UNL     1      -5.283   1.263 -10.070  0.00  0.00    +0.000 A 
ATOM     30  C   UNL     1      -4.498   0.136  -9.917  0.00  0.00    +0.000 A 
ATOM     31  C   UNL     1      -4.738  -0.737  -8.872  0.00  0.00    +0.003 A 
ENDBRANCH  25  26
ENDBRANCH  24  25
ENDBRANCH  23  24
ENDBRANCH  19  23
ENDBRANCH   9  16
BRANCH  11  32
ATOM     32  C   UNL     1      -7.510  -0.098   2.820  0.00  0.00    +0.111 C 
BRANCH  32  33
ATOM     33  C   UNL     1      -7.942  -1.463   3.291  0.00  0.00    -0.040 A 
ATOM     34  C   UNL     1      -8.458  -2.374   2.389  0.00  0.00    +0.004 A 
ATOM     35  C   UNL     1      -8.855  -3.626   2.821  0.00  0.00    +0.000 A 
ATOM     36  C   UNL     1      -8.736  -3.966   4.155  0.00  0.00    +0.000 A 
ATOM     37  C   UNL     1      -8.219  -3.055   5.058  0.00  0.00    +0.000 A 
ATOM     38  C   UNL     1      -7.818  -1.805   4.625  0.00  0.00    +0.004 A 
ENDBRANCH  32  33
ENDBRANCH  11  32
TORSDOF 7
