REMARK  Name = ZINC12489531
REMARK  8 active torsions:
REMARK  status: ('A' for Active; 'I' for Inactive)
REMARK    1  A    between atoms: C_1  and  C_2
REMARK    2  A    between atoms: C_5  and  C_37
REMARK    3  A    between atoms: N_8  and  S_10
REMARK    4  A    between atoms: S_10  and  C_13
REMARK    5  A    between atoms: C_16  and  C_19
REMARK    6  A    between atoms: C_19  and  O_21
REMARK    7  A    between atoms: O_21  and  C_22
REMARK    8  A    between atoms: C_36  and  N_68
REMARK                            x       y       z     vdW  Elec       q    Type
REMARK                         _______ _______ _______ _____ _____    ______ ____
ROOT
ATOM      1  C   UNL     1      -7.620   1.470   0.080  0.00  0.00    +0.344 C 
ATOM      2  O   UNL     1      -8.103   1.112   1.136  0.00  0.00    -0.245 OA
ENDROOT
BRANCH   1   6
ATOM      3  C   UNL     1      -4.017   3.718   0.046  0.00  0.00    +0.106 A 
ATOM      4  C   UNL     1      -4.641   3.399  -1.147  0.00  0.00    +0.029 A 
ATOM      5  C   UNL     1      -5.809   2.665  -1.143  0.00  0.00    +0.017 A 
ATOM      6  C   UNL     1      -6.367   2.252   0.068  0.00  0.00    +0.060 A 
ATOM      7  C   UNL     1      -5.735   2.582   1.269  0.00  0.00    +0.017 A 
ATOM      8  C   UNL     1      -4.564   3.312   1.251  0.00  0.00    +0.029 A 
BRANCH   3   9
ATOM      9  S   UNL     1      -2.523   4.651   0.032  0.00  0.00    +0.061 S 
ATOM     10  O   UNL     1      -2.431   5.290   1.298  0.00  0.00    -0.153 OA
ATOM     11  O   UNL     1      -2.508   5.376  -1.190  0.00  0.00    -0.153 OA
BRANCH   9  17
ATOM     12  C   UNL     1      -2.202   1.093  -1.335  0.00  0.00    +0.009 C 
ATOM     13  C   UNL     1      -0.757   1.593  -1.379  0.00  0.00    +0.002 C 
ATOM     14  C   UNL     1       0.009   1.050  -0.170  0.00  0.00    +0.009 C 
ATOM     15  C   UNL     1      -0.680   1.507   1.119  0.00  0.00    +0.002 C 
ATOM     16  C   UNL     1      -0.666   3.038   1.185  0.00  0.00    +0.112 C 
ATOM     17  N   UNL     1      -1.271   3.570  -0.043  0.00  0.00    -0.176 NA
ATOM     18  C   UNL     1      -0.744   3.125  -1.341  0.00  0.00    +0.112 C 
ATOM     19  C   UNL     1       0.067   0.937   2.326  0.00  0.00    +0.009 C 
ENDBRANCH   9  17
ENDBRANCH   3   9
ENDBRANCH   1   6
BRANCH   1  20
ATOM     20  O   UNL     1      -8.227   1.154  -1.080  0.00  0.00    -0.422 OA
BRANCH  20  21
ATOM     21  C   UNL     1      -9.319   0.347  -1.005  0.00  0.00    +0.133 A 
ATOM     22  C   UNL     1     -10.546   0.858  -0.594  0.00  0.00    +0.048 A 
ATOM     23  C   UNL     1     -11.660   0.064  -0.512  0.00  0.00    +0.032 A 
ATOM     24  C   UNL     1     -11.597  -1.309  -0.844  0.00  0.00    +0.081 A 
ATOM     25  C   UNL     1     -10.336  -1.795  -1.257  0.00  0.00    +0.044 A 
ATOM     26  C   UNL     1      -9.224  -0.996  -1.343  0.00  0.00    +0.063 A 
ATOM     27  S   UNL     1     -10.675  -3.511  -1.570  0.00  0.00    -0.052 S 
ATOM     28  C   UNL     1     -12.412  -3.478  -1.147  0.00  0.00    +0.162 A 
ATOM     29  N   UNL     1     -12.595  -2.220  -0.815  0.00  0.00    -0.225 NA
ATOM     30  N   UNL     1     -13.328  -4.510  -1.166  0.00  0.00    -0.313 N 
ATOM     31  C   UNL     1     -13.391  -5.133  -2.496  0.00  0.00    +0.088 C 
ATOM     32  C   UNL     1     -14.356  -6.321  -2.454  0.00  0.00    -0.060 C 
ATOM     33  C   UNL     1     -15.620  -5.232  -0.700  0.00  0.00    -0.060 C 
ATOM     34  C   UNL     1     -14.655  -4.045  -0.742  0.00  0.00    +0.088 C 
ATOM     35  C   UNL     1     -16.658  -6.955  -2.050  0.00  0.00    -0.096 C 
ATOM     36  N   UNL     1     -15.691  -5.836  -2.048  0.00  0.00    +0.380 N 
ATOM     37  H   UNL     1     -16.005  -5.123  -2.717  0.00  0.00    -0.082 HD
ENDBRANCH  20  21
ENDBRANCH   1  20
TORSDOF 5
