REMARK  Name = ZINC22690679
REMARK  10 active torsions:
REMARK  status: ('A' for Active; 'I' for Inactive)
REMARK    1  A    between atoms: C_1  and  C_2
REMARK    2  A    between atoms: C_2  and  C_3
REMARK    3  A    between atoms: C_2  and  C_4
REMARK    4  A    between atoms: C_4  and  C_6
REMARK    5  A    between atoms: C_4  and  N_27
REMARK    6  A    between atoms: N_8  and  C_9
REMARK    7  A    between atoms: C_9  and  C_10
REMARK    8  A    between atoms: C_10  and  C_12
REMARK    9  A    between atoms: C_10  and  C_17
REMARK   10  A    between atoms: C_28  and  C_30
REMARK                            x       y       z     vdW  Elec       q    Type
REMARK                         _______ _______ _______ _____ _____    ______ ____
ROOT
ATOM      1  C   UNL     1       6.505   4.793   2.336  0.00  0.00    +0.234 C 
ATOM      2  O   UNL     1       6.172   5.728   3.033  0.00  0.00    -0.274 OA
ATOM      3  N   UNL     1       5.608   4.214   1.513  0.00  0.00    -0.313 N 
ATOM      4  H   UNL     1       5.928   3.421   0.821  0.00  0.00    +0.149 HD
ENDROOT
BRANCH   1   5
ATOM      5  C   UNL     1       7.920   4.277   2.390  0.00  0.00    +0.162 C 
BRANCH   5   6
ATOM      6  N   UNL     1       8.542   4.691   3.650  0.00  0.00    -0.299 N 
ATOM      7  C   UNL     1       9.564   3.977   4.163  0.00  0.00    +0.251 C 
ATOM      8  O   UNL     1       9.970   2.990   3.579  0.00  0.00    -0.270 OA
ATOM      9  H   UNL     1       8.175   5.583   4.178  0.00  0.00    +0.150 HD
BRANCH   7  10
ATOM     10  C   UNL     1      10.186   4.391   5.424  0.00  0.00    +0.074 A 
ATOM     11  C   UNL     1      11.236   3.804   6.114  0.00  0.00    +0.021 A 
ATOM     12  C   UNL     1      11.627   4.404   7.285  0.00  0.00    +0.008 A 
ATOM     13  C   UNL     1      10.980   5.523   7.706  0.00  0.00    +0.046 A 
ATOM     14  S   UNL     1       9.796   5.785   6.467  0.00  0.00    -0.092 S 
ENDBRANCH   7  10
ENDBRANCH   5   6
BRANCH   5  16
ATOM     15  C   UNL     1       8.845   6.366   1.378  0.00  0.00    +0.009 C 
ATOM     16  C   UNL     1       8.716   4.850   1.216  0.00  0.00    +0.012 C 
ATOM     17  C   UNL     1      10.110   4.220   1.190  0.00  0.00    +0.009 C 
ENDBRANCH   5  16
ENDBRANCH   1   5
BRANCH   3  18
ATOM     18  C   UNL     1       4.207   4.641   1.539  0.00  0.00    +0.117 C 
BRANCH  18  19
ATOM     19  C   UNL     1       3.407   3.832   0.516  0.00  0.00    +0.075 C 
BRANCH  19  20
ATOM     20  C   UNL     1       1.946   4.183   0.628  0.00  0.00    -0.013 A 
ATOM     21  C   UNL     1       1.402   5.398   0.456  0.00  0.00    +0.088 A 
ATOM     22  N   UNL     1       0.047   5.332   0.638  0.00  0.00    -0.360 N 
ATOM     23  H   UNL     1      -0.566   6.239   0.535  0.00  0.00    +0.165 HD
ATOM     24  C   UNL     1      -0.323   4.040   0.940  0.00  0.00    +0.047 A 
ATOM     25  C   UNL     1       0.851   3.264   0.947  0.00  0.00    +0.003 A 
ATOM     26  C   UNL     1       0.780   1.898   1.226  0.00  0.00    +0.010 A 
ATOM     27  C   UNL     1      -0.430   1.321   1.491  0.00  0.00    +0.001 A 
ATOM     28  C   UNL     1      -1.591   2.082   1.480  0.00  0.00    +0.002 A 
ATOM     29  C   UNL     1      -1.543   3.433   1.212  0.00  0.00    +0.026 A 
ENDBRANCH  19  20
BRANCH  19  30
ATOM     30  C   UNL     1       3.896   4.154  -0.872  0.00  0.00    -0.001 A 
ATOM     31  C   UNL     1       4.436   3.327  -1.801  0.00  0.00    +0.012 A 
ATOM     32  C   UNL     1       4.814   3.849  -3.024  0.00  0.00    +0.008 A 
ATOM     33  C   UNL     1       4.644   5.174  -3.255  0.00  0.00    +0.045 A 
ATOM     34  S   UNL     1       3.922   5.726  -1.718  0.00  0.00    -0.101 S 
ENDBRANCH  19  30
ENDBRANCH  18  19
ENDBRANCH   3  18
TORSDOF 8
