REMARK  Name = ZINC39668958
REMARK  6 active torsions:
REMARK  status: ('A' for Active; 'I' for Inactive)
REMARK    1  A    between atoms: C_10  and  C_12
REMARK    2  A    between atoms: C_12  and  N_13
REMARK    3  A    between atoms: C_14  and  C_16
REMARK    4  A    between atoms: C_27  and  C_29
REMARK    5  A    between atoms: C_32  and  O_35
REMARK    6  A    between atoms: O_35  and  C_36
REMARK                            x       y       z     vdW  Elec       q    Type
REMARK                         _______ _______ _______ _____ _____    ______ ____
ROOT
ATOM      1  C   UNL     1       8.867  -1.226   1.277  0.00  0.00    +0.100 C 
ATOM      2  C   UNL     1       9.153  -0.843  -0.192  0.00  0.00    +0.121 C 
ATOM      3  N   UNL     1       9.935   0.413  -0.106  0.00  0.00    -0.296 N 
ATOM      4  C   UNL     1      10.841   0.205   1.049  0.00  0.00    +0.115 C 
ATOM      5  C   UNL     1       9.979  -0.540   2.088  0.00  0.00    -0.004 C 
ATOM      6  C   UNL     1      10.818  -1.582   2.822  0.00  0.00    -0.010 C 
ATOM      7  C   UNL     1      11.880  -0.873   3.667  0.00  0.00    -0.082 C 
ATOM      8  N   UNL     1      11.225   0.023   4.628  0.00  0.00    +0.379 N 
ATOM      9  C   UNL     1      10.496   1.078   3.914  0.00  0.00    -0.082 C 
ATOM     10  C   UNL     1       9.376   0.451   3.079  0.00  0.00    -0.010 C 
ATOM     11  C   UNL     1       9.844   1.499  -0.899  0.00  0.00    +0.247 C 
ATOM     12  O   UNL     1       8.962   1.571  -1.732  0.00  0.00    -0.270 OA
ATOM     13  H   UNL     1      10.579  -0.507   5.193  0.00  0.00    -0.086 HD
ATOM     14  H   UNL     1      11.923   0.442   5.224  0.00  0.00    -0.086 HD
ENDROOT
BRANCH  11  15
ATOM     15  C   UNL     1      10.816   2.601  -0.755  0.00  0.00    +0.037 A 
ATOM     16  C   UNL     1      12.053   2.370  -0.149  0.00  0.00    +0.016 A 
ATOM     17  C   UNL     1      12.957   3.401  -0.017  0.00  0.00    +0.047 A 
ATOM     18  C   UNL     1      12.639   4.670  -0.487  0.00  0.00    +0.130 A 
ATOM     19  C   UNL     1      11.409   4.904  -1.091  0.00  0.00    +0.047 A 
ATOM     20  C   UNL     1      10.503   3.877  -1.231  0.00  0.00    +0.016 A 
BRANCH  18  21
ATOM     21  O   UNL     1      13.532   5.683  -0.354  0.00  0.00    -0.406 OA
BRANCH  21  22
ATOM     22  C   UNL     1      13.141   6.962  -0.859  0.00  0.00    +0.575 C 
ATOM     23  F   UNL     1      11.985   7.391  -0.198  0.00  0.00    -0.133 F 
ATOM     24  F   UNL     1      14.171   7.883  -0.642  0.00  0.00    -0.133 F 
ATOM     25  F   UNL     1      12.885   6.864  -2.231  0.00  0.00    -0.133 F 
ENDBRANCH  21  22
ENDBRANCH  18  21
ENDBRANCH  11  15
BRANCH   1  27
ATOM     26  N   UNL     1       6.858  -1.300   2.718  0.00  0.00    -0.312 N 
ATOM     27  C   UNL     1       7.516  -0.711   1.700  0.00  0.00    +0.218 C 
ATOM     28  O   UNL     1       7.019   0.234   1.124  0.00  0.00    -0.275 OA
ATOM     29  H   UNL     1       7.255  -2.056   3.179  0.00  0.00    +0.149 HD
BRANCH  26  30
ATOM     30  C   UNL     1       5.544  -0.800   3.129  0.00  0.00    +0.140 C 
BRANCH  30  40
ATOM     31  C   UNL     1       1.025  -0.409   5.190  0.00  0.00    +0.000 A 
ATOM     32  C   UNL     1       1.431  -0.576   3.878  0.00  0.00    +0.000 A 
ATOM     33  C   UNL     1       2.725  -0.971   3.604  0.00  0.00    +0.006 A 
ATOM     34  C   UNL     1       3.620  -1.202   4.637  0.00  0.00    -0.014 A 
ATOM     35  C   UNL     1       3.216  -1.032   5.945  0.00  0.00    -0.040 A 
ATOM     36  C   UNL     1       1.916  -0.638   6.220  0.00  0.00    +0.004 A 
ATOM     37  C   UNL     1       4.163  -1.261   7.095  0.00  0.00    +0.063 C 
ATOM     38  C   UNL     1       5.370  -2.071   6.618  0.00  0.00    +0.165 C 
ATOM     39  O   UNL     1       5.880  -1.466   5.424  0.00  0.00    -0.370 OA
ATOM     40  C   UNL     1       5.021  -1.639   4.297  0.00  0.00    +0.165 C 
ENDBRANCH  30  40
ENDBRANCH  26  30
ENDBRANCH   1  27
TORSDOF 6
