REMARK  Name = ZINC37360985
REMARK  4 active torsions:
REMARK  status: ('A' for Active; 'I' for Inactive)
REMARK    1  A    between atoms: C_3  and  N_8
REMARK    2  A    between atoms: C_9  and  N_29
REMARK    3  A    between atoms: C_11  and  C_21
REMARK    4  A    between atoms: N_17  and  C_18
REMARK                            x       y       z     vdW  Elec       q    Type
REMARK                         _______ _______ _______ _____ _____    ______ ____
ROOT
ATOM      1  N   UNL     1       3.524   2.356   0.343  0.00  0.00    -0.216 N 
ATOM      2  C   UNL     1       4.682   1.937   0.890  0.00  0.00    +0.131 A 
ATOM      3  C   UNL     1       5.674   2.829   0.503  0.00  0.00    +0.086 A 
ATOM      4  C   UNL     1       7.063   2.958   0.728  0.00  0.00    +0.091 A 
ATOM      5  N   UNL     1       7.698   3.982   0.171  0.00  0.00    -0.214 NA
ATOM      6  C   UNL     1       7.069   4.878  -0.584  0.00  0.00    +0.218 A 
ATOM      7  N   UNL     1       5.778   4.834  -0.844  0.00  0.00    -0.193 NA
ATOM      8  C   UNL     1       5.016   3.844  -0.339  0.00  0.00    +0.189 A 
ATOM      9  N   UNL     1       3.745   3.516  -0.408  0.00  0.00    -0.144 NA
ATOM     10  N   UNL     1       7.810   5.913  -1.125  0.00  0.00    -0.311 N 
ATOM     11  H   UNL     1       8.762   5.971  -0.950  0.00  0.00    +0.149 HD
ENDROOT
BRANCH   4  12
ATOM     12  C   UNL     1       7.791   1.978   1.563  0.00  0.00    +0.037 A 
ATOM     13  C   UNL     1       7.785   0.624   1.220  0.00  0.00    +0.016 A 
ATOM     14  C   UNL     1       8.465  -0.285   2.002  0.00  0.00    +0.039 A 
ATOM     15  C   UNL     1       9.154   0.140   3.127  0.00  0.00    +0.126 A 
ATOM     16  C   UNL     1       9.165   1.481   3.474  0.00  0.00    +0.077 A 
ATOM     17  C   UNL     1       8.492   2.404   2.695  0.00  0.00    +0.135 A 
ATOM     18  F   UNL     1       8.507   3.712   3.030  0.00  0.00    -0.205 F 
ATOM     19  F   UNL     1       9.817  -0.757   3.889  0.00  0.00    -0.205 F 
ENDBRANCH   4  12
BRANCH   1  22
ATOM     20  C   UNL     1      -0.100   1.848   0.715  0.00  0.00    +0.005 A 
ATOM     21  C   UNL     1       1.121   2.476   0.563  0.00  0.00    +0.028 A 
ATOM     22  C   UNL     1       2.285   1.722   0.497  0.00  0.00    +0.070 A 
ATOM     23  C   UNL     1       2.219   0.337   0.585  0.00  0.00    +0.066 A 
ATOM     24  C   UNL     1       0.994  -0.286   0.738  0.00  0.00    +0.125 A 
ATOM     25  C   UNL     1      -0.165   0.470   0.803  0.00  0.00    +0.038 A 
ATOM     26  F   UNL     1       0.927  -1.633   0.823  0.00  0.00    -0.205 F 
ENDBRANCH   1  22
BRANCH  10  27
ATOM     27  C   UNL     1       7.157   6.922  -1.962  0.00  0.00    +0.073 C 
ATOM     28  C   UNL     1       7.874   7.347  -3.245  0.00  0.00    +0.024 C 
ATOM     29  C   UNL     1       7.815   8.301  -2.050  0.00  0.00    +0.024 C 
ENDBRANCH  10  27
BRANCH   2  30
ATOM     30  N   UNL     1       4.851   0.823   1.691  0.00  0.00    -0.342 N 
ATOM     31  H   UNL     1       4.080   0.310   1.978  0.00  0.00    +0.144 HD
ATOM     32  H   UNL     1       5.742   0.554   1.965  0.00  0.00    +0.144 HD
ENDBRANCH   2  30
TORSDOF 4
