REMARK  Name = ZINC20351236
REMARK  1 active torsions:
REMARK  status: ('A' for Active; 'I' for Inactive)
REMARK    1  A    between atoms: C_16  and  C_18
REMARK                            x       y       z     vdW  Elec       q    Type
REMARK                         _______ _______ _______ _____ _____    ______ ____
ROOT
ATOM      1  C   UNL     1     -10.002   6.389  -3.579  0.00  0.00    +0.002 A 
ATOM      2  C   UNL     1     -10.546   5.322  -4.279  0.00  0.00    +0.001 A 
ATOM      3  C   UNL     1     -10.047   4.049  -4.068  0.00  0.00    +0.017 A 
ATOM      4  C   UNL     1      -9.025   3.862  -3.171  0.00  0.00    +0.041 A 
ATOM      5  C   UNL     1      -8.448   4.925  -2.440  0.00  0.00    +0.080 A 
ATOM      6  C   UNL     1      -8.982   6.212  -2.681  0.00  0.00    +0.029 A 
ATOM      7  N   UNL     1      -7.450   4.581  -1.596  0.00  0.00    -0.225 NA
ATOM      8  C   UNL     1      -7.039   3.341  -1.459  0.00  0.00    +0.162 A 
ATOM      9  S   UNL     1      -8.095   2.460  -2.601  0.00  0.00    -0.052 S 
ATOM     10  N   UNL     1      -6.041   2.845  -0.645  0.00  0.00    -0.307 N 
ATOM     11  C   UNL     1      -5.907   1.391  -0.802  0.00  0.00    +0.126 C 
ATOM     12  C   UNL     1      -4.922   0.856   0.243  0.00  0.00    +0.127 C 
ATOM     13  N   UNL     1      -3.665   1.611   0.130  0.00  0.00    -0.295 N 
ATOM     14  C   UNL     1      -3.733   3.080   0.147  0.00  0.00    +0.127 C 
ATOM     15  C   UNL     1      -4.766   3.528  -0.900  0.00  0.00    +0.126 C 
ATOM     16  C   UNL     1      -2.483   0.974   0.019  0.00  0.00    +0.247 C 
ATOM     17  O   UNL     1      -2.452  -0.236  -0.095  0.00  0.00    -0.270 OA
ENDROOT
BRANCH  16  18
ATOM     18  C   UNL     1      -1.224   1.746   0.035  0.00  0.00    +0.039 A 
ATOM     19  C   UNL     1      -1.085   2.817   0.927  0.00  0.00    +0.014 A 
ATOM     20  C   UNL     1       0.081   3.535   0.937  0.00  0.00    +0.018 A 
ATOM     21  C   UNL     1       1.100   3.197   0.078  0.00  0.00    +0.041 A 
ATOM     22  C   UNL     1       1.010   2.122  -0.837  0.00  0.00    +0.081 A 
ATOM     23  C   UNL     1      -0.199   1.396  -0.830  0.00  0.00    +0.042 A 
ATOM     24  N   UNL     1       2.099   1.919  -1.612  0.00  0.00    -0.225 NA
ATOM     25  C   UNL     1       3.174   2.668  -1.526  0.00  0.00    +0.157 A 
ATOM     26  S   UNL     1       2.730   3.829  -0.242  0.00  0.00    -0.053 S 
ATOM     27  N   UNL     1       4.349   2.580  -2.244  0.00  0.00    -0.337 N 
ATOM     28  H   UNL     1       5.166   3.291  -2.051  0.00  0.00    +0.144 HD
ATOM     29  H   UNL     1       4.468   1.799  -3.010  0.00  0.00    +0.144 HD
ENDBRANCH  16  18
TORSDOF 1
