REMARK  Name = ZINC09603368
REMARK  5 active torsions:
REMARK  status: ('A' for Active; 'I' for Inactive)
REMARK    1  A    between atoms: C_1  and  C_2
REMARK    2  A    between atoms: N_7  and  C_8
REMARK    3  A    between atoms: C_8  and  C_10
REMARK    4  A    between atoms: C_10  and  C_11
REMARK    5  A    between atoms: C_17  and  C_19
REMARK                            x       y       z     vdW  Elec       q    Type
REMARK                         _______ _______ _______ _____ _____    ______ ____
ROOT
ATOM      1  C   UNL     1      -0.014   1.212   0.009  0.00  0.00    +0.244 C 
ATOM      2  O   UNL     1       0.002  -0.004   0.002  0.00  0.00    -0.273 OA
ENDROOT
BRANCH   1   9
ATOM      3  C   UNL     1      -6.280  -0.063   0.029  0.00  0.00    +0.053 C 
ATOM      4  C   UNL     1      -4.798   0.212   0.025  0.00  0.00    +0.006 A 
ATOM      5  C   UNL     1      -3.781  -0.655   0.015  0.00  0.00    +0.095 A 
ATOM      6  N   UNL     1      -2.511  -0.172   0.007  0.00  0.00    -0.342 N 
ATOM      7  H   UNL     1      -1.659  -0.867  -0.009  0.00  0.00    +0.167 HD
ATOM      8  C   UNL     1      -2.319   1.177   0.019  0.00  0.00    +0.163 A 
ATOM      9  N   UNL     1      -1.172   1.860   0.018  0.00  0.00    -0.156 NA
ATOM     10  S   UNL     1      -3.946   1.780   0.030  0.00  0.00    -0.058 S 
ENDBRANCH   1   9
BRANCH   1  11
ATOM     11  C   UNL     1       1.280   1.984   0.001  0.00  0.00    +0.152 C 
BRANCH  11  12
ATOM     12  C   UNL     1       2.439   1.020  -0.016  0.00  0.00    +0.041 A 
ATOM     13  C   UNL     1       2.869   0.528  -1.177  0.00  0.00    +0.070 A 
ATOM     14  S   UNL     1       4.213  -0.527  -0.654  0.00  0.00    -0.057 S 
ATOM     15  C   UNL     1       4.088  -0.221   1.092  0.00  0.00    +0.178 A 
ATOM     16  N   UNL     1       3.043   0.663   1.170  0.00  0.00    -0.297 N 
ATOM     17  C   UNL     1       2.904   0.929   2.529  0.00  0.00    +0.116 A 
ATOM     18  C   UNL     1       3.843   0.225   3.182  0.00  0.00    +0.058 A 
ATOM     19  N   UNL     1       4.554  -0.470   2.281  0.00  0.00    -0.227 NA
ATOM     20  C   UNL     1       4.060   0.216   4.674  0.00  0.00    +0.067 C 
ENDBRANCH  11  12
ENDBRANCH   1  11
TORSDOF 3
