REMARK  Name = ZINC08592227
REMARK  4 active torsions:
REMARK  status: ('A' for Active; 'I' for Inactive)
REMARK    1  A    between atoms: C_1  and  C_2
REMARK    2  A    between atoms: C_5  and  C_8
REMARK    3  A    between atoms: C_12  and  C_25
REMARK    4  A    between atoms: C_14  and  C_18
REMARK                            x       y       z     vdW  Elec       q    Type
REMARK                         _______ _______ _______ _____ _____    ______ ____
ROOT
ATOM      1  C   UNL     1       0.058  -4.252  -0.021  0.00  0.00    +0.150 C 
ATOM      2  N   UNL     1       0.069  -5.061   1.099  0.00  0.00    -0.270 N 
ATOM      3  C   UNL     1       0.085  -6.367   0.682  0.00  0.00    +0.187 C 
ATOM      4  N   UNL     1       0.100  -7.500   1.346  0.00  0.00    -0.329 N 
ATOM      5  C   UNL     1       0.115  -8.726   0.766  0.00  0.00    +0.047 C 
ATOM      6  C   UNL     1       0.117  -8.875  -0.572  0.00  0.00    +0.028 C 
ATOM      7  C   UNL     1       0.100  -7.613  -1.415  0.00  0.00    +0.157 C 
ATOM      8  N   UNL     1       0.084  -6.339  -0.683  0.00  0.00    -0.183 N 
ATOM      9  N   UNL     1       0.062  -5.003  -1.087  0.00  0.00    -0.160 NA
ATOM     10  H   UNL     1       0.100  -7.457   2.315  0.00  0.00    +0.168 HD
ATOM     11  H   UNL     1       0.065  -4.757   2.020  0.00  0.00    +0.156 HD
ENDROOT
BRANCH   1  16
ATOM     12  C   UNL     1      -0.018   1.503   0.010  0.00  0.00    +0.044 C 
ATOM     13  C   UNL     1       0.002  -0.004   0.002  0.00  0.00    -0.050 A 
ATOM     14  C   UNL     1       0.006  -0.686  -1.202  0.00  0.00    +0.004 A 
ATOM     15  C   UNL     1       0.024  -2.066  -1.216  0.00  0.00    +0.011 A 
ATOM     16  C   UNL     1       0.039  -2.773  -0.013  0.00  0.00    +0.017 A 
ATOM     17  C   UNL     1       0.036  -2.079   1.197  0.00  0.00    +0.011 A 
ATOM     18  C   UNL     1       0.023  -0.699   1.198  0.00  0.00    +0.004 A 
ENDBRANCH   1  16
BRANCH   7  19
ATOM     19  C   UNL     1      -1.118  -7.658  -2.300  0.00  0.00    -0.003 A 
ATOM     20  C   UNL     1      -2.249  -6.942  -1.957  0.00  0.00    +0.007 A 
ATOM     21  C   UNL     1      -3.367  -6.984  -2.769  0.00  0.00    +0.000 A 
ATOM     22  C   UNL     1      -3.354  -7.741  -3.925  0.00  0.00    +0.001 A 
ATOM     23  C   UNL     1      -2.224  -8.458  -4.270  0.00  0.00    +0.020 A 
ATOM     24  C   UNL     1      -1.103  -8.412  -3.460  0.00  0.00    +0.046 A 
ATOM     25 CL   UNL     1       0.320  -9.307  -3.896  0.00  0.00    -0.083 Cl
ENDBRANCH   7  19
BRANCH   5  26
ATOM     26  C   UNL     1       0.131  -9.934   1.629  0.00  0.00    -0.002 A 
ATOM     27  C   UNL     1       0.153 -11.203   1.054  0.00  0.00    +0.011 A 
ATOM     28  C   UNL     1       0.169 -12.323   1.860  0.00  0.00    +0.020 A 
ATOM     29  C   UNL     1       0.162 -12.187   3.238  0.00  0.00    +0.041 A 
ATOM     30  C   UNL     1       0.139 -10.928   3.814  0.00  0.00    +0.020 A 
ATOM     31  C   UNL     1       0.130  -9.802   3.016  0.00  0.00    +0.011 A 
ATOM     32 CL   UNL     1       0.180 -13.600   4.247  0.00  0.00    -0.084 Cl
ENDBRANCH   5  26
TORSDOF 3
