REMARK  Name = ZINC40314780
REMARK  12 active torsions:
REMARK  status: ('A' for Active; 'I' for Inactive)
REMARK    1  A    between atoms: C_1  and  O_2
REMARK    2  A    between atoms: O_2  and  C_3
REMARK    3  A    between atoms: C_8  and  O_9
REMARK    4  A    between atoms: O_9  and  C_10
REMARK    5  A    between atoms: C_10  and  C_11
REMARK    6  A    between atoms: C_11  and  C_13
REMARK    7  A    between atoms: C_11  and  O_36
REMARK    8  A    between atoms: C_13  and  N_14
REMARK    9  A    between atoms: N_14  and  C_15
REMARK   10  A    between atoms: N_14  and  C_28
REMARK   11  A    between atoms: C_15  and  C_16
REMARK   12  A    between atoms: C_19  and  C_21
REMARK                            x       y       z     vdW  Elec       q    Type
REMARK                         _______ _______ _______ _____ _____    ______ ____
ROOT
ATOM      1  N   UNL     1       2.327  -6.836   0.427  0.00  0.00    +0.389 N 
ATOM      2  H   UNL     1       3.083  -7.081   1.049  0.00  0.00    -0.081 HD
ENDROOT
BRANCH   1   3
ATOM      3  C   UNL     1       2.845  -6.012  -0.673  0.00  0.00    -0.045 C 
ATOM      4  C   UNL     1       1.888  -6.089  -1.874  0.00  0.00    +0.009 C 
ATOM      5  C   UNL     1       2.571  -5.498  -3.131  0.00  0.00    +0.164 C 
ATOM      6  S   UNL     1       4.354  -5.803  -2.804  0.00  0.00    -0.033 S 
ATOM      7  O   UNL     1       5.027  -4.556  -2.707  0.00  0.00    -0.174 OA
ATOM      8  O   UNL     1       4.830  -6.786  -3.714  0.00  0.00    -0.174 OA
ATOM      9  C   UNL     1       4.232  -6.551  -1.124  0.00  0.00    +0.151 C 
ENDBRANCH   1   3
BRANCH   1  10
ATOM     10  C   UNL     1       1.309  -6.080   1.169  0.00  0.00    -0.043 C 
BRANCH  10  11
ATOM     11  C   UNL     1       1.984  -4.958   1.961  0.00  0.00    +0.135 C 
BRANCH  11  12
ATOM     12  O   UNL     1       2.465  -3.960   1.059  0.00  0.00    -0.390 OA
ATOM     13  H   UNL     1       1.767  -3.498   0.575  0.00  0.00    +0.210 HD
ENDBRANCH  11  12
BRANCH  11  14
ATOM     14  C   UNL     1       0.971  -4.332   2.922  0.00  0.00    +0.258 C 
BRANCH  14  15
ATOM     15  O   UNL     1       1.628  -3.365   3.743  0.00  0.00    -0.486 OA
BRANCH  15  21
ATOM     16  C   UNL     1       1.439  -1.756   5.492  0.00  0.00    +0.161 A 
ATOM     17  C   UNL     1       0.656  -1.088   6.419  0.00  0.00    +0.049 A 
ATOM     18  C   UNL     1      -0.693  -1.374   6.518  0.00  0.00    +0.004 A 
ATOM     19  C   UNL     1      -1.263  -2.327   5.694  0.00  0.00    +0.004 A 
ATOM     20  C   UNL     1      -0.487  -2.997   4.767  0.00  0.00    +0.049 A 
ATOM     21  C   UNL     1       0.865  -2.711   4.659  0.00  0.00    +0.162 A 
BRANCH  16  23
ATOM     22  C   UNL     1       3.288  -0.484   6.280  0.00  0.00    +0.277 C 
ATOM     23  O   UNL     1       2.766  -1.475   5.393  0.00  0.00    -0.491 OA
ENDBRANCH  16  23
ENDBRANCH  15  21
ENDBRANCH  14  15
ENDBRANCH  11  14
ENDBRANCH  10  11
ENDBRANCH   1  10
BRANCH   1  24
ATOM     24  C   UNL     1       1.726  -8.060  -0.118  0.00  0.00    -0.003 C 
BRANCH  24  25
ATOM     25  C   UNL     1       2.798  -8.905  -0.757  0.00  0.00    +0.089 A 
ATOM     26  C   UNL     1       3.613  -9.761  -0.111  0.00  0.00    +0.043 A 
ATOM     27  C   UNL     1       4.457 -10.339  -1.080  0.00  0.00    +0.050 A 
ATOM     28  C   UNL     1       4.107  -9.797  -2.277  0.00  0.00    +0.135 A 
ATOM     29  O   UNL     1       3.096  -8.933  -2.067  0.00  0.00    -0.462 OA
BRANCH  28  30
ATOM     30  C   UNL     1       4.726 -10.107  -3.583  0.00  0.00    +0.019 A 
ATOM     31  C   UNL     1       5.713 -11.089  -3.676  0.00  0.00    +0.011 A 
ATOM     32  C   UNL     1       6.287 -11.374  -4.897  0.00  0.00    +0.002 A 
ATOM     33  C   UNL     1       5.887 -10.687  -6.030  0.00  0.00    +0.020 A 
ATOM     34  C   UNL     1       4.909  -9.711  -5.946  0.00  0.00    +0.042 A 
ATOM     35  C   UNL     1       4.322  -9.422  -4.730  0.00  0.00    +0.031 A 
ATOM     36 CL   UNL     1       4.414  -8.855  -7.373  0.00  0.00    -0.084 Cl
ENDBRANCH  28  30
ENDBRANCH  24  25
ENDBRANCH   1  24
TORSDOF 11
