REMARK  Name = ZINC38701981
REMARK  8 active torsions:
REMARK  status: ('A' for Active; 'I' for Inactive)
REMARK    1  A    between atoms: C_1  and  C_2
REMARK    2  A    between atoms: C_5  and  O_36
REMARK    3  A    between atoms: C_6  and  C_8
REMARK    4  A    between atoms: N_16  and  C_28
REMARK    5  A    between atoms: C_17  and  C_19
REMARK    6  A    between atoms: C_22  and  C_25
REMARK    7  A    between atoms: C_25  and  C_26
REMARK    8  A    between atoms: C_25  and  C_27
REMARK                            x       y       z     vdW  Elec       q    Type
REMARK                         _______ _______ _______ _____ _____    ______ ____
ROOT
ATOM      1  C   UNL     1       0.295  -2.931   2.857  0.00  0.00    +0.102 A 
ATOM      2  C   UNL     1       0.291  -4.329   2.802  0.00  0.00    +0.035 A 
ATOM      3  C   UNL     1       0.224  -4.758   4.114  0.00  0.00    +0.126 A 
ATOM      4  N   UNL     1       0.192  -3.628   4.881  0.00  0.00    -0.272 N 
ATOM      5  H   UNL     1       0.144  -3.614   5.850  0.00  0.00    +0.189 HD
ATOM      6  N   UNL     1       0.240  -2.586   4.129  0.00  0.00    -0.173 NA
ATOM      7  C   UNL     1       0.215  -6.225   4.125  0.00  0.00    +0.266 C 
ATOM      8  O   UNL     1       0.162  -6.911   5.128  0.00  0.00    -0.268 OA
ATOM      9  N   UNL     1       0.275  -6.703   2.869  0.00  0.00    -0.280 N 
ATOM     10  C   UNL     1       0.327  -5.564   1.944  0.00  0.00    +0.142 C 
ENDROOT
BRANCH   1  16
ATOM     11  C   UNL     1      -1.295  -1.571  -1.675  0.00  0.00    +0.044 C 
ATOM     12  C   UNL     1      -0.403  -1.348  -0.481  0.00  0.00    -0.050 A 
ATOM     13  C   UNL     1       0.476  -0.279  -0.467  0.00  0.00    +0.007 A 
ATOM     14  C   UNL     1       1.298  -0.067   0.624  0.00  0.00    +0.046 A 
ATOM     15  C   UNL     1       1.245  -0.926   1.710  0.00  0.00    +0.126 A 
ATOM     16  C   UNL     1       0.358  -2.006   1.698  0.00  0.00    +0.044 A 
ATOM     17  C   UNL     1      -0.470  -2.207   0.597  0.00  0.00    +0.017 A 
BRANCH  15  18
ATOM     18  O   UNL     1       2.053  -0.718   2.782  0.00  0.00    -0.506 OA
ATOM     19  H   UNL     1       1.698  -0.092   3.427  0.00  0.00    +0.292 HD
ENDBRANCH  15  18
ENDBRANCH   1  16
BRANCH   9  20
ATOM     20  C   UNL     1       0.285  -8.118   2.490  0.00  0.00    +0.100 C 
ATOM     21  C   UNL     1      -0.983  -8.808   3.020  0.00  0.00    +0.047 C 
ATOM     22  C   UNL     1      -0.834 -10.344   2.909  0.00  0.00    +0.168 C 
ATOM     23  S   UNL     1       0.986 -10.583   3.033  0.00  0.00    -0.029 S 
ATOM     24  O   UNL     1       1.286 -11.220   4.267  0.00  0.00    -0.174 OA
ATOM     25  O   UNL     1       1.461 -11.151   1.819  0.00  0.00    -0.174 OA
ATOM     26  C   UNL     1       1.520  -8.822   3.122  0.00  0.00    +0.188 C 
ENDBRANCH   9  20
BRANCH  10  27
ATOM     27  C   UNL     1       1.603  -5.603   1.144  0.00  0.00    -0.022 A 
ATOM     28  C   UNL     1       2.799  -5.913   1.765  0.00  0.00    +0.006 A 
ATOM     29  C   UNL     1       3.970  -5.948   1.031  0.00  0.00    +0.004 A 
ATOM     30  C   UNL     1       3.945  -5.675  -0.324  0.00  0.00    -0.045 A 
ATOM     31  C   UNL     1       2.749  -5.366  -0.945  0.00  0.00    +0.004 A 
ATOM     32  C   UNL     1       1.577  -5.334  -0.212  0.00  0.00    +0.006 A 
BRANCH  30  33
ATOM     33  C   UNL     1       5.221  -5.712  -1.124  0.00  0.00    +0.013 C 
ATOM     34  C   UNL     1       5.098  -6.761  -2.231  0.00  0.00    +0.012 C 
ATOM     35  C   UNL     1       5.473  -4.338  -1.749  0.00  0.00    +0.012 C 
ENDBRANCH  30  33
ENDBRANCH  10  27
TORSDOF 5
