REMARK  Name = ZINC40981121
REMARK  13 active torsions:
REMARK  status: ('A' for Active; 'I' for Inactive)
REMARK    1  A    between atoms: C_1  and  C_2
REMARK    2  A    between atoms: C_2  and  C_3
REMARK    3  A    between atoms: C_3  and  S_4
REMARK    4  A    between atoms: S_4  and  C_5
REMARK    5  A    between atoms: C_10  and  C_19
REMARK    6  A    between atoms: C_12  and  C_16
REMARK    7  A    between atoms: C_13  and  C_15
REMARK    8  A    between atoms: C_22  and  O_28
REMARK    9  A    between atoms: C_23  and  O_25
REMARK   10  A    between atoms: O_25  and  C_26
REMARK   11  A    between atoms: C_26  and  C_27
REMARK   12  A    between atoms: O_28  and  C_29
REMARK   13  A    between atoms: C_29  and  C_30
REMARK                            x       y       z     vdW  Elec       q    Type
REMARK                         _______ _______ _______ _____ _____    ______ ____
ROOT
ATOM      1  C   UNL     1       2.002  -2.718  -2.561  0.00  0.00    +0.210 A 
ATOM      2  N   UNL     1       2.452  -1.839  -3.469  0.00  0.00    -0.187 NA
ATOM      3  C   UNL     1       2.837  -2.476  -4.540  0.00  0.00    +0.219 A 
ATOM      4  N   UNL     1       2.632  -3.801  -4.339  0.00  0.00    -0.220 N 
ATOM      5  N   UNL     1       2.103  -3.933  -3.056  0.00  0.00    -0.141 NA
ATOM      6  C   UNL     1       2.939  -4.827  -5.333  0.00  0.00    +0.177 C 
ATOM      7  C   UNL     1       3.764  -4.223  -6.437  0.00  0.00    +0.060 C 
ATOM      8  C   UNL     1       3.935  -2.902  -6.585  0.00  0.00    +0.018 C 
ATOM      9  N   UNL     1       3.373  -1.990  -5.725  0.00  0.00    -0.287 N 
ATOM     10  C   UNL     1       4.771  -2.399  -7.734  0.00  0.00    +0.061 C 
ATOM     11  H   UNL     1       3.352  -1.044  -5.937  0.00  0.00    +0.155 HD
ENDROOT
BRANCH   6  12
ATOM     12  C   UNL     1       1.655  -5.372  -5.904  0.00  0.00    -0.015 A 
ATOM     13  C   UNL     1       0.779  -4.527  -6.561  0.00  0.00    +0.010 A 
ATOM     14  C   UNL     1      -0.399  -5.022  -7.087  0.00  0.00    +0.050 A 
ATOM     15  C   UNL     1      -0.704  -6.367  -6.958  0.00  0.00    +0.162 A 
ATOM     16  C   UNL     1       0.177  -7.218  -6.298  0.00  0.00    +0.162 A 
ATOM     17  C   UNL     1       1.359  -6.716  -5.777  0.00  0.00    +0.055 A 
BRANCH  16  18
ATOM     18  O   UNL     1      -0.118  -8.539  -6.168  0.00  0.00    -0.489 OA
BRANCH  18  19
ATOM     19  C   UNL     1       0.834  -9.352  -5.479  0.00  0.00    +0.226 C 
ATOM     20  C   UNL     1       0.333 -10.796  -5.433  0.00  0.00    +0.048 C 
ENDBRANCH  18  19
ENDBRANCH  16  18
BRANCH  15  21
ATOM     21  O   UNL     1      -1.864  -6.856  -7.475  0.00  0.00    -0.484 OA
BRANCH  21  22
ATOM     22  C   UNL     1      -2.721  -5.925  -8.139  0.00  0.00    +0.264 C 
BRANCH  22  23
ATOM     23  C   UNL     1      -3.947  -6.642  -8.642  0.00  0.00    -0.010 A 
ATOM     24  C   UNL     1      -3.950  -7.202  -9.906  0.00  0.00    +0.008 A 
ATOM     25  C   UNL     1      -5.075  -7.859 -10.368  0.00  0.00    +0.020 A 
ATOM     26  C   UNL     1      -6.197  -7.958  -9.565  0.00  0.00    +0.041 A 
ATOM     27  C   UNL     1      -6.193  -7.397  -8.300  0.00  0.00    +0.020 A 
ATOM     28  C   UNL     1      -5.066  -6.745  -7.837  0.00  0.00    +0.008 A 
ATOM     29 CL   UNL     1      -7.610  -8.783 -10.144  0.00  0.00    -0.084 Cl
ENDBRANCH  22  23
ENDBRANCH  21  22
ENDBRANCH  15  21
ENDBRANCH   6  12
BRANCH   7  30
ATOM     30  C   UNL     1       4.390  -5.092  -7.363  0.00  0.00    +0.241 C 
ATOM     31  O   UNL     1       5.372  -5.731  -7.030  0.00  0.00    -0.271 OA
ATOM     32  N   UNL     1       3.900  -5.211  -8.613  0.00  0.00    -0.325 N 
ATOM     33  H   UNL     1       3.118  -4.702  -8.877  0.00  0.00    +0.145 HD
ATOM     34  H   UNL     1       4.329  -5.807  -9.247  0.00  0.00    +0.145 HD
ENDBRANCH   7  30
BRANCH   1  35
ATOM     35  S   UNL     1       1.383  -2.312  -0.963  0.00  0.00    -0.084 S 
BRANCH  35  36
ATOM     36  C   UNL     1       1.504  -0.504  -0.891  0.00  0.00    +0.077 C 
BRANCH  36  38
ATOM     37  C   UNL     1       1.094   1.514   0.524  0.00  0.00    +0.004 C 
ATOM     38  C   UNL     1       0.992  -0.011   0.464  0.00  0.00    +0.008 C 
ENDBRANCH  36  38
ENDBRANCH  35  36
ENDBRANCH   1  35
TORSDOF 10
