REMARK  Name = ZINC58990988
REMARK  10 active torsions:
REMARK  status: ('A' for Active; 'I' for Inactive)
REMARK    1  A    between atoms: C_1  and  C_2
REMARK    2  A    between atoms: C_2  and  C_23
REMARK    3  A    between atoms: N_3  and  N_4
REMARK    4  A    between atoms: C_5  and  C_7
REMARK    5  A    between atoms: C_7  and  S_8
REMARK    6  A    between atoms: S_8  and  C_9
REMARK    7  A    between atoms: C_12  and  C_15
REMARK    8  A    between atoms: N_13  and  N_14
REMARK    9  A    between atoms: C_15  and  C_16
REMARK   10  A    between atoms: C_16  and  C_17
REMARK                            x       y       z     vdW  Elec       q    Type
REMARK                         _______ _______ _______ _____ _____    ______ ____
ROOT
ATOM      1  S   UNL     1       0.075  -1.085   6.184  0.00  0.00    -0.075 S 
ENDROOT
BRANCH   1   2
ATOM      2  C   UNL     1       0.075  -0.070   7.625  0.00  0.00    +0.209 A 
ATOM      3  N   UNL     1       0.052   1.242   7.655  0.00  0.00    -0.121 NA
ATOM      4  N   UNL     1       0.060   1.651   8.874  0.00  0.00    -0.132 NA
ATOM      5  C   UNL     1       0.088   0.633   9.687  0.00  0.00    +0.151 A 
ATOM      6  N   UNL     1       0.093  -0.500   8.920  0.00  0.00    -0.228 N 
BRANCH   6   7
ATOM      7  N   UNL     1       0.115  -1.793   9.360  0.00  0.00    -0.295 N 
ATOM      8  H   UNL     1       1.063  -2.122   9.468  0.00  0.00    +0.163 HD
ATOM      9  H   UNL     1      -0.402  -1.891  10.221  0.00  0.00    +0.163 HD
ENDBRANCH   6   7
BRANCH   5  10
ATOM     10  C   UNL     1       0.106   0.693  11.192  0.00  0.00    +0.082 C 
BRANCH  10  11
ATOM     11  C   UNL     1      -1.330   0.686  11.720  0.00  0.00    +0.043 C 
BRANCH  11  12
ATOM     12  C   UNL     1      -1.312   0.746  13.226  0.00  0.00    -0.047 A 
ATOM     13  C   UNL     1      -1.275  -0.422  13.963  0.00  0.00    +0.003 A 
ATOM     14  C   UNL     1      -1.259  -0.367  15.345  0.00  0.00    +0.000 A 
ATOM     15  C   UNL     1      -1.278   0.856  15.988  0.00  0.00    +0.000 A 
ATOM     16  C   UNL     1      -1.314   2.025  15.250  0.00  0.00    +0.000 A 
ATOM     17  C   UNL     1      -1.326   1.970  13.869  0.00  0.00    +0.003 A 
ENDBRANCH  11  12
ENDBRANCH  10  11
ENDBRANCH   5  10
ENDBRANCH   1   2
BRANCH   1  18
ATOM     18  C   UNL     1       0.046   0.101   4.812  0.00  0.00    +0.174 C 
BRANCH  18  20
ATOM     19  N   UNL     1       0.024   0.035   2.339  0.00  0.00    -0.206 N 
ATOM     20  C   UNL     1       0.044  -0.645   3.503  0.00  0.00    +0.242 C 
ATOM     21  O   UNL     1       0.060  -1.858   3.496  0.00  0.00    -0.273 OA
ATOM     22  H   UNL     1       0.011   1.005   2.345  0.00  0.00    +0.177 HD
BRANCH  19  25
ATOM     23  C   UNL     1      -0.018   1.503   0.010  0.00  0.00    +0.068 C 
ATOM     24  C   UNL     1       0.002  -0.004   0.002  0.00  0.00    +0.063 C 
ATOM     25  N   UNL     1       0.022  -0.659   1.122  0.00  0.00    -0.185 NA
BRANCH  24  26
ATOM     26  C   UNL     1      -0.000  -0.735  -1.279  0.00  0.00    -0.002 A 
ATOM     27  C   UNL     1      -0.015  -0.033  -2.487  0.00  0.00    +0.011 A 
ATOM     28  C   UNL     1      -0.017  -0.722  -3.681  0.00  0.00    +0.016 A 
ATOM     29  C   UNL     1      -0.004  -2.106  -3.685  0.00  0.00    +0.018 A 
ATOM     30  C   UNL     1       0.010  -2.808  -2.492  0.00  0.00    +0.016 A 
ATOM     31  C   UNL     1       0.019  -2.131  -1.290  0.00  0.00    +0.011 A 
ATOM     32 BR   UNL     1      -0.007  -3.043  -5.328  0.00  0.00    -0.050 Br
ENDBRANCH  24  26
ENDBRANCH  19  25
ENDBRANCH  18  20
ENDBRANCH   1  18
TORSDOF 9
