REMARK  Name = ZINC23541144
REMARK  2 active torsions:
REMARK  status: ('A' for Active; 'I' for Inactive)
REMARK    1  A    between atoms: C_10  and  C_12
REMARK    2  A    between atoms: C_19  and  C_23
REMARK                            x       y       z     vdW  Elec       q    Type
REMARK                         _______ _______ _______ _____ _____    ______ ____
ROOT
ATOM      1  C   UNL     1      -5.617   5.074  -1.523  0.00  0.00    +0.282 C 
ATOM      2  O   UNL     1      -5.654   4.101  -0.796  0.00  0.00    -0.267 OA
ATOM      3  N   UNL     1      -4.500   5.349  -2.225  0.00  0.00    -0.290 N 
ATOM      4  C   UNL     1      -4.477   6.443  -3.208  0.00  0.00    +0.114 C 
ATOM      5  C   UNL     1      -3.490   7.519  -2.740  0.00  0.00    +0.074 C 
ATOM      6  C   UNL     1      -2.219   6.848  -2.281  0.00  0.00    +0.043 A 
ATOM      7  C   UNL     1      -2.118   5.535  -1.962  0.00  0.00    +0.019 A 
ATOM      8  C   UNL     1      -0.795   5.282  -1.570  0.00  0.00    +0.104 A 
ATOM      9  N   UNL     1      -0.125   6.415  -1.665  0.00  0.00    -0.173 NA
ATOM     10  N   UNL     1      -1.008   7.409  -2.113  0.00  0.00    -0.281 N 
ATOM     11  H   UNL     1      -0.863   8.478  -2.326  0.00  0.00    +0.189 HD
ATOM     12  C   UNL     1      -3.270   4.561  -2.026  0.00  0.00    +0.147 C 
ENDROOT
BRANCH   1  22
ATOM     13  C   UNL     1      -9.725   9.929  -2.363  0.00  0.00    +0.001 A 
ATOM     14  C   UNL     1      -8.416  10.338  -2.577  0.00  0.00    +0.004 A 
ATOM     15  C   UNL     1      -7.370   9.450  -2.448  0.00  0.00    +0.047 A 
ATOM     16  C   UNL     1      -7.624   8.127  -2.100  0.00  0.00    +0.139 A 
ATOM     17  C   UNL     1      -8.952   7.720  -1.885  0.00  0.00    +0.064 A 
ATOM     18  C   UNL     1      -9.997   8.633  -2.020  0.00  0.00    +0.015 A 
ATOM     19  C   UNL     1      -9.204   6.314  -1.517  0.00  0.00    +0.193 A 
ATOM     20  O   UNL     1     -10.332   5.899  -1.318  0.00  0.00    -0.287 OA
ATOM     21  C   UNL     1      -8.029   5.436  -1.409  0.00  0.00    +0.103 A 
ATOM     22  C   UNL     1      -6.801   5.959  -1.638  0.00  0.00    +0.194 A 
ATOM     23  O   UNL     1      -6.614   7.245  -1.970  0.00  0.00    -0.450 OA
ENDBRANCH   1  22
BRANCH   8  24
ATOM     24  C   UNL     1      -0.248   3.979  -1.133  0.00  0.00    +0.040 A 
ATOM     25  C   UNL     1       0.997   3.451  -1.347  0.00  0.00    +0.018 A 
ATOM     26  C   UNL     1       1.283   2.202  -0.838  0.00  0.00    +0.008 A 
ATOM     27  C   UNL     1       0.326   1.536  -0.145  0.00  0.00    +0.046 A 
ATOM     28  S   UNL     1      -1.042   2.681  -0.199  0.00  0.00    -0.095 S 
ENDBRANCH   8  24
TORSDOF 2
