REMARK  Name = ZINC38613554
REMARK  10 active torsions:
REMARK  status: ('A' for Active; 'I' for Inactive)
REMARK    1  A    between atoms: C_1  and  C_2
REMARK    2  A    between atoms: C_4  and  C_17
REMARK    3  A    between atoms: C_6  and  C_16
REMARK    4  A    between atoms: N_8  and  C_10
REMARK    5  A    between atoms: N_18  and  N_19
REMARK    6  A    between atoms: C_20  and  C_22
REMARK    7  A    between atoms: C_25  and  C_28
REMARK    8  A    between atoms: C_28  and  C_29
REMARK    9  A    between atoms: C_28  and  C_30
REMARK   10  A    between atoms: C_28  and  C_31
REMARK                            x       y       z     vdW  Elec       q    Type
REMARK                         _______ _______ _______ _____ _____    ______ ____
ROOT
ATOM      1  C   UNL     1      -2.192   0.643  -0.492  0.00  0.00    +0.110 C 
ATOM      2  N   UNL     1      -3.035   0.306  -1.396  0.00  0.00    -0.192 NA
ENDROOT
BRANCH   1   5
ATOM      3  C   UNL     1       0.447   1.345  -0.028  0.00  0.00    +0.026 C 
ATOM      4  C   UNL     1       0.147  -0.154   0.015  0.00  0.00    +0.080 C 
ATOM      5  C   UNL     1      -1.373  -0.412   0.205  0.00  0.00    +0.072 C 
ATOM      6  C   UNL     1      -1.507  -0.298   1.742  0.00  0.00    +0.098 C 
ATOM      7  N   UNL     1      -0.147  -0.496   2.269  0.00  0.00    -0.263 N 
ATOM      8  N   UNL     1       0.716  -0.775   1.240  0.00  0.00    -0.236 NA
ATOM      9  C   UNL     1      -2.029   1.088   2.126  0.00  0.00    +0.030 C 
ATOM     10  H   UNL     1       0.829  -1.770   1.122  0.00  0.00    +0.145 HD
BRANCH   7  11
ATOM     11  C   UNL     1       0.211  -0.413   3.617  0.00  0.00    +0.045 A 
ATOM     12  C   UNL     1      -0.547  -1.067   4.580  0.00  0.00    +0.024 A 
ATOM     13  C   UNL     1      -0.189  -0.983   5.912  0.00  0.00    +0.002 A 
ATOM     14  C   UNL     1       0.922  -0.250   6.286  0.00  0.00    +0.000 A 
ATOM     15  C   UNL     1       1.679   0.402   5.330  0.00  0.00    +0.002 A 
ATOM     16  C   UNL     1       1.330   0.318   3.996  0.00  0.00    +0.024 A 
ENDBRANCH   7  11
ENDBRANCH   1   5
BRANCH   2  17
ATOM     17  N   UNL     1      -3.797   1.287  -2.043  0.00  0.00    -0.205 N 
ATOM     18  C   UNL     1      -4.683   0.932  -2.995  0.00  0.00    +0.262 C 
ATOM     19  O   UNL     1      -4.821  -0.236  -3.290  0.00  0.00    -0.271 OA
ATOM     20  H   UNL     1      -3.686   2.221  -1.808  0.00  0.00    +0.177 HD
BRANCH  18  21
ATOM     21  C   UNL     1      -5.503   1.987  -3.692  0.00  0.00    +0.240 C 
ATOM     22  C   UNL     1      -6.713   2.366  -2.856  0.00  0.00    +0.036 C 
ATOM     23  C   UNL     1      -7.752   2.036  -3.626  0.00  0.00    +0.067 C 
ATOM     24  N   UNL     1      -7.332   1.514  -4.800  0.00  0.00    -0.158 NA
ATOM     25  N   UNL     1      -6.103   1.451  -4.925  0.00  0.00    -0.170 NA
BRANCH  23  26
ATOM     26  C   UNL     1      -9.197   2.219  -3.238  0.00  0.00    +0.006 C 
ATOM     27  C   UNL     1      -9.275   2.836  -1.841  0.00  0.00    +0.017 C 
ATOM     28  C   UNL     1      -9.881   3.146  -4.245  0.00  0.00    +0.017 C 
ATOM     29  C   UNL     1      -9.900   0.860  -3.236  0.00  0.00    +0.017 C 
ENDBRANCH  23  26
ENDBRANCH  18  21
ENDBRANCH   2  17
TORSDOF 5
