REMARK  Name = ZINC14480643
REMARK  10 active torsions:
REMARK  status: ('A' for Active; 'I' for Inactive)
REMARK    1  A    between atoms: C_1  and  C_2
REMARK    2  A    between atoms: C_2  and  O_3
REMARK    3  A    between atoms: O_3  and  C_4
REMARK    4  A    between atoms: C_7  and  C_10
REMARK    5  A    between atoms: C_21  and  S_26
REMARK    6  A    between atoms: S_26  and  N_29
REMARK    7  A    between atoms: N_29  and  C_30
REMARK    8  A    between atoms: C_33  and  O_36
REMARK    9  A    between atoms: O_36  and  C_37
REMARK   10  A    between atoms: C_37  and  C_38
REMARK                            x       y       z     vdW  Elec       q    Type
REMARK                         _______ _______ _______ _____ _____    ______ ____
ROOT
ATOM      1  C   UNL     1       3.488   0.267  -4.876  0.00  0.00    +0.105 C 
ATOM      2  C   UNL     1       2.128   0.461  -4.256  0.00  0.00    +0.029 C 
ATOM      3  C   UNL     1       1.676   1.935  -4.392  0.00  0.00    +0.033 C 
ATOM      4  C   UNL     1       0.747   2.114  -3.205  0.00  0.00    -0.030 C 
ATOM      5  C   UNL     1       1.012   1.223  -2.267  0.00  0.00    -0.023 C 
ATOM      6  C   UNL     1       2.147   0.316  -2.724  0.00  0.00    +0.049 C 
ATOM      7  C   UNL     1       3.418   0.841  -2.114  0.00  0.00    -0.018 A 
ATOM      8  C   UNL     1       3.498   0.909  -0.729  0.00  0.00    +0.034 A 
ATOM      9  C   UNL     1       4.639   1.386  -0.117  0.00  0.00    +0.109 A 
ATOM     10  C   UNL     1       5.716   1.804  -0.877  0.00  0.00    +0.030 A 
ATOM     11  C   UNL     1       5.648   1.739  -2.254  0.00  0.00    +0.025 A 
ATOM     12  C   UNL     1       4.499   1.256  -2.871  0.00  0.00    +0.031 A 
ATOM     13  N   UNL     1       4.452   1.191  -4.268  0.00  0.00    -0.336 N 
ATOM     14  H   UNL     1       5.037   1.738  -4.815  0.00  0.00    +0.147 HD
ENDROOT
BRANCH   1  18
ATOM     15  C   UNL     1       4.753  -3.758  -4.201  0.00  0.00    +0.121 A 
ATOM     16  C   UNL     1       4.212  -3.396  -5.426  0.00  0.00    +0.046 A 
ATOM     17  C   UNL     1       3.803  -2.094  -5.642  0.00  0.00    +0.009 A 
ATOM     18  C   UNL     1       3.934  -1.152  -4.638  0.00  0.00    -0.027 A 
ATOM     19  C   UNL     1       4.478  -1.509  -3.418  0.00  0.00    +0.009 A 
ATOM     20  C   UNL     1       4.883  -2.811  -3.196  0.00  0.00    +0.046 A 
BRANCH  15  21
ATOM     21  O   UNL     1       5.156  -5.038  -3.987  0.00  0.00    -0.492 OA
BRANCH  21  23
ATOM     22  C   UNL     1       6.098  -6.816  -2.648  0.00  0.00    +0.048 C 
ATOM     23  C   UNL     1       5.704  -5.339  -2.702  0.00  0.00    +0.225 C 
ENDBRANCH  21  23
ENDBRANCH  15  21
ENDBRANCH   1  18
BRANCH   9  24
ATOM     24  S   UNL     1       4.723   1.465   1.642  0.00  0.00    +0.072 S 
ATOM     25  O   UNL     1       5.752   2.393   1.958  0.00  0.00    -0.150 OA
ATOM     26  O   UNL     1       3.389   1.619   2.106  0.00  0.00    -0.150 OA
BRANCH  24  27
ATOM     27  N   UNL     1       5.241  -0.016   2.174  0.00  0.00    -0.216 N 
ATOM     28  H   UNL     1       6.100  -0.099   2.617  0.00  0.00    +0.174 HD
BRANCH  27  29
ATOM     29  C   UNL     1       4.439  -1.147   1.984  0.00  0.00    +0.048 A 
ATOM     30  C   UNL     1       3.320  -1.347   2.781  0.00  0.00    +0.028 A 
ATOM     31  C   UNL     1       2.526  -2.461   2.589  0.00  0.00    +0.047 A 
ATOM     32  C   UNL     1       2.853  -3.385   1.609  0.00  0.00    +0.121 A 
ATOM     33  C   UNL     1       3.975  -3.189   0.816  0.00  0.00    +0.047 A 
ATOM     34  C   UNL     1       4.766  -2.073   1.002  0.00  0.00    +0.028 A 
BRANCH  32  35
ATOM     35  O   UNL     1       2.074  -4.485   1.424  0.00  0.00    -0.492 OA
BRANCH  35  36
ATOM     36  C   UNL     1       0.935  -4.623   2.276  0.00  0.00    +0.225 C 
ATOM     37  C   UNL     1       0.187  -5.910   1.922  0.00  0.00    +0.048 C 
ENDBRANCH  35  36
ENDBRANCH  32  35
ENDBRANCH  27  29
ENDBRANCH  24  27
ENDBRANCH   9  24
TORSDOF 8
