REMARK  Name = ZINC00686936
REMARK  2 active torsions:
REMARK  status: ('A' for Active; 'I' for Inactive)
REMARK    1  A    between atoms: C_7  and  C_11
REMARK    2  A    between atoms: N_16  and  C_19
REMARK                            x       y       z     vdW  Elec       q    Type
REMARK                         _______ _______ _______ _____ _____    ______ ____
ROOT
ATOM      1  C   UNL     1      -6.049   4.179   0.080  0.00  0.00    +0.028 C 
ATOM      2  C   UNL     1      -4.673   4.317   0.003  0.00  0.00    +0.102 C 
ATOM      3  C   UNL     1      -3.882   5.540   0.229  0.00  0.00    +0.266 C 
ATOM      4  O   UNL     1      -4.314   6.638   0.524  0.00  0.00    -0.268 OA
ATOM      5  N   UNL     1      -2.590   5.209   0.048  0.00  0.00    -0.223 N 
ATOM      6  N   UNL     1      -2.472   3.858  -0.281  0.00  0.00    -0.184 N 
ATOM      7  C   UNL     1      -3.685   3.276  -0.328  0.00  0.00    +0.272 C 
ATOM      8  O   UNL     1      -3.921   2.112  -0.592  0.00  0.00    -0.268 OA
ATOM      9  H   UNL     1      -1.844   5.824   0.133  0.00  0.00    +0.174 HD
ENDROOT
BRANCH   1  16
ATOM     10  C   UNL     1      -9.932   2.654  -1.975  0.00  0.00    +0.001 A 
ATOM     11  C   UNL     1     -10.098   1.287  -1.810  0.00  0.00    +0.002 A 
ATOM     12  C   UNL     1      -9.172   0.548  -1.106  0.00  0.00    +0.026 A 
ATOM     13  C   UNL     1      -8.059   1.173  -0.553  0.00  0.00    +0.047 A 
ATOM     14  C   UNL     1      -7.894   2.556  -0.722  0.00  0.00    +0.007 A 
ATOM     15  C   UNL     1      -8.836   3.291  -1.435  0.00  0.00    +0.010 A 
ATOM     16  C   UNL     1      -6.636   2.900  -0.027  0.00  0.00    +0.001 A 
ATOM     17  C   UNL     1      -6.148   1.714   0.491  0.00  0.00    +0.091 A 
ATOM     18  N   UNL     1      -6.988   0.709   0.185  0.00  0.00    -0.360 N 
ATOM     19  H   UNL     1      -6.857  -0.217   0.444  0.00  0.00    +0.165 HD
ENDBRANCH   1  16
BRANCH   6  20
ATOM     20  C   UNL     1      -1.263   3.201  -0.533  0.00  0.00    +0.058 A 
ATOM     21  C   UNL     1      -1.259   1.851  -0.858  0.00  0.00    +0.027 A 
ATOM     22  C   UNL     1      -0.064   1.203  -1.101  0.00  0.00    +0.023 A 
ATOM     23  C   UNL     1       1.129   1.901  -1.031  0.00  0.00    +0.059 A 
ATOM     24  C   UNL     1       1.129   3.248  -0.712  0.00  0.00    +0.061 A 
ATOM     25  C   UNL     1      -0.065   3.900  -0.463  0.00  0.00    +0.046 A 
ATOM     26 CL   UNL     1       2.628   4.120  -0.625  0.00  0.00    -0.082 Cl
ATOM     27 CL   UNL     1       2.630   1.085  -1.345  0.00  0.00    -0.082 Cl
ENDBRANCH   6  20
TORSDOF 2
