REMARK  Name = ZINC15747922
REMARK  18 active torsions:
REMARK  status: ('A' for Active; 'I' for Inactive)
REMARK    1  A    between atoms: C_1  and  C_2
REMARK    2  A    between atoms: C_3  and  C_34
REMARK    3  A    between atoms: C_4  and  C_33
REMARK    4  A    between atoms: C_7  and  C_8
REMARK    5  A    between atoms: C_8  and  C_10
REMARK    6  A    between atoms: C_10  and  C_12
REMARK    7  A    between atoms: C_10  and  S_13
REMARK    8  A    between atoms: S_13  and  C_14
REMARK    9  A    between atoms: N_24  and  C_25
REMARK   10  A    between atoms: C_25  and  C_26
REMARK   11  A    between atoms: C_26  and  N_71
REMARK   12  A    between atoms: C_27  and  C_28
REMARK   13  A    between atoms: C_27  and  C_29
REMARK   14  A    between atoms: C_27  and  N_71
REMARK   15  A    between atoms: C_30  and  C_31
REMARK   16  A    between atoms: C_30  and  C_32
REMARK   17  A    between atoms: C_30  and  N_71
REMARK   18  A    between atoms: C_34  and  C_36
REMARK                            x       y       z     vdW  Elec       q    Type
REMARK                         _______ _______ _______ _____ _____    ______ ____
ROOT
ATOM      1  C   UNL     1       3.080   0.030   5.934  0.00  0.00    +0.173 A 
ATOM      2  N   UNL     1       1.976   0.604   6.345  0.00  0.00    -0.223 NA
ATOM      3  C   UNL     1       1.883   1.164   7.568  0.00  0.00    +0.079 A 
ATOM      4  C   UNL     1       0.705   1.777   8.006  0.00  0.00    +0.028 A 
ATOM      5  C   UNL     1       0.655   2.333   9.253  0.00  0.00    +0.002 A 
ATOM      6  C   UNL     1       1.759   2.299  10.095  0.00  0.00    +0.001 A 
ATOM      7  C   UNL     1       2.925   1.706   9.696  0.00  0.00    +0.015 A 
ATOM      8  C   UNL     1       3.004   1.131   8.428  0.00  0.00    +0.065 A 
ATOM      9  C   UNL     1       4.230   0.482   7.945  0.00  0.00    +0.262 A 
ATOM     10  O   UNL     1       5.229   0.423   8.639  0.00  0.00    -0.267 OA
ATOM     11  N   UNL     1       4.207  -0.051   6.701  0.00  0.00    -0.289 N 
ENDROOT
BRANCH   1  12
ATOM     12  S   UNL     1       3.109  -0.675   4.320  0.00  0.00    -0.076 S 
BRANCH  12  13
ATOM     13  C   UNL     1       1.422  -0.300   3.782  0.00  0.00    +0.124 C 
ATOM     14  C   UNL     1       1.246   1.216   3.675  0.00  0.00    +0.028 C 
BRANCH  13  15
ATOM     15  C   UNL     1       1.172  -0.932   2.437  0.00  0.00    +0.192 C 
ATOM     16  O   UNL     1       2.103  -1.168   1.694  0.00  0.00    -0.289 OA
BRANCH  15  23
ATOM     17  C   UNL     1       0.404  -2.234  -0.278  0.00  0.00    +0.047 C 
ATOM     18  C   UNL     1      -0.517  -1.826   0.843  0.00  0.00    -0.012 A 
ATOM     19  C   UNL     1      -1.924  -1.956   0.868  0.00  0.00    +0.041 A 
ATOM     20  C   UNL     1      -2.358  -1.459   2.088  0.00  0.00    +0.024 A 
ATOM     21  N   UNL     1      -1.293  -1.036   2.782  0.00  0.00    -0.355 N 
ATOM     22  H   UNL     1      -1.321  -0.640   3.667  0.00  0.00    +0.166 HD
ATOM     23  C   UNL     1      -0.149  -1.250   2.039  0.00  0.00    +0.087 A 
ATOM     24  C   UNL     1      -3.791  -1.400   2.554  0.00  0.00    +0.064 C 
BRANCH  19  25
ATOM     25  C   UNL     1      -2.766  -2.513  -0.196  0.00  0.00    +0.162 C 
ATOM     26  O   UNL     1      -3.056  -3.692  -0.185  0.00  0.00    -0.292 OA
ATOM     27  C   UNL     1      -3.272  -1.623  -1.301  0.00  0.00    +0.091 C 
ENDBRANCH  19  25
ENDBRANCH  15  23
ENDBRANCH  13  15
ENDBRANCH  12  13
ENDBRANCH   1  12
BRANCH  11  28
ATOM     28  C   UNL     1       5.401  -0.715   6.172  0.00  0.00    +0.109 C 
BRANCH  28  29
ATOM     29  C   UNL     1       6.275   0.310   5.446  0.00  0.00    -0.056 C 
BRANCH  29  30
ATOM     30  N   UNL     1       7.463  -0.378   4.900  0.00  0.00    +0.384 N 
ATOM     31  H   UNL     1       7.156  -1.192   4.355  0.00  0.00    -0.081 HD
BRANCH  30  32
ATOM     32  C   UNL     1       8.215   0.536   4.015  0.00  0.00    -0.074 C 
ATOM     33  C   UNL     1       7.629   0.441   2.605  0.00  0.00    -0.014 C 
ATOM     34  C   UNL     1       8.102   1.977   4.518  0.00  0.00    -0.014 C 
ENDBRANCH  30  32
BRANCH  30  35
ATOM     35  C   UNL     1       8.331  -0.840   6.004  0.00  0.00    -0.074 C 
ATOM     36  C   UNL     1       9.409  -1.762   5.430  0.00  0.00    -0.014 C 
ATOM     37  C   UNL     1       8.995   0.351   6.698  0.00  0.00    -0.014 C 
ENDBRANCH  30  35
ENDBRANCH  29  30
ENDBRANCH  28  29
ENDBRANCH  11  28
TORSDOF 10
