REMARK  Name = ZINC28512049
REMARK  5 active torsions:
REMARK  status: ('A' for Active; 'I' for Inactive)
REMARK    1  A    between atoms: C_1  and  C_2
REMARK    2  A    between atoms: C_2  and  N_3
REMARK    3  A    between atoms: C_14  and  C_16
REMARK    4  A    between atoms: N_27  and  C_28
REMARK    5  A    between atoms: C_28  and  C_29
REMARK                            x       y       z     vdW  Elec       q    Type
REMARK                         _______ _______ _______ _____ _____    ______ ____
ROOT
ATOM      1  C   UNL     1      -0.754   8.889   0.058  0.00  0.00    +0.193 C 
ATOM      2  N   UNL     1      -0.089   9.887   0.895  0.00  0.00    -0.289 N 
ATOM      3  C   UNL     1       0.886  10.663   0.366  0.00  0.00    +0.247 C 
ATOM      4  O   UNL     1       1.492  11.470   1.046  0.00  0.00    -0.270 OA
ATOM      5  C   UNL     1       1.186  10.489  -1.069  0.00  0.00    +0.058 A 
ATOM      6  C   UNL     1       2.376  10.952  -1.625  0.00  0.00    +0.015 A 
ATOM      7  C   UNL     1       2.618  10.762  -2.970  0.00  0.00    +0.001 A 
ATOM      8  C   UNL     1       1.685  10.114  -3.764  0.00  0.00    +0.002 A 
ATOM      9  C   UNL     1       0.502   9.651  -3.225  0.00  0.00    +0.024 A 
ATOM     10  C   UNL     1       0.239   9.834  -1.874  0.00  0.00    +0.044 A 
ATOM     11  N   UNL     1      -0.942   9.382  -1.308  0.00  0.00    -0.298 N 
ATOM     12  H   UNL     1      -0.383  10.004   1.949  0.00  0.00    +0.151 HD
ENDROOT
BRANCH   1  24
ATOM     13  N   UNL     1       2.190   4.069  -0.013  0.00  0.00    -0.340 N 
ATOM     14  C   UNL     1       1.221   3.155   0.361  0.00  0.00    +0.050 A 
ATOM     15  C   UNL     1       1.257   1.776   0.546  0.00  0.00    +0.026 A 
ATOM     16  C   UNL     1       0.118   1.101   0.928  0.00  0.00    +0.002 A 
ATOM     17  C   UNL     1      -1.072   1.784   1.128  0.00  0.00    +0.001 A 
ATOM     18  C   UNL     1      -1.126   3.150   0.956  0.00  0.00    +0.010 A 
ATOM     19  C   UNL     1       0.018   3.845   0.569  0.00  0.00    +0.008 A 
ATOM     20  C   UNL     1       0.299   5.266   0.298  0.00  0.00    +0.008 A 
ATOM     21  C   UNL     1       1.654   5.344  -0.056  0.00  0.00    +0.050 A 
ATOM     22  C   UNL     1       2.207   6.582  -0.370  0.00  0.00    +0.027 A 
ATOM     23  C   UNL     1       1.425   7.716  -0.331  0.00  0.00    +0.009 A 
ATOM     24  C   UNL     1       0.086   7.638   0.019  0.00  0.00    -0.009 A 
ATOM     25  C   UNL     1      -0.479   6.421   0.333  0.00  0.00    +0.017 A 
BRANCH  13  27
ATOM     26  C   UNL     1       3.718   3.424  -1.810  0.00  0.00    +0.027 C 
ATOM     27  C   UNL     1       3.583   3.735  -0.318  0.00  0.00    +0.119 C 
ENDBRANCH  13  27
ENDBRANCH   1  24
BRANCH  11  28
ATOM     28  C   UNL     1      -1.575   8.362  -2.154  0.00  0.00    +0.202 C 
BRANCH  28  29
ATOM     29  C   UNL     1      -2.972   8.092  -1.656  0.00  0.00    +0.228 C 
ATOM     30  O   UNL     1      -3.436   8.764  -0.759  0.00  0.00    -0.274 OA
ATOM     31  N   UNL     1      -3.705   7.104  -2.207  0.00  0.00    -0.328 N 
ATOM     32  H   UNL     1      -4.724   6.908  -1.844  0.00  0.00    +0.145 HD
ATOM     33  H   UNL     1      -3.284   6.495  -3.021  0.00  0.00    +0.145 HD
ENDBRANCH  28  29
ENDBRANCH  11  28
TORSDOF 4
