REMARK  Name = ZINC02609892
REMARK  8 active torsions:
REMARK  status: ('A' for Active; 'I' for Inactive)
REMARK    1  A    between atoms: C_1  and  C_2
REMARK    2  A    between atoms: C_4  and  N_28
REMARK    3  A    between atoms: C_7  and  O_8
REMARK    4  A    between atoms: O_8  and  C_9
REMARK    5  A    between atoms: C_9  and  C_10
REMARK    6  A    between atoms: N_12  and  C_13
REMARK    7  A    between atoms: C_14  and  C_26
REMARK    8  A    between atoms: C_21  and  C_25
REMARK                            x       y       z     vdW  Elec       q    Type
REMARK                         _______ _______ _______ _____ _____    ______ ____
ROOT
ATOM      1  C   UNL     1       0.045   0.090   4.775  0.00  0.00    +0.255 C 
ATOM      2  O   UNL     1       0.027   1.293   4.625  0.00  0.00    -0.272 OA
ATOM      3  N   UNL     1       0.064  -0.433   6.017  0.00  0.00    -0.276 N 
ATOM      4  H   UNL     1       0.078  -1.396   6.137  0.00  0.00    +0.155 HD
ENDROOT
BRANCH   3   5
ATOM      5  C   UNL     1       0.062   0.398   7.114  0.00  0.00    +0.091 A 
ATOM      6  C   UNL     1       0.087  -0.081   8.418  0.00  0.00    +0.083 A 
ATOM      7  C   UNL     1       0.090   0.678   9.607  0.00  0.00    -0.023 A 
ATOM      8  C   UNL     1       0.093   2.025   9.704  0.00  0.00    -0.022 A 
ATOM      9  C   UNL     1       0.056   2.881   8.568  0.00  0.00    +0.061 A 
ATOM     10  S   UNL     1       0.038   4.587   8.717  0.00  0.00    -0.044 S 
ATOM     11  S   UNL     1       0.038   2.074   6.985  0.00  0.00    -0.065 S 
ATOM     12  C   UNL     1       0.150   2.764  11.021  0.00  0.00    +0.040 C 
ATOM     13  C   UNL     1      -0.251   1.865  12.184  0.00  0.00    -0.009 C 
ATOM     14  C   UNL     1       0.571   0.574  12.074  0.00  0.00    +0.008 C 
ATOM     15  C   UNL     1       0.077  -0.192  10.856  0.00  0.00    +0.037 C 
ATOM     16  C   UNL     1       0.053   2.564  13.511  0.00  0.00    +0.008 C 
BRANCH   6  17
ATOM     17  C   UNL     1       0.112  -1.504   8.573  0.00  0.00    +0.102 C 
ATOM     18  N   UNL     1       0.133  -2.633   8.696  0.00  0.00    -0.191 NA
ENDBRANCH   6  17
ENDBRANCH   3   5
BRANCH   1  19
ATOM     19  C   UNL     1       0.047  -0.820   3.574  0.00  0.00    +0.324 C 
BRANCH  19  20
ATOM     20  O   UNL     1       0.025  -0.033   2.381  0.00  0.00    -0.482 OA
BRANCH  20  27
ATOM     21  C   UNL     1      -0.018   1.503   0.010  0.00  0.00    +0.047 C 
ATOM     22  C   UNL     1       0.002  -0.004   0.002  0.00  0.00    -0.007 A 
ATOM     23  C   UNL     1       0.006  -0.689  -1.198  0.00  0.00    +0.039 A 
ATOM     24  C   UNL     1       0.025  -2.071  -1.206  0.00  0.00    +0.127 A 
ATOM     25  C   UNL     1       0.040  -2.772  -0.014  0.00  0.00    +0.036 A 
ATOM     26  C   UNL     1       0.036  -2.092   1.188  0.00  0.00    +0.048 A 
ATOM     27  C   UNL     1       0.023  -0.705   1.199  0.00  0.00    +0.124 A 
BRANCH  24  28
ATOM     28  N   UNL     1       0.028  -2.802  -2.493  0.00  0.00    +0.056 N 
ATOM     29  O   UNL     1       0.015  -2.191  -3.536  0.00  0.00    -0.126 OA
ATOM     30  O   UNL     1       0.044  -4.011  -2.502  0.00  0.00    -0.126 OA
ENDBRANCH  24  28
ENDBRANCH  20  27
ENDBRANCH  19  20
ENDBRANCH   1  19
TORSDOF 6
