REMARK  Name = ZINC38554791
REMARK  3 active torsions:
REMARK  status: ('A' for Active; 'I' for Inactive)
REMARK    1  A    between atoms: C_4  and  C_7
REMARK    2  A    between atoms: C_7  and  C_8
REMARK    3  A    between atoms: C_7  and  N_14
REMARK                            x       y       z     vdW  Elec       q    Type
REMARK                         _______ _______ _______ _____ _____    ______ ____
ROOT
ATOM      1  N   UNL     1       4.128  -0.502  -2.754  0.00  0.00    -0.288 N 
ATOM      2  C   UNL     1       3.825  -1.716  -2.253  0.00  0.00    +0.303 C 
ATOM      3  O   UNL     1       3.723  -1.869  -1.051  0.00  0.00    -0.253 OA
ATOM      4  N   UNL     1       3.634  -2.760  -3.084  0.00  0.00    -0.283 N 
ATOM      5  C   UNL     1       3.188  -4.059  -2.562  0.00  0.00    +0.128 C 
ATOM      6  C   UNL     1       1.914  -4.476  -3.307  0.00  0.00    +0.127 C 
ATOM      7  N   UNL     1       2.147  -4.335  -4.751  0.00  0.00    -0.300 N 
ATOM      8  C   UNL     1       2.592  -3.035  -5.273  0.00  0.00    +0.127 C 
ATOM      9  C   UNL     1       3.861  -2.617  -4.529  0.00  0.00    +0.128 C 
ATOM     10  C   UNL     1       1.952  -5.400  -5.598  0.00  0.00    +0.174 A 
ATOM     11  N   UNL     1       2.232  -5.399  -6.900  0.00  0.00    -0.327 N 
ATOM     12  H   UNL     1       2.602  -4.655  -7.400  0.00  0.00    +0.169 HD
ATOM     13  C   UNL     1       1.908  -6.628  -7.413  0.00  0.00    +0.065 A 
ATOM     14  C   UNL     1       1.982  -7.190  -8.684  0.00  0.00    +0.028 A 
ATOM     15  C   UNL     1       1.567  -8.489  -8.884  0.00  0.00    +0.002 A 
ATOM     16  C   UNL     1       1.075  -9.240  -7.827  0.00  0.00    +0.002 A 
ATOM     17  C   UNL     1       0.995  -8.699  -6.562  0.00  0.00    +0.028 A 
ATOM     18  C   UNL     1       1.410  -7.389  -6.343  0.00  0.00    +0.065 A 
ATOM     19  N   UNL     1       1.463  -6.583  -5.236  0.00  0.00    -0.327 N 
ATOM     20  H   UNL     1       4.281  -0.395  -3.706  0.00  0.00    +0.151 HD
ATOM     21  H   UNL     1       1.187  -6.833  -4.340  0.00  0.00    +0.169 HD
ENDROOT
BRANCH   1  22
ATOM     22  C   UNL     1       4.226   0.655  -1.861  0.00  0.00    +0.135 C 
BRANCH  22  26
ATOM     23  C   UNL     1       8.148   0.822  -0.175  0.00  0.00    +0.000 A 
ATOM     24  C   UNL     1       7.046   1.117   0.606  0.00  0.00    +0.000 A 
ATOM     25  C   UNL     1       5.777   1.063   0.060  0.00  0.00    +0.006 A 
ATOM     26  C   UNL     1       5.610   0.715  -1.267  0.00  0.00    -0.023 A 
ATOM     27  C   UNL     1       6.711   0.421  -2.048  0.00  0.00    +0.006 A 
ATOM     28  C   UNL     1       7.980   0.473  -1.502  0.00  0.00    +0.000 A 
ENDBRANCH  22  26
BRANCH  22  29
ATOM     29  C   UNL     1       3.961   1.916  -2.643  0.00  0.00    -0.023 A 
ATOM     30  C   UNL     1       4.462   2.054  -3.924  0.00  0.00    +0.006 A 
ATOM     31  C   UNL     1       4.219   3.211  -4.641  0.00  0.00    +0.000 A 
ATOM     32  C   UNL     1       3.473   4.229  -4.077  0.00  0.00    +0.000 A 
ATOM     33  C   UNL     1       2.971   4.091  -2.796  0.00  0.00    +0.000 A 
ATOM     34  C   UNL     1       3.211   2.933  -2.081  0.00  0.00    +0.006 A 
ENDBRANCH  22  29
ENDBRANCH   1  22
TORSDOF 3
