REMARK  Name = ZINC38786990
REMARK  9 active torsions:
REMARK  status: ('A' for Active; 'I' for Inactive)
REMARK    1  A    between atoms: C_1  and  C_2
REMARK    2  A    between atoms: C_2  and  N_3
REMARK    3  A    between atoms: C_5  and  C_18
REMARK    4  A    between atoms: N_20  and  C_21
REMARK    5  A    between atoms: C_21  and  C_23
REMARK    6  A    between atoms: C_21  and  C_24
REMARK    7  A    between atoms: N_26  and  C_27
REMARK    8  A    between atoms: C_27  and  C_28
REMARK    9  A    between atoms: C_28  and  C_29
REMARK                            x       y       z     vdW  Elec       q    Type
REMARK                         _______ _______ _______ _____ _____    ______ ____
ROOT
ATOM      1  C   UNL     1       3.963  -2.308   1.766  0.00  0.00    +0.226 C 
ATOM      2  O   UNL     1       4.711  -1.444   1.359  0.00  0.00    -0.275 OA
ATOM      3  N   UNL     1       4.466  -3.461   2.249  0.00  0.00    -0.304 N 
ATOM      4  H   UNL     1       3.868  -4.152   2.575  0.00  0.00    +0.149 HD
ENDROOT
BRANCH   1   7
ATOM      5  N   UNL     1       0.711  -0.489   1.189  0.00  0.00    -0.328 N 
ATOM      6  C   UNL     1       2.161  -0.709   1.141  0.00  0.00    +0.126 C 
ATOM      7  C   UNL     1       2.473  -2.091   1.732  0.00  0.00    +0.163 C 
ATOM      8  C   UNL     1       1.915  -2.129   3.141  0.00  0.00    +0.178 C 
ATOM      9  O   UNL     1       2.549  -2.612   4.056  0.00  0.00    -0.291 OA
ATOM     10  C   UNL     1       0.580  -1.559   3.359  0.00  0.00    +0.043 A 
ATOM     11  C   UNL     1       0.012  -0.737   2.364  0.00  0.00    +0.044 A 
ATOM     12  C   UNL     1      -1.244  -0.188   2.563  0.00  0.00    +0.073 A 
ATOM     13  C   UNL     1      -1.937  -0.442   3.737  0.00  0.00    +0.168 A 
ATOM     14  C   UNL     1      -1.374  -1.253   4.728  0.00  0.00    +0.167 A 
ATOM     15  C   UNL     1      -0.125  -1.818   4.540  0.00  0.00    +0.062 A 
ATOM     16  O   UNL     1      -2.254  -1.340   5.769  0.00  0.00    -0.453 OA
ATOM     17  C   UNL     1      -3.175  -0.250   5.585  0.00  0.00    +0.466 C 
ATOM     18  O   UNL     1      -3.164  -0.027   4.162  0.00  0.00    -0.453 OA
BRANCH   5  20
ATOM     19  C   UNL     1      -0.019   1.526   0.010  0.00  0.00    +0.024 C 
ATOM     20  C   UNL     1       0.002  -0.004   0.002  0.00  0.00    +0.102 C 
ENDBRANCH   5  20
ENDBRANCH   1   7
BRANCH   3  21
ATOM     21  C   UNL     1       5.915  -3.672   2.283  0.00  0.00    +0.156 C 
ATOM     22  C   UNL     1       6.491  -3.057   3.560  0.00  0.00    +0.038 C 
BRANCH  21  23
ATOM     23  C   UNL     1       6.209  -5.150   2.260  0.00  0.00    +0.233 C 
ATOM     24  O   UNL     1       5.297  -5.949   2.221  0.00  0.00    -0.274 OA
ATOM     25  N   UNL     1       7.485  -5.584   2.285  0.00  0.00    -0.313 N 
ATOM     26  H   UNL     1       8.214  -4.945   2.316  0.00  0.00    +0.149 HD
BRANCH  25  27
ATOM     27  C   UNL     1       7.770  -7.021   2.263  0.00  0.00    +0.109 C 
BRANCH  27  28
ATOM     28  C   UNL     1       9.284  -7.241   2.298  0.00  0.00    +0.056 C 
BRANCH  28  29
ATOM     29  C   UNL     1       9.577  -8.719   2.276  0.00  0.00    -0.021 A 
ATOM     30  C   UNL     1       9.677  -9.570   1.087  0.00  0.00    +0.006 A 
ATOM     31  C   UNL     1       9.549  -9.339  -0.284  0.00  0.00    +0.048 A 
ATOM     32  C   UNL     1       9.705 -10.384  -1.168  0.00  0.00    +0.124 A 
ATOM     33  C   UNL     1       9.988 -11.662  -0.701  0.00  0.00    +0.040 A 
ATOM     34  C   UNL     1      10.116 -11.904   0.649  0.00  0.00    +0.029 A 
ATOM     35  C   UNL     1       9.963 -10.864   1.558  0.00  0.00    +0.047 A 
ATOM     36  N   UNL     1      10.029 -10.790   2.933  0.00  0.00    -0.360 N 
ATOM     37  C   UNL     1       9.803  -9.504   3.341  0.00  0.00    +0.087 A 
ATOM     38  F   UNL     1       9.582 -10.165  -2.496  0.00  0.00    -0.205 F 
ATOM     39  H   UNL     1      10.213 -11.537   3.523  0.00  0.00    +0.165 HD
ENDBRANCH  28  29
ENDBRANCH  27  28
ENDBRANCH  25  27
ENDBRANCH  21  23
ENDBRANCH   3  21
TORSDOF 7
