REMARK  Name = ZINC08792754
REMARK  9 active torsions:
REMARK  status: ('A' for Active; 'I' for Inactive)
REMARK    1  A    between atoms: C_4  and  N_7
REMARK    2  A    between atoms: C_8  and  C_21
REMARK    3  A    between atoms: C_11  and  S_12
REMARK    4  A    between atoms: S_12  and  C_13
REMARK    5  A    between atoms: C_13  and  C_14
REMARK    6  A    between atoms: C_21  and  N_22
REMARK    7  A    between atoms: C_23  and  C_25
REMARK    8  A    between atoms: C_25  and  O_26
REMARK    9  A    between atoms: O_26  and  C_27
REMARK                            x       y       z     vdW  Elec       q    Type
REMARK                         _______ _______ _______ _____ _____    ______ ____
ROOT
ATOM      1  N   UNL     1       0.819   1.859   5.549  0.00  0.00    -0.273 N 
ATOM      2  C   UNL     1      -0.198   1.219   4.892  0.00  0.00    +0.156 A 
ATOM      3  N   UNL     1      -0.423   0.101   5.522  0.00  0.00    -0.132 NA
ATOM      4  N   UNL     1       0.381  -0.015   6.518  0.00  0.00    -0.122 NA
ATOM      5  C   UNL     1       1.164   1.037   6.586  0.00  0.00    +0.196 A 
ENDROOT
BRANCH   1   9
ATOM      6  C   UNL     1       2.510   5.547   4.588  0.00  0.00    +0.000 A 
ATOM      7  C   UNL     1       1.822   5.393   5.777  0.00  0.00    +0.002 A 
ATOM      8  C   UNL     1       1.260   4.172   6.098  0.00  0.00    +0.026 A 
ATOM      9  C   UNL     1       1.388   3.100   5.226  0.00  0.00    +0.050 A 
ATOM     10  C   UNL     1       2.084   3.257   4.035  0.00  0.00    +0.026 A 
ATOM     11  C   UNL     1       2.639   4.481   3.717  0.00  0.00    +0.002 A 
ENDBRANCH   1   9
BRANCH   5  12
ATOM     12  S   UNL     1       2.421   1.333   7.785  0.00  0.00    -0.081 S 
BRANCH  12  13
ATOM     13  C   UNL     1       2.263  -0.170   8.782  0.00  0.00    +0.112 C 
BRANCH  13  14
ATOM     14  C   UNL     1       3.270  -0.136   9.903  0.00  0.00    -0.037 A 
ATOM     15  C   UNL     1       4.529  -0.676   9.717  0.00  0.00    +0.005 A 
ATOM     16  C   UNL     1       5.455  -0.641  10.743  0.00  0.00    +0.015 A 
ATOM     17  C   UNL     1       5.118  -0.076  11.959  0.00  0.00    +0.018 A 
ATOM     18  C   UNL     1       3.856   0.459  12.147  0.00  0.00    +0.015 A 
ATOM     19  C   UNL     1       2.933   0.429  11.119  0.00  0.00    +0.005 A 
ATOM     20 BR   UNL     1       6.381  -0.035  13.365  0.00  0.00    -0.050 Br
ENDBRANCH  13  14
ENDBRANCH  12  13
ENDBRANCH   5  12
BRANCH   2  21
ATOM     21  C   UNL     1      -0.927   1.718   3.671  0.00  0.00    +0.181 C 
BRANCH  21  22
ATOM     22  N   UNL     1      -0.242   1.246   2.466  0.00  0.00    -0.305 N 
ATOM     23  C   UNL     1      -0.718   1.572   1.248  0.00  0.00    +0.251 C 
ATOM     24  O   UNL     1      -1.714   2.256   1.150  0.00  0.00    -0.272 OA
ATOM     25  H   UNL     1       0.555   0.699   2.544  0.00  0.00    +0.149 HD
BRANCH  23  26
ATOM     26  C   UNL     1      -0.013   1.086   0.008  0.00  0.00    +0.324 C 
BRANCH  26  27
ATOM     27  O   UNL     1      -0.704   1.559  -1.150  0.00  0.00    -0.483 OA
BRANCH  27  28
ATOM     28  C   UNL     1      -0.194   1.208  -2.359  0.00  0.00    +0.121 A 
ATOM     29  C   UNL     1       0.951   0.428  -2.431  0.00  0.00    +0.045 A 
ATOM     30  C   UNL     1       1.464   0.067  -3.662  0.00  0.00    +0.004 A 
ATOM     31  C   UNL     1       0.844   0.492  -4.822  0.00  0.00    +0.000 A 
ATOM     32  C   UNL     1      -0.294   1.274  -4.753  0.00  0.00    +0.004 A 
ATOM     33  C   UNL     1      -0.815   1.633  -3.525  0.00  0.00    +0.045 A 
ENDBRANCH  27  28
ENDBRANCH  26  27
ENDBRANCH  23  26
ENDBRANCH  21  22
ENDBRANCH   2  21
TORSDOF 9
