REMARK  Name = ZINC16608082
REMARK  8 active torsions:
REMARK  status: ('A' for Active; 'I' for Inactive)
REMARK    1  A    between atoms: C_1  and  C_2
REMARK    2  A    between atoms: N_6  and  C_32
REMARK    3  A    between atoms: N_15  and  C_18
REMARK    4  A    between atoms: C_18  and  N_19
REMARK    5  A    between atoms: C_22  and  C_25
REMARK    6  A    between atoms: C_25  and  C_26
REMARK    7  A    between atoms: C_35  and  O_38
REMARK    8  A    between atoms: O_38  and  C_39
REMARK                            x       y       z     vdW  Elec       q    Type
REMARK                         _______ _______ _______ _____ _____    ______ ____
ROOT
ATOM      1  C   UNL     1      -0.763   1.350   0.307  0.00  0.00    +0.029 C 
ATOM      2  C   UNL     1      -0.182  -0.066   0.311  0.00  0.00    +0.132 C 
ATOM      3  C   UNL     1       0.665  -0.317  -0.929  0.00  0.00    +0.234 C 
ATOM      4  O   UNL     1       0.262  -0.028  -2.036  0.00  0.00    -0.274 OA
ATOM      5  N   UNL     1       1.866  -0.866  -0.752  0.00  0.00    -0.243 N 
ATOM      6  C   UNL     1       2.302  -1.181   0.605  0.00  0.00    +0.193 C 
ATOM      7  S   UNL     1       1.091  -0.262   1.635  0.00  0.00    -0.108 S 
ATOM      8  C   UNL     1       2.269  -2.644   0.918  0.00  0.00    +0.017 A 
ATOM      9  C   UNL     1       1.292  -3.612   0.861  0.00  0.00    +0.009 A 
ATOM     10  C   UNL     1       1.582  -4.914   1.226  0.00  0.00    +0.000 A 
ATOM     11  C   UNL     1       2.857  -5.242   1.649  0.00  0.00    +0.002 A 
ATOM     12  C   UNL     1       3.841  -4.277   1.709  0.00  0.00    +0.024 A 
ATOM     13  C   UNL     1       3.557  -2.963   1.344  0.00  0.00    +0.041 A 
ATOM     14  N   UNL     1       4.370  -1.827   1.321  0.00  0.00    -0.285 N 
ATOM     15  C   UNL     1       3.702  -0.734   0.897  0.00  0.00    +0.257 C 
ATOM     16  O   UNL     1       4.147   0.389   0.777  0.00  0.00    -0.272 OA
ENDROOT
BRANCH   5  17
ATOM     17  C   UNL     1       2.694  -1.138  -1.848  0.00  0.00    +0.039 A 
ATOM     18  C   UNL     1       2.740  -2.418  -2.384  0.00  0.00    +0.027 A 
ATOM     19  C   UNL     1       3.557  -2.685  -3.465  0.00  0.00    +0.047 A 
ATOM     20  C   UNL     1       4.332  -1.675  -4.015  0.00  0.00    +0.120 A 
ATOM     21  C   UNL     1       4.287  -0.396  -3.480  0.00  0.00    +0.047 A 
ATOM     22  C   UNL     1       3.466  -0.126  -2.403  0.00  0.00    +0.027 A 
BRANCH  20  23
ATOM     23  O   UNL     1       5.136  -1.938  -5.080  0.00  0.00    -0.495 OA
ATOM     24  C   UNL     1       5.906  -0.851  -5.596  0.00  0.00    +0.277 C 
ENDBRANCH  20  23
ENDBRANCH   5  17
BRANCH  14  25
ATOM     25  C   UNL     1       5.782  -1.823   1.712  0.00  0.00    +0.038 C 
BRANCH  25  26
ATOM     26  N   UNL     1       6.604  -2.273   0.581  0.00  0.00    +0.390 N 
ATOM     27  C   UNL     1       6.508  -1.297  -0.511  0.00  0.00    -0.076 C 
ATOM     28  C   UNL     1       7.298  -1.801  -1.721  0.00  0.00    -0.015 C 
ATOM     29  C   UNL     1       8.766  -1.984  -1.325  0.00  0.00    -0.010 C 
ATOM     30  C   UNL     1       8.848  -2.947  -0.137  0.00  0.00    -0.015 C 
ATOM     31  C   UNL     1       8.001  -2.401   1.014  0.00  0.00    -0.076 C 
ATOM     32  H   UNL     1       6.270  -3.169   0.259  0.00  0.00    -0.080 HD
BRANCH  29  33
ATOM     33  C   UNL     1       9.546  -2.563  -2.508  0.00  0.00    +0.038 C 
BRANCH  33  34
ATOM     34  C   UNL     1      11.011  -2.628  -2.159  0.00  0.00    -0.047 A 
ATOM     35  C   UNL     1      11.835  -1.553  -2.433  0.00  0.00    +0.003 A 
ATOM     36  C   UNL     1      13.178  -1.612  -2.114  0.00  0.00    +0.000 A 
ATOM     37  C   UNL     1      13.698  -2.747  -1.520  0.00  0.00    +0.000 A 
ATOM     38  C   UNL     1      12.874  -3.822  -1.245  0.00  0.00    +0.000 A 
ATOM     39  C   UNL     1      11.529  -3.761  -1.561  0.00  0.00    +0.003 A 
ENDBRANCH  33  34
ENDBRANCH  29  33
ENDBRANCH  25  26
ENDBRANCH  14  25
TORSDOF 6
