REMARK  Name = ZINC59018736
REMARK  8 active torsions:
REMARK  status: ('A' for Active; 'I' for Inactive)
REMARK    1  A    between atoms: C_1  and  O_2
REMARK    2  A    between atoms: O_2  and  C_3
REMARK    3  A    between atoms: C_8  and  C_9
REMARK    4  A    between atoms: N_10  and  N_11
REMARK    5  A    between atoms: C_14  and  S_17
REMARK    6  A    between atoms: S_17  and  C_18
REMARK    7  A    between atoms: C_18  and  C_19
REMARK    8  A    between atoms: N_21  and  C_22
REMARK                            x       y       z     vdW  Elec       q    Type
REMARK                         _______ _______ _______ _____ _____    ______ ____
ROOT
ATOM      1  N   UNL     1      -1.129  -3.040   1.935  0.00  0.00    -0.205 N 
ATOM      2  C   UNL     1      -1.737  -2.434   3.018  0.00  0.00    +0.232 A 
ATOM      3  N   UNL     1      -1.857  -1.137   3.214  0.00  0.00    -0.186 NA
ATOM      4  C   UNL     1      -2.499  -0.913   4.365  0.00  0.00    +0.211 A 
ATOM      5  N   UNL     1      -2.796  -2.065   4.918  0.00  0.00    -0.144 NA
ATOM      6  N   UNL     1      -2.317  -3.068   4.060  0.00  0.00    -0.245 N 
ATOM      7  H   UNL     1      -1.094  -4.008   1.877  0.00  0.00    +0.177 HD
ATOM      8  H   UNL     1      -2.387  -4.026   4.191  0.00  0.00    +0.192 HD
ENDROOT
BRANCH   1  10
ATOM      9  C   UNL     1       0.006  -2.826  -0.098  0.00  0.00    +0.142 C 
ATOM     10  N   UNL     1      -0.565  -2.257   0.920  0.00  0.00    -0.187 NA
BRANCH   9  16
ATOM     11  C   UNL     1       0.551  -0.604  -1.087  0.00  0.00    +0.129 A 
ATOM     12  C   UNL     1       1.117   0.162  -2.093  0.00  0.00    +0.046 A 
ATOM     13  C   UNL     1       1.723  -0.452  -3.173  0.00  0.00    +0.004 A 
ATOM     14  C   UNL     1       1.769  -1.833  -3.259  0.00  0.00    +0.001 A 
ATOM     15  C   UNL     1       1.210  -2.610  -2.265  0.00  0.00    +0.013 A 
ATOM     16  C   UNL     1       0.600  -2.002  -1.166  0.00  0.00    +0.036 A 
BRANCH  11  18
ATOM     17  C   UNL     1      -0.057   1.428  -0.012  0.00  0.00    +0.277 C 
ATOM     18  O   UNL     1      -0.045  -0.001  -0.025  0.00  0.00    -0.494 OA
ENDBRANCH  11  18
ENDBRANCH   9  16
ENDBRANCH   1  10
BRANCH   4  19
ATOM     19  S   UNL     1      -2.883   0.672   5.032  0.00  0.00    -0.075 S 
BRANCH  19  20
ATOM     20  C   UNL     1      -3.743   0.299   6.585  0.00  0.00    +0.173 C 
BRANCH  20  21
ATOM     21  C   UNL     1      -4.132   1.586   7.265  0.00  0.00    +0.228 C 
ATOM     22  O   UNL     1      -3.856   2.650   6.753  0.00  0.00    -0.275 OA
ATOM     23  N   UNL     1      -4.786   1.554   8.443  0.00  0.00    -0.284 N 
ATOM     24  H   UNL     1      -5.064   0.705   8.820  0.00  0.00    +0.155 HD
BRANCH  23  25
ATOM     25  C   UNL     1      -5.064   2.747   9.121  0.00  0.00    +0.047 A 
ATOM     26  C   UNL     1      -5.359   3.901   8.407  0.00  0.00    +0.024 A 
ATOM     27  C   UNL     1      -5.633   5.076   9.079  0.00  0.00    +0.002 A 
ATOM     28  C   UNL     1      -5.615   5.104  10.462  0.00  0.00    +0.001 A 
ATOM     29  C   UNL     1      -5.321   3.957  11.176  0.00  0.00    +0.017 A 
ATOM     30  C   UNL     1      -5.051   2.777  10.510  0.00  0.00    +0.039 A 
ATOM     31 BR   UNL     1      -4.658   1.207  11.488  0.00  0.00    -0.048 Br
ENDBRANCH  23  25
ENDBRANCH  20  21
ENDBRANCH  19  20
ENDBRANCH   4  19
TORSDOF 7
