REMARK  Name = ZINC34734109
REMARK  5 active torsions:
REMARK  status: ('A' for Active; 'I' for Inactive)
REMARK    1  A    between atoms: C_1  and  C_2
REMARK    2  A    between atoms: C_7  and  N_8
REMARK    3  A    between atoms: C_11  and  C_26
REMARK    4  A    between atoms: N_18  and  C_19
REMARK    5  A    between atoms: C_19  and  C_20
REMARK                            x       y       z     vdW  Elec       q    Type
REMARK                         _______ _______ _______ _____ _____    ______ ____
ROOT
ATOM      1  N   UNL     1      -0.716   0.045   2.420  0.00  0.00    -0.299 N 
ATOM      2  C   UNL     1      -0.734  -0.659   3.612  0.00  0.00    +0.137 A 
ATOM      3  C   UNL     1      -0.496   0.009   4.844  0.00  0.00    +0.055 A 
ATOM      4  C   UNL     1      -0.214   1.419   5.097  0.00  0.00    +0.002 A 
ATOM      5  C   UNL     1      -0.021   1.825   6.373  0.00  0.00    +0.056 A 
ATOM      6  S   UNL     1      -0.208   0.326   7.320  0.00  0.00    -0.076 S 
ATOM      7  C   UNL     1      -0.538  -0.804   5.994  0.00  0.00    +0.116 A 
ATOM      8  N   UNL     1      -0.782  -2.098   5.915  0.00  0.00    -0.207 NA
ATOM      9  C   UNL     1      -0.996  -2.669   4.737  0.00  0.00    +0.218 A 
ATOM     10  N   UNL     1      -0.978  -1.959   3.616  0.00  0.00    -0.199 NA
ATOM     11  N   UNL     1      -1.249  -4.029   4.676  0.00  0.00    -0.309 N 
ATOM     12  H   UNL     1      -0.631   1.012   2.429  0.00  0.00    +0.154 HD
ATOM     13  H   UNL     1      -1.407  -4.455   3.820  0.00  0.00    +0.149 HD
ENDROOT
BRANCH   1  20
ATOM     14  C   UNL     1      -1.655   1.483   0.152  0.00  0.00    +0.045 C 
ATOM     15  C   UNL     1      -1.274   0.028   0.071  0.00  0.00    -0.029 A 
ATOM     16  C   UNL     1      -1.371  -0.647  -1.130  0.00  0.00    +0.005 A 
ATOM     17  C   UNL     1      -1.022  -1.983  -1.204  0.00  0.00    +0.000 A 
ATOM     18  C   UNL     1      -0.575  -2.648  -0.077  0.00  0.00    +0.002 A 
ATOM     19  C   UNL     1      -0.476  -1.980   1.127  0.00  0.00    +0.023 A 
ATOM     20  C   UNL     1      -0.821  -0.636   1.204  0.00  0.00    +0.035 A 
ENDBRANCH   1  20
BRANCH   4  21
ATOM     21  C   UNL     1      -0.141   2.387   3.978  0.00  0.00    -0.017 A 
ATOM     22  C   UNL     1       0.796   2.211   2.960  0.00  0.00    +0.008 A 
ATOM     23  C   UNL     1       0.860   3.116   1.920  0.00  0.00    +0.001 A 
ATOM     24  C   UNL     1      -0.004   4.196   1.886  0.00  0.00    +0.000 A 
ATOM     25  C   UNL     1      -0.935   4.376   2.893  0.00  0.00    +0.001 A 
ATOM     26  C   UNL     1      -1.012   3.475   3.935  0.00  0.00    +0.008 A 
ENDBRANCH   4  21
BRANCH  11  27
ATOM     27  C   UNL     1      -1.280  -4.824   5.907  0.00  0.00    +0.139 C 
BRANCH  27  28
ATOM     28  C   UNL     1      -1.574  -6.263   5.568  0.00  0.00    -0.030 A 
ATOM     29  C   UNL     1      -2.882  -6.707   5.516  0.00  0.00    +0.005 A 
ATOM     30  C   UNL     1      -3.152  -8.027   5.205  0.00  0.00    +0.000 A 
ATOM     31  C   UNL     1      -2.113  -8.902   4.946  0.00  0.00    +0.000 A 
ATOM     32  C   UNL     1      -0.806  -8.457   4.997  0.00  0.00    +0.000 A 
ATOM     33  C   UNL     1      -0.536  -7.136   5.304  0.00  0.00    +0.005 A 
ENDBRANCH  27  28
ENDBRANCH  11  27
TORSDOF 4
