REMARK  Name = ZINC40728015
REMARK  4 active torsions:
REMARK  status: ('A' for Active; 'I' for Inactive)
REMARK    1  A    between atoms: C_1  and  C_2
REMARK    2  A    between atoms: C_10  and  N_28
REMARK    3  A    between atoms: C_11  and  N_15
REMARK    4  A    between atoms: N_18  and  C_21
REMARK                            x       y       z     vdW  Elec       q    Type
REMARK                         _______ _______ _______ _____ _____    ______ ____
ROOT
ATOM      1  C   UNL     1       3.685   0.604   0.886  0.00  0.00    +0.009 C 
ATOM      2  C   UNL     1       2.258   0.070   1.028  0.00  0.00    +0.003 C 
ATOM      3  C   UNL     1       1.448   0.440  -0.217  0.00  0.00    +0.006 C 
ATOM      4  C   UNL     1       0.012  -0.065  -0.062  0.00  0.00    +0.019 C 
ATOM      5  C   UNL     1       0.023  -1.591   0.071  0.00  0.00    +0.106 C 
ATOM      6  N   UNL     1       0.915  -1.962   1.177  0.00  0.00    -0.313 N 
ATOM      7  C   UNL     1       2.294  -1.454   1.174  0.00  0.00    +0.109 C 
ATOM      8  C   UNL     1       0.465  -2.779   2.208  0.00  0.00    +0.147 A 
ATOM      9  C   UNL     1       0.496  -4.168   2.077  0.00  0.00    +0.106 A 
ATOM     10  C   UNL     1       0.031  -4.941   3.142  0.00  0.00    +0.147 A 
ATOM     11  N   UNL     1      -0.420  -4.329   4.234  0.00  0.00    -0.219 NA
ATOM     12  C   UNL     1      -0.433  -3.014   4.317  0.00  0.00    +0.225 A 
ATOM     13  N   UNL     1       0.001  -2.248   3.337  0.00  0.00    -0.219 NA
ENDROOT
BRANCH  10  14
ATOM     14  N   UNL     1       0.040  -6.329   3.064  0.00  0.00    -0.311 N 
ATOM     15  C   UNL     1       1.160  -7.102   3.618  0.00  0.00    +0.125 C 
ATOM     16  C   UNL     1       0.602  -8.126   4.615  0.00  0.00    +0.124 C 
ATOM     17  N   UNL     1      -0.508  -8.846   3.976  0.00  0.00    -0.327 N 
ATOM     18  C   UNL     1      -1.628  -8.073   3.422  0.00  0.00    +0.124 C 
ATOM     19  C   UNL     1      -1.073  -7.049   2.430  0.00  0.00    +0.125 C 
BRANCH  17  20
ATOM     20  C   UNL     1      -0.500 -10.241   3.897  0.00  0.00    +0.031 A 
ATOM     21  C   UNL     1       0.615 -10.955   4.320  0.00  0.00    +0.023 A 
ATOM     22  C   UNL     1       0.621 -12.333   4.241  0.00  0.00    +0.003 A 
ATOM     23  C   UNL     1      -0.481 -13.004   3.742  0.00  0.00    +0.020 A 
ATOM     24  C   UNL     1      -1.593 -12.296   3.320  0.00  0.00    +0.043 A 
ATOM     25  C   UNL     1      -1.607 -10.916   3.402  0.00  0.00    +0.043 A 
ATOM     26 CL   UNL     1      -2.973 -13.142   2.694  0.00  0.00    -0.083 Cl
ENDBRANCH  17  20
ENDBRANCH  10  14
BRANCH   9  27
ATOM     27  N   UNL     1       0.981  -4.772   0.905  0.00  0.00    -0.353 N 
ATOM     28  H   UNL     1       1.367  -4.226   0.203  0.00  0.00    +0.143 HD
ATOM     29  H   UNL     1       0.930  -5.734   0.799  0.00  0.00    +0.143 HD
ENDBRANCH   9  27
TORSDOF 3
