REMARK  Name = ZINC05461655
REMARK  8 active torsions:
REMARK  status: ('A' for Active; 'I' for Inactive)
REMARK    1  A    between atoms: C_1  and  C_2
REMARK    2  A    between atoms: C_2  and  C_3
REMARK    3  A    between atoms: C_4  and  C_28
REMARK    4  A    between atoms: C_5  and  C_26
REMARK    5  A    between atoms: C_15  and  N_16
REMARK    6  A    between atoms: N_16  and  N_17
REMARK    7  A    between atoms: C_18  and  C_19
REMARK    8  A    between atoms: C_23  and  O_25
REMARK                            x       y       z     vdW  Elec       q    Type
REMARK                         _______ _______ _______ _____ _____    ______ ____
ROOT
ATOM      1  C   UNL     1      -2.385   9.490  -0.091  0.00  0.00    -0.003 A 
ATOM      2  C   UNL     1      -3.586  10.185  -0.104  0.00  0.00    -0.023 A 
ATOM      3  C   UNL     1      -4.769   9.519   0.217  0.00  0.00    +0.098 A 
ATOM      4  C   UNL     1      -4.705   8.092   0.554  0.00  0.00    +0.158 A 
ATOM      5  N   UNL     1      -5.645   7.228   0.890  0.00  0.00    -0.226 NA
ATOM      6  C   UNL     1      -5.090   6.013   1.110  0.00  0.00    +0.090 A 
ATOM      7  C   UNL     1      -5.616   4.771   1.483  0.00  0.00    +0.030 A 
ATOM      8  C   UNL     1      -4.786   3.697   1.632  0.00  0.00    +0.002 A 
ATOM      9  C   UNL     1      -3.420   3.822   1.417  0.00  0.00    +0.002 A 
ATOM     10  C   UNL     1      -2.879   5.036   1.050  0.00  0.00    +0.028 A 
ATOM     11  C   UNL     1      -3.706   6.139   0.893  0.00  0.00    +0.075 A 
ATOM     12  N   UNL     1      -3.485   7.460   0.543  0.00  0.00    -0.278 N 
ATOM     13  C   UNL     1      -2.348   8.149   0.223  0.00  0.00    +0.128 A 
ATOM     14  C   UNL     1      -3.611  11.650  -0.456  0.00  0.00    +0.045 C 
ENDROOT
BRANCH   1  16
ATOM     15  C   UNL     1      -0.932  10.250  -1.951  0.00  0.00    +0.009 C 
ATOM     16  C   UNL     1      -1.105  10.210  -0.432  0.00  0.00    +0.035 C 
ENDBRANCH   1  16
BRANCH  13  17
ATOM     17  N   UNL     1      -1.142   7.492   0.220  0.00  0.00    -0.222 N 
ATOM     18  H   UNL     1      -0.967   6.798   0.875  0.00  0.00    +0.176 HD
BRANCH  17  19
ATOM     19  N   UNL     1      -0.166   7.823  -0.728  0.00  0.00    -0.189 NA
ATOM     20  C   UNL     1       0.938   7.142  -0.789  0.00  0.00    +0.138 C 
BRANCH  20  21
ATOM     21  C   UNL     1       1.999   7.541  -1.731  0.00  0.00    -0.002 A 
ATOM     22  C   UNL     1       1.772   8.569  -2.650  0.00  0.00    +0.010 A 
ATOM     23  C   UNL     1       2.769   8.942  -3.526  0.00  0.00    +0.004 A 
ATOM     24  C   UNL     1       3.992   8.296  -3.506  0.00  0.00    +0.045 A 
ATOM     25  C   UNL     1       4.228   7.274  -2.596  0.00  0.00    +0.117 A 
ATOM     26  C   UNL     1       3.236   6.894  -1.708  0.00  0.00    +0.054 A 
BRANCH  25  27
ATOM     27  O   UNL     1       5.434   6.647  -2.578  0.00  0.00    -0.507 OA
ATOM     28  H   UNL     1       6.080   7.056  -1.986  0.00  0.00    +0.292 HD
ENDBRANCH  25  27
ENDBRANCH  20  21
ENDBRANCH  17  19
ENDBRANCH  13  17
BRANCH   3  29
ATOM     29  C   UNL     1      -6.021  10.213   0.217  0.00  0.00    +0.103 C 
ATOM     30  N   UNL     1      -7.014  10.764   0.218  0.00  0.00    -0.191 NA
ENDBRANCH   3  29
TORSDOF 6
