REMARK  Name = ZINC09234395
REMARK  5 active torsions:
REMARK  status: ('A' for Active; 'I' for Inactive)
REMARK    1  A    between atoms: C_1  and  O_2
REMARK    2  A    between atoms: O_2  and  C_3
REMARK    3  A    between atoms: C_6  and  C_13
REMARK    4  A    between atoms: N_17  and  N_21
REMARK    5  A    between atoms: C_22  and  C_24
REMARK                            x       y       z     vdW  Elec       q    Type
REMARK                         _______ _______ _______ _____ _____    ______ ____
ROOT
ATOM      1  C   UNL     1       1.613  -0.022   6.087  0.00  0.00    +0.029 C 
ATOM      2  C   UNL     1       2.674  -0.875   6.083  0.00  0.00    +0.079 C 
ATOM      3  C   UNL     1       3.429  -1.429   4.944  0.00  0.00    +0.275 C 
ATOM      4  O   UNL     1       3.148  -1.148   3.794  0.00  0.00    -0.267 OA
ATOM      5  N   UNL     1       4.430  -2.243   5.235  0.00  0.00    -0.170 N 
ATOM      6  C   UNL     1       4.734  -2.557   6.511  0.00  0.00    +0.138 C 
ATOM      7  S   UNL     1       5.975  -3.587   7.087  0.00  0.00    -0.026 S 
ATOM      8  S   UNL     1       3.529  -1.638   7.455  0.00  0.00    -0.059 S 
ENDROOT
BRANCH   1  12
ATOM      9  C   UNL     1       0.360   1.827   2.435  0.00  0.00    +0.128 A 
ATOM     10  C   UNL     1       1.696   1.694   2.750  0.00  0.00    +0.047 A 
ATOM     11  C   UNL     1       2.109   1.097   3.928  0.00  0.00    +0.012 A 
ATOM     12  C   UNL     1       1.176   0.608   4.842  0.00  0.00    -0.016 A 
ATOM     13  C   UNL     1      -0.249   0.736   4.532  0.00  0.00    -0.007 A 
ATOM     14  C   UNL     1      -0.634   1.357   3.320  0.00  0.00    +0.024 A 
ATOM     15  C   UNL     1      -1.999   1.479   3.014  0.00  0.00    +0.012 A 
ATOM     16  C   UNL     1      -2.930   1.008   3.889  0.00  0.00    +0.001 A 
ATOM     17  C   UNL     1      -2.549   0.403   5.083  0.00  0.00    +0.001 A 
ATOM     18  C   UNL     1      -1.232   0.264   5.409  0.00  0.00    +0.009 A 
BRANCH   9  20
ATOM     19  C   UNL     1       1.052   2.877   0.421  0.00  0.00    +0.277 C 
ATOM     20  O   UNL     1      -0.002   2.418   1.270  0.00  0.00    -0.495 OA
ENDBRANCH   9  20
ENDBRANCH   1  12
BRANCH   5  21
ATOM     21  N   UNL     1       5.188  -2.796   4.195  0.00  0.00    -0.226 N 
ATOM     22  C   UNL     1       5.016  -4.087   3.848  0.00  0.00    +0.236 C 
ATOM     23  O   UNL     1       4.204  -4.769   4.437  0.00  0.00    -0.274 OA
ATOM     24  H   UNL     1       5.837  -2.249   3.724  0.00  0.00    +0.173 HD
BRANCH  22  25
ATOM     25  C   UNL     1       5.830  -4.682   2.729  0.00  0.00    +0.049 C 
ATOM     26  C   UNL     1       7.318  -4.587   3.075  0.00  0.00    +0.019 C 
ATOM     27  C   UNL     1       8.145  -5.191   1.939  0.00  0.00    -0.009 C 
ATOM     28  C   UNL     1       7.758  -6.659   1.750  0.00  0.00    +0.007 C 
ATOM     29  C   UNL     1       6.270  -6.754   1.404  0.00  0.00    -0.009 C 
ATOM     30  C   UNL     1       5.443  -6.150   2.540  0.00  0.00    +0.019 C 
ATOM     31  C   UNL     1       5.998  -5.984   0.110  0.00  0.00    +0.007 C 
ATOM     32  C   UNL     1       6.386  -4.516   0.298  0.00  0.00    -0.009 C 
ATOM     33  C   UNL     1       7.873  -4.422   0.645  0.00  0.00    +0.007 C 
ATOM     34  C   UNL     1       5.558  -3.912   1.435  0.00  0.00    +0.019 C 
ENDBRANCH  22  25
ENDBRANCH   5  21
TORSDOF 4
