REMARK  Name = ZINC15055010
REMARK  7 active torsions:
REMARK  status: ('A' for Active; 'I' for Inactive)
REMARK    1  A    between atoms: C_3  and  C_6
REMARK    2  A    between atoms: C_6  and  C_8
REMARK    3  A    between atoms: C_8  and  C_9
REMARK    4  A    between atoms: N_13  and  C_24
REMARK    5  A    between atoms: N_15  and  C_16
REMARK    6  A    between atoms: C_19  and  O_22
REMARK    7  A    between atoms: C_27  and  O_30
REMARK                            x       y       z     vdW  Elec       q    Type
REMARK                         _______ _______ _______ _____ _____    ______ ____
ROOT
ATOM      1  C   UNL     1      -3.646   6.418  -0.051  0.00  0.00    +0.148 C 
ATOM      2  C   UNL     1      -3.418   7.920  -0.084  0.00  0.00    +0.239 C 
ATOM      3  O   UNL     1      -3.291   8.530  -1.124  0.00  0.00    -0.274 OA
ATOM      4  N   UNL     1      -3.368   8.521   1.095  0.00  0.00    -0.218 N 
ATOM      5  C   UNL     1      -3.513   7.830   2.282  0.00  0.00    +0.168 C 
ATOM      6  N   UNL     1      -3.484   8.305   3.504  0.00  0.00    -0.225 NA
ATOM      7  S   UNL     1      -3.751   6.137   1.762  0.00  0.00    -0.076 S 
ENDROOT
BRANCH   6   8
ATOM      8  C   UNL     1      -3.648   7.461   4.572  0.00  0.00    +0.067 A 
ATOM      9  C   UNL     1      -4.661   6.500   4.555  0.00  0.00    +0.031 A 
ATOM     10  C   UNL     1      -4.819   5.649   5.629  0.00  0.00    +0.047 A 
ATOM     11  C   UNL     1      -3.981   5.755   6.730  0.00  0.00    +0.117 A 
ATOM     12  C   UNL     1      -2.977   6.712   6.753  0.00  0.00    +0.047 A 
ATOM     13  C   UNL     1      -2.808   7.563   5.681  0.00  0.00    +0.031 A 
BRANCH  11  14
ATOM     14  O   UNL     1      -4.144   4.918   7.789  0.00  0.00    -0.507 OA
ATOM     15  H   UNL     1      -4.749   5.252   8.465  0.00  0.00    +0.292 HD
ENDBRANCH  11  14
ENDBRANCH   6   8
BRANCH   4  16
ATOM     16  C   UNL     1      -3.160   9.907   1.139  0.00  0.00    +0.043 A 
ATOM     17  C   UNL     1      -4.245  10.773   1.117  0.00  0.00    +0.027 A 
ATOM     18  C   UNL     1      -4.040  12.138   1.166  0.00  0.00    +0.047 A 
ATOM     19  C   UNL     1      -2.750  12.644   1.226  0.00  0.00    +0.117 A 
ATOM     20  C   UNL     1      -1.665  11.779   1.242  0.00  0.00    +0.047 A 
ATOM     21  C   UNL     1      -1.869  10.414   1.199  0.00  0.00    +0.027 A 
BRANCH  19  22
ATOM     22  O   UNL     1      -2.549  13.988   1.268  0.00  0.00    -0.507 OA
ATOM     23  H   UNL     1      -2.459  14.400   0.398  0.00  0.00    +0.292 HD
ENDBRANCH  19  22
ENDBRANCH   4  16
BRANCH   1  24
ATOM     24  C   UNL     1      -2.461   5.665  -0.660  0.00  0.00    +0.104 C 
BRANCH  24  25
ATOM     25  C   UNL     1      -2.741   4.184  -0.634  0.00  0.00    +0.171 C 
ATOM     26  O   UNL     1      -3.786   3.771  -0.173  0.00  0.00    -0.291 OA
BRANCH  25  29
ATOM     27  C   UNL     1      -0.770   1.246  -1.768  0.00  0.00    +0.008 A 
ATOM     28  C   UNL     1      -1.849   1.889  -1.222  0.00  0.00    +0.019 A 
ATOM     29  C   UNL     1      -1.787   3.276  -1.147  0.00  0.00    +0.055 A 
ATOM     30  S   UNL     1      -0.192   3.611  -1.872  0.00  0.00    -0.094 S 
ATOM     31  C   UNL     1       0.287   1.980  -2.212  0.00  0.00    +0.046 A 
ENDBRANCH  25  29
ENDBRANCH  24  25
ENDBRANCH   1  24
TORSDOF 7
