REMARK  Name = ZINC35571887
REMARK  6 active torsions:
REMARK  status: ('A' for Active; 'I' for Inactive)
REMARK    1  A    between atoms: C_1  and  C_2
REMARK    2  A    between atoms: C_2  and  N_3
REMARK    3  A    between atoms: N_3  and  C_4
REMARK    4  A    between atoms: C_4  and  C_6
REMARK    5  A    between atoms: C_4  and  C_12
REMARK    6  A    between atoms: C_9  and  C_11
REMARK                            x       y       z     vdW  Elec       q    Type
REMARK                         _______ _______ _______ _____ _____    ______ ____
ROOT
ATOM      1  C   UNL     1       0.710  -1.947  -1.215  0.00  0.00    -0.002 C 
ENDROOT
BRANCH   1   2
ATOM      2  C   UNL     1       1.520  -2.432  -2.389  0.00  0.00    -0.038 A 
ATOM      3  C   UNL     1       1.758  -1.591  -3.462  0.00  0.00    +0.009 A 
ATOM      4  C   UNL     1       2.499  -2.037  -4.533  0.00  0.00    -0.017 A 
ATOM      5  C   UNL     1       3.015  -3.327  -4.554  0.00  0.00    +0.038 A 
ATOM      6  C   UNL     1       2.771  -4.169  -3.471  0.00  0.00    +0.043 A 
ATOM      7  C   UNL     1       2.033  -3.717  -2.394  0.00  0.00    +0.045 A 
ATOM      8 CL   UNL     1       1.741  -4.769  -1.045  0.00  0.00    -0.083 Cl
ATOM      9  N   UNL     1       3.725  -3.544  -5.736  0.00  0.00    -0.285 N 
ATOM     10  C   UNL     1       3.724  -2.464  -6.535  0.00  0.00    +0.222 C 
ATOM     11  O   UNL     1       4.261  -2.369  -7.618  0.00  0.00    -0.275 OA
ATOM     12  C   UNL     1       2.929  -1.387  -5.828  0.00  0.00    +0.133 C 
ATOM     13  H   UNL     1       4.168  -4.378  -5.955  0.00  0.00    +0.155 HD
ENDBRANCH   1   2
BRANCH   1  14
ATOM     14  C   UNL     1      -0.700  -2.467  -1.328  0.00  0.00    -0.020 A 
ATOM     15  C   UNL     1      -1.274  -3.521  -0.696  0.00  0.00    +0.010 A 
ATOM     16  C   UNL     1      -2.599  -3.817  -0.957  0.00  0.00    +0.011 A 
ATOM     17  C   UNL     1      -3.284  -3.047  -1.836  0.00  0.00    -0.013 A 
ATOM     18  S   UNL     1      -2.049  -1.853  -2.323  0.00  0.00    -0.100 S 
ATOM     19  C   UNL     1      -4.719  -3.164  -2.283  0.00  0.00    +0.051 C 
ENDBRANCH   1  14
BRANCH   1  20
ATOM     20  N   UNL     1       0.690  -0.478  -1.207  0.00  0.00    +0.386 N 
ATOM     21  H   UNL     1       0.202  -0.144  -2.024  0.00  0.00    -0.085 HD
ATOM     22  H   UNL     1       1.636  -0.129  -1.214  0.00  0.00    -0.085 HD
BRANCH  20  24
ATOM     23  C   UNL     1      -0.019   1.526   0.010  0.00  0.00    -0.017 C 
ATOM     24  C   UNL     1       0.002  -0.004   0.002  0.00  0.00    -0.085 C 
ENDBRANCH  20  24
ENDBRANCH   1  20
TORSDOF 4
