REMARK  Name = ZINC39615886
REMARK  11 active torsions:
REMARK  status: ('A' for Active; 'I' for Inactive)
REMARK    1  A    between atoms: C_1  and  C_2
REMARK    2  A    between atoms: C_7  and  N_12
REMARK    3  A    between atoms: C_9  and  C_11
REMARK    4  A    between atoms: C_13  and  C_15
REMARK    5  A    between atoms: C_15  and  O_16
REMARK    6  A    between atoms: O_16  and  C_17
REMARK    7  A    between atoms: C_17  and  C_19
REMARK    8  A    between atoms: C_19  and  C_21
REMARK    9  A    between atoms: C_19  and  N_32
REMARK   10  A    between atoms: C_21  and  C_22
REMARK   11  A    between atoms: C_33  and  C_35
REMARK                            x       y       z     vdW  Elec       q    Type
REMARK                         _______ _______ _______ _____ _____    ______ ____
ROOT
ATOM      1  C   UNL     1       1.613  -7.554   5.913  0.00  0.00    +0.186 C 
ENDROOT
BRANCH   1   2
ATOM      2  N   UNL     1       1.969  -7.792   7.314  0.00  0.00    -0.298 N 
ATOM      3  C   UNL     1       3.257  -7.723   7.703  0.00  0.00    +0.251 C 
ATOM      4  O   UNL     1       4.125  -7.462   6.891  0.00  0.00    -0.270 OA
ATOM      5  H   UNL     1       1.277  -8.000   7.961  0.00  0.00    +0.150 HD
BRANCH   3   6
ATOM      6  C   UNL     1       3.613  -7.961   9.105  0.00  0.00    +0.074 A 
ATOM      7  C   UNL     1       4.862  -7.933   9.707  0.00  0.00    +0.021 A 
ATOM      8  C   UNL     1       4.881  -8.201  11.055  0.00  0.00    +0.008 A 
ATOM      9  C   UNL     1       3.714  -8.468  11.691  0.00  0.00    +0.046 A 
ATOM     10  S   UNL     1       2.552  -8.356  10.482  0.00  0.00    -0.092 S 
ENDBRANCH   3   6
ENDBRANCH   1   2
BRANCH   1  11
ATOM     11  C   UNL     1       2.039  -6.164   5.516  0.00  0.00    +0.328 C 
ATOM     12  O   UNL     1       2.880  -5.583   6.160  0.00  0.00    -0.249 OA
BRANCH  11  13
ATOM     13  O   UNL     1       1.485  -5.572   4.447  0.00  0.00    -0.454 OA
BRANCH  13  14
ATOM     14  C   UNL     1       1.936  -4.254   4.128  0.00  0.00    +0.327 C 
BRANCH  14  16
ATOM     15  N   UNL     1       1.471  -2.526   2.420  0.00  0.00    -0.309 N 
ATOM     16  C   UNL     1       1.207  -3.754   2.907  0.00  0.00    +0.251 C 
ATOM     17  O   UNL     1       0.382  -4.458   2.364  0.00  0.00    -0.272 OA
ATOM     18  H   UNL     1       2.131  -1.963   2.855  0.00  0.00    +0.149 HD
BRANCH  15  24
ATOM     19  C   UNL     1      -0.019   1.526   0.010  0.00  0.00    +0.008 C 
ATOM     20  C   UNL     1       0.002  -0.004   0.002  0.00  0.00    -0.009 C 
ATOM     21  C   UNL     1       0.718  -0.497  -1.257  0.00  0.00    +0.003 C 
ATOM     22  C   UNL     1       0.739  -2.027  -1.265  0.00  0.00    +0.002 C 
ATOM     23  C   UNL     1       1.479  -2.534  -0.026  0.00  0.00    +0.022 C 
ATOM     24  C   UNL     1       0.763  -2.041   1.233  0.00  0.00    +0.076 C 
ATOM     25  C   UNL     1       0.742  -0.511   1.242  0.00  0.00    +0.009 C 
ATOM     26  C   UNL     1       0.026  -0.018   2.500  0.00  0.00    +0.009 C 
ENDBRANCH  15  24
ENDBRANCH  14  16
ENDBRANCH  13  14
ENDBRANCH  11  13
ENDBRANCH   1  11
BRANCH   1  27
ATOM     27  C   UNL     1       2.324  -8.578   5.025  0.00  0.00    +0.071 C 
BRANCH  27  28
ATOM     28  C   UNL     1       1.807  -9.958   5.338  0.00  0.00    -0.020 A 
ATOM     29  C   UNL     1       2.352 -10.841   6.190  0.00  0.00    +0.087 A 
ATOM     30  N   UNL     1       1.606 -11.988   6.215  0.00  0.00    -0.360 N 
ATOM     31  H   UNL     1       1.802 -12.769   6.756  0.00  0.00    +0.165 HD
ATOM     32  C   UNL     1       0.535 -11.868   5.357  0.00  0.00    +0.047 A 
ATOM     33  C   UNL     1       0.611 -10.589   4.775  0.00  0.00    +0.003 A 
ATOM     34  C   UNL     1      -0.360 -10.184   3.858  0.00  0.00    +0.010 A 
ATOM     35  C   UNL     1      -1.381 -11.031   3.531  0.00  0.00    +0.001 A 
ATOM     36  C   UNL     1      -1.462 -12.292   4.106  0.00  0.00    +0.002 A 
ATOM     37  C   UNL     1      -0.510 -12.716   5.007  0.00  0.00    +0.026 A 
ENDBRANCH  27  28
ENDBRANCH   1  27
TORSDOF 9
