REMARK  Name = ZINC20242173
REMARK  8 active torsions:
REMARK  status: ('A' for Active; 'I' for Inactive)
REMARK    1  A    between atoms: C_1  and  C_2
REMARK    2  A    between atoms: C_7  and  C_8
REMARK    3  A    between atoms: C_8  and  N_9
REMARK    4  A    between atoms: C_12  and  C_26
REMARK    5  A    between atoms: N_28  and  C_29
REMARK    6  A    between atoms: C_29  and  C_30
REMARK    7  A    between atoms: C_35  and  O_36
REMARK    8  A    between atoms: O_36  and  C_37
REMARK                            x       y       z     vdW  Elec       q    Type
REMARK                         _______ _______ _______ _____ _____    ______ ____
ROOT
ATOM      1  N   UNL     1       1.199   1.703  -0.054  0.00  0.00    -0.262 N 
ATOM      2  C   UNL     1       1.450   3.046  -0.275  0.00  0.00    +0.054 A 
ATOM      3  C   UNL     1       2.344   3.396  -1.286  0.00  0.00    +0.037 A 
ATOM      4  C   UNL     1       2.628   4.734  -1.539  0.00  0.00    +0.039 A 
ATOM      5  C   UNL     1       2.015   5.730  -0.777  0.00  0.00    +0.014 A 
ATOM      6  C   UNL     1       1.131   5.378   0.221  0.00  0.00    +0.020 A 
ATOM      7  C   UNL     1       0.848   4.046   0.471  0.00  0.00    +0.065 A 
ATOM      8  S   UNL     1      -0.293   3.636   1.750  0.00  0.00    +0.088 S 
ATOM      9  O   UNL     1       0.369   2.620   2.490  0.00  0.00    -0.247 OA
ATOM     10  C   UNL     1      -1.579   2.778   0.903  0.00  0.00    +0.056 A 
ATOM     11  C   UNL     1      -2.869   3.265   0.941  0.00  0.00    +0.018 A 
ATOM     12  C   UNL     1      -3.886   2.595   0.266  0.00  0.00    +0.001 A 
ATOM     13  C   UNL     1      -3.607   1.432  -0.431  0.00  0.00    +0.001 A 
ATOM     14  C   UNL     1      -2.321   0.938  -0.470  0.00  0.00    +0.014 A 
ATOM     15  C   UNL     1      -1.288   1.610   0.196  0.00  0.00    +0.053 A 
ATOM     16  C   UNL     1       0.073   1.070   0.136  0.00  0.00    +0.252 C 
ATOM     17  O   UNL     1       0.166  -0.134   0.279  0.00  0.00    -0.270 OA
ENDROOT
BRANCH   4  18
ATOM     18  C   UNL     1       3.577   5.100  -2.612  0.00  0.00    +0.244 C 
ATOM     19  O   UNL     1       4.036   4.240  -3.338  0.00  0.00    -0.270 OA
ATOM     20  N   UNL     1       3.933   6.389  -2.786  0.00  0.00    -0.307 N 
ATOM     21  H   UNL     1       3.518   7.168  -2.130  0.00  0.00    +0.149 HD
BRANCH  20  22
ATOM     22  C   UNL     1       4.873   6.752  -3.850  0.00  0.00    +0.143 C 
BRANCH  22  23
ATOM     23  C   UNL     1       5.103   8.241  -3.831  0.00  0.00    +0.011 A 
ATOM     24  C   UNL     1       4.443   9.054  -4.732  0.00  0.00    +0.009 A 
ATOM     25  C   UNL     1       4.649  10.421  -4.712  0.00  0.00    +0.001 A 
ATOM     26  C   UNL     1       5.525  10.976  -3.797  0.00  0.00    +0.004 A 
ATOM     27  C   UNL     1       6.191  10.168  -2.897  0.00  0.00    +0.046 A 
ATOM     28  C   UNL     1       5.982   8.796  -2.912  0.00  0.00    +0.125 A 
BRANCH  28  29
ATOM     29  O   UNL     1       6.637   7.998  -2.029  0.00  0.00    -0.495 OA
ATOM     30  C   UNL     1       7.527   8.638  -1.112  0.00  0.00    +0.277 C 
ENDBRANCH  28  29
ENDBRANCH  22  23
ENDBRANCH  20  22
ENDBRANCH   4  18
BRANCH   1  31
ATOM     31  C   UNL     1       2.392   0.853  -0.029  0.00  0.00    +0.149 C 
BRANCH  31  38
ATOM     32  C   UNL     1       1.764  -0.194   2.589  0.00  0.00    +0.044 C 
ATOM     33  C   UNL     1       2.948   0.722   2.407  0.00  0.00    -0.046 A 
ATOM     34  C   UNL     1       3.735   1.058   3.493  0.00  0.00    +0.003 A 
ATOM     35  C   UNL     1       4.817   1.901   3.327  0.00  0.00    +0.000 A 
ATOM     36  C   UNL     1       5.115   2.406   2.074  0.00  0.00    +0.000 A 
ATOM     37  C   UNL     1       4.330   2.067   0.989  0.00  0.00    +0.005 A 
ATOM     38  C   UNL     1       3.248   1.222   1.155  0.00  0.00    -0.027 A 
ENDBRANCH  31  38
ENDBRANCH   1  31
TORSDOF 6
