REMARK  Name = ZINC06768559
REMARK  5 active torsions:
REMARK  status: ('A' for Active; 'I' for Inactive)
REMARK    1  A    between atoms: C_1  and  C_2
REMARK    2  A    between atoms: C_5  and  N_8
REMARK    3  A    between atoms: N_8  and  C_9
REMARK    4  A    between atoms: C_10  and  C_20
REMARK    5  A    between atoms: C_17  and  C_18
REMARK                            x       y       z     vdW  Elec       q    Type
REMARK                         _______ _______ _______ _____ _____    ______ ____
ROOT
ATOM      1  C   UNL     1      -1.207  -2.788   3.651  0.00  0.00    +0.147 A 
ATOM      2  C   UNL     1      -1.735  -2.428   4.843  0.00  0.00    +0.088 A 
ATOM      3  N   UNL     1      -1.411  -3.420   5.768  0.00  0.00    -0.336 N 
ATOM      4  H   UNL     1      -1.656  -3.432   6.706  0.00  0.00    +0.167 HD
ATOM      5  C   UNL     1      -0.683  -4.377   5.110  0.00  0.00    +0.154 A 
ATOM      6  N   UNL     1      -0.559  -3.999   3.812  0.00  0.00    -0.199 N 
ATOM      7  N   UNL     1       0.180  -4.981   3.140  0.00  0.00    -0.170 NA
ATOM      8  C   UNL     1       0.500  -5.930   3.978  0.00  0.00    +0.156 A 
ATOM      9  C   UNL     1      -0.016  -5.597   5.248  0.00  0.00    +0.114 A 
ENDROOT
BRANCH   2  10
ATOM     10  C   UNL     1      -2.514  -1.203   5.116  0.00  0.00    +0.003 A 
ATOM     11  C   UNL     1      -3.546  -0.822   4.256  0.00  0.00    +0.010 A 
ATOM     12  C   UNL     1      -4.269   0.323   4.516  0.00  0.00    +0.002 A 
ATOM     13  C   UNL     1      -3.975   1.093   5.628  0.00  0.00    +0.015 A 
ATOM     14  C   UNL     1      -2.954   0.721   6.486  0.00  0.00    +0.019 A 
ATOM     15  C   UNL     1      -2.226  -0.425   6.239  0.00  0.00    +0.025 A 
ATOM     16 BR   UNL     1      -2.561   1.782   8.001  0.00  0.00    -0.050 Br
ENDBRANCH   2  10
BRANCH   1  17
ATOM     17  N   UNL     1      -1.305  -2.067   2.463  0.00  0.00    -0.324 N 
ATOM     18  H   UNL     1      -1.721  -1.190   2.461  0.00  0.00    +0.148 HD
BRANCH  17  23
ATOM     19  C   UNL     1       0.403   1.324  -0.078  0.00  0.00    +0.007 C 
ATOM     20  C   UNL     1       0.192  -0.191  -0.080  0.00  0.00    -0.014 C 
ATOM     21  C   UNL     1      -1.303  -0.497   0.029  0.00  0.00    +0.005 C 
ATOM     22  C   UNL     1      -1.515  -2.013   0.027  0.00  0.00    +0.022 C 
ATOM     23  C   UNL     1      -0.780  -2.632   1.217  0.00  0.00    +0.072 C 
ATOM     24  C   UNL     1       0.715  -2.325   1.109  0.00  0.00    +0.022 C 
ATOM     25  C   UNL     1       0.927  -0.810   1.111  0.00  0.00    +0.005 C 
ENDBRANCH  17  23
ENDBRANCH   1  17
BRANCH   9  26
ATOM     26  C   UNL     1       0.108  -6.369   6.448  0.00  0.00    +0.104 C 
ATOM     27  N   UNL     1       0.207  -6.982   7.399  0.00  0.00    -0.191 NA
ENDBRANCH   9  26
TORSDOF 4
