REMARK  Name = ZINC03619954
REMARK  9 active torsions:
REMARK  status: ('A' for Active; 'I' for Inactive)
REMARK    1  A    between atoms: C_1  and  C_2
REMARK    2  A    between atoms: C_2  and  C_3
REMARK    3  A    between atoms: C_6  and  N_9
REMARK    4  A    between atoms: C_19  and  C_20
REMARK    5  A    between atoms: C_19  and  O_30
REMARK    6  A    between atoms: N_22  and  C_23
REMARK    7  A    between atoms: C_23  and  C_24
REMARK    8  A    between atoms: C_24  and  C_25
REMARK    9  A    between atoms: C_25  and  N_61
REMARK                            x       y       z     vdW  Elec       q    Type
REMARK                         _______ _______ _______ _____ _____    ______ ____
ROOT
ATOM      1  N   UNL     1      -2.302   1.191   3.648  0.00  0.00    -0.214 N 
ATOM      2  C   UNL     1      -3.187   2.002   4.256  0.00  0.00    +0.314 C 
ATOM      3  O   UNL     1      -4.183   1.508   4.748  0.00  0.00    -0.252 OA
ATOM      4  N   UNL     1      -3.021   3.328   4.345  0.00  0.00    -0.269 N 
ATOM      5  C   UNL     1      -1.915   3.992   3.814  0.00  0.00    +0.043 A 
ATOM      6  C   UNL     1      -1.790   5.370   3.933  0.00  0.00    +0.025 A 
ATOM      7  C   UNL     1      -0.688   6.009   3.401  0.00  0.00    +0.017 A 
ATOM      8  C   UNL     1       0.294   5.284   2.749  0.00  0.00    +0.018 A 
ATOM      9  C   UNL     1       0.175   3.909   2.629  0.00  0.00    +0.025 A 
ATOM     10  C   UNL     1      -0.923   3.271   3.158  0.00  0.00    +0.034 A 
ATOM     11  C   UNL     1      -1.090   1.773   3.047  0.00  0.00    +0.247 C 
ATOM     12 BR   UNL     1       1.800   6.169   2.025  0.00  0.00    -0.050 Br
ATOM     13  H   UNL     1      -3.701   3.850   4.799  0.00  0.00    +0.156 HD
ENDROOT
BRANCH   1  17
ATOM     14  C   UNL     1      -2.983  -2.916   3.469  0.00  0.00    -0.048 A 
ATOM     15  C   UNL     1      -2.192  -2.390   4.474  0.00  0.00    +0.005 A 
ATOM     16  C   UNL     1      -1.964  -1.030   4.537  0.00  0.00    +0.024 A 
ATOM     17  C   UNL     1      -2.531  -0.189   3.588  0.00  0.00    +0.041 A 
ATOM     18  C   UNL     1      -3.329  -0.718   2.582  0.00  0.00    +0.024 A 
ATOM     19  C   UNL     1      -3.548  -2.081   2.522  0.00  0.00    +0.005 A 
BRANCH  14  21
ATOM     20  C   UNL     1      -4.479  -4.746   4.217  0.00  0.00    +0.009 C 
ATOM     21  C   UNL     1      -3.229  -4.401   3.404  0.00  0.00    +0.032 C 
ENDBRANCH  14  21
ENDBRANCH   1  17
BRANCH  11  22
ATOM     22  C   UNL     1      -1.077   1.411   1.584  0.00  0.00    +0.269 C 
ATOM     23  O   UNL     1      -0.159   0.764   1.127  0.00  0.00    -0.270 OA
ATOM     24  N   UNL     1      -2.087   1.807   0.783  0.00  0.00    -0.311 N 
ATOM     25  H   UNL     1      -2.821   2.325   1.148  0.00  0.00    +0.149 HD
BRANCH  24  26
ATOM     26  C   UNL     1      -2.074   1.456  -0.639  0.00  0.00    +0.102 C 
BRANCH  26  27
ATOM     27  C   UNL     1      -3.324   2.022  -1.315  0.00  0.00    +0.000 C 
BRANCH  27  28
ATOM     28  C   UNL     1      -3.311   1.655  -2.801  0.00  0.00    -0.077 C 
BRANCH  28  33
ATOM     29  C   UNL     1      -4.653   3.652  -3.175  0.00  0.00    -0.079 C 
ATOM     30  C   UNL     1      -5.592   4.138  -4.308  0.00  0.00    -0.020 C 
ATOM     31  C   UNL     1      -5.129   3.303  -5.523  0.00  0.00    -0.020 C 
ATOM     32  C   UNL     1      -4.421   2.075  -4.921  0.00  0.00    -0.079 C 
ATOM     33  N   UNL     1      -4.524   2.216  -3.468  0.00  0.00    +0.380 N 
ATOM     34  H   UNL     1      -5.356   1.718  -3.129  0.00  0.00    -0.082 HD
ENDBRANCH  28  33
ENDBRANCH  27  28
ENDBRANCH  26  27
ENDBRANCH  24  26
ENDBRANCH  11  22
BRANCH  11  35
ATOM     35  O   UNL     1       0.045   1.157   3.659  0.00  0.00    -0.360 OA
ATOM     36  H   UNL     1       0.892   1.437   3.288  0.00  0.00    +0.213 HD
ENDBRANCH  11  35
TORSDOF 8
