REMARK  Name = ZINC64688307
REMARK  7 active torsions:
REMARK  status: ('A' for Active; 'I' for Inactive)
REMARK    1  A    between atoms: C_10  and  S_20
REMARK    2  A    between atoms: C_12  and  C_15
REMARK    3  A    between atoms: S_20  and  C_21
REMARK    4  A    between atoms: C_21  and  C_22
REMARK    5  A    between atoms: N_24  and  C_25
REMARK    6  A    between atoms: C_25  and  C_26
REMARK    7  A    between atoms: C_26  and  C_27
REMARK                            x       y       z     vdW  Elec       q    Type
REMARK                         _______ _______ _______ _____ _____    ______ ____
ROOT
ATOM      1  C   UNL     1      -0.017   1.379   0.010  0.00  0.00    +0.001 A 
ATOM      2  C   UNL     1       1.170   2.092   0.002  0.00  0.00    +0.002 A 
ATOM      3  C   UNL     1       2.388   1.437  -0.026  0.00  0.00    +0.024 A 
ATOM      4  C   UNL     1       2.427   0.053  -0.040  0.00  0.00    +0.040 A 
ATOM      5  C   UNL     1       1.218  -0.669  -0.010  0.00  0.00    +0.040 A 
ATOM      6  C   UNL     1       0.002  -0.004   0.002  0.00  0.00    +0.013 A 
ATOM      7  C   UNL     1       1.330  -2.138   0.040  0.00  0.00    +0.168 A 
ATOM      8  N   UNL     1       0.454  -3.086  -0.083  0.00  0.00    -0.128 NA
ATOM      9  N   UNL     1       1.040  -4.234   0.006  0.00  0.00    -0.122 NA
ATOM     10  C   UNL     1       2.334  -4.071   0.203  0.00  0.00    +0.194 A 
ATOM     11  N   UNL     1       2.562  -2.740   0.250  0.00  0.00    -0.276 N 
ATOM     12  C   UNL     1       3.784  -1.974   0.489  0.00  0.00    +0.243 C 
ATOM     13  N   UNL     1       3.637  -0.637  -0.102  0.00  0.00    -0.317 N 
ATOM     14  H   UNL     1       4.396  -0.226  -0.544  0.00  0.00    +0.148 HD
ENDROOT
BRANCH  12  15
ATOM     15  C   UNL     1       4.017  -1.849   1.972  0.00  0.00    +0.146 A 
ATOM     16  C   UNL     1       4.873  -2.589   2.700  0.00  0.00    +0.048 A 
ATOM     17  C   UNL     1       4.772  -2.138   4.036  0.00  0.00    +0.041 A 
ATOM     18  C   UNL     1       3.860  -1.149   4.045  0.00  0.00    +0.195 A 
ATOM     19  O   UNL     1       3.410  -0.974   2.792  0.00  0.00    -0.464 OA
ENDBRANCH  12  15
BRANCH  10  20
ATOM     20  S   UNL     1       3.536  -5.348   0.374  0.00  0.00    -0.077 S 
BRANCH  20  21
ATOM     21  C   UNL     1       2.577  -6.879   0.214  0.00  0.00    +0.173 C 
BRANCH  21  22
ATOM     22  C   UNL     1       3.498  -8.064   0.342  0.00  0.00    +0.223 C 
ATOM     23  O   UNL     1       4.685  -7.893   0.524  0.00  0.00    -0.275 OA
ATOM     24  N   UNL     1       3.003  -9.315   0.255  0.00  0.00    -0.314 N 
ATOM     25  H   UNL     1       2.054  -9.452   0.110  0.00  0.00    +0.149 HD
BRANCH  24  26
ATOM     26  C   UNL     1       3.898 -10.468   0.381  0.00  0.00    +0.108 C 
BRANCH  26  27
ATOM     27  C   UNL     1       3.089 -11.759   0.246  0.00  0.00    +0.065 C 
BRANCH  27  28
ATOM     28  C   UNL     1       4.024 -12.963   0.376  0.00  0.00    +0.175 C 
ATOM     29  N   UNL     1       5.003 -12.962  -0.719  0.00  0.00    -0.363 N 
ATOM     30  C   UNL     1       4.833 -14.062  -1.395  0.00  0.00    +0.060 A 
ATOM     31  C   UNL     1       5.499 -14.619  -2.580  0.00  0.00    +0.027 A 
ATOM     32  C   UNL     1       5.099 -15.809  -3.070  0.00  0.00    +0.002 A 
ATOM     33  C   UNL     1       4.057 -16.556  -2.491  0.00  0.00    +0.002 A 
ATOM     34  C   UNL     1       3.380 -16.137  -1.404  0.00  0.00    +0.027 A 
ATOM     35  C   UNL     1       3.730 -14.852  -0.782  0.00  0.00    +0.060 A 
ATOM     36  N   UNL     1       3.261 -14.210   0.249  0.00  0.00    -0.363 N 
ATOM     37  H   UNL     1       5.655 -12.270  -0.905  0.00  0.00    +0.162 HD
ATOM     38  H   UNL     1       2.539 -14.503   0.827  0.00  0.00    +0.162 HD
ENDBRANCH  27  28
ENDBRANCH  26  27
ENDBRANCH  24  26
ENDBRANCH  21  22
ENDBRANCH  20  21
ENDBRANCH  10  20
TORSDOF 7
