REMARK  Name = ZINC41035699
REMARK  5 active torsions:
REMARK  status: ('A' for Active; 'I' for Inactive)
REMARK    1  A    between atoms: C_1  and  C_2
REMARK    2  A    between atoms: C_7  and  C_9
REMARK    3  A    between atoms: C_7  and  N_22
REMARK    4  A    between atoms: C_11  and  C_14
REMARK    5  A    between atoms: C_14  and  C_15
REMARK                            x       y       z     vdW  Elec       q    Type
REMARK                         _______ _______ _______ _____ _____    ______ ____
ROOT
ATOM      1  C   UNL     1       2.256   1.528   1.045  0.00  0.00    +0.216 A 
ATOM      2  N   UNL     1       1.982   2.283   2.072  0.00  0.00    -0.197 NA
ATOM      3  C   UNL     1       2.055   3.573   1.726  0.00  0.00    +0.176 A 
ATOM      4  N   UNL     1       2.379   3.655   0.468  0.00  0.00    -0.061 NA
ATOM      5  O   UNL     1       2.522   2.322  -0.000  0.00  0.00    -0.340 OA
ENDROOT
BRANCH   1  11
ATOM      6  C   UNL     1      -0.202   1.520   0.594  0.00  0.00    +0.007 C 
ATOM      7  C   UNL     1      -0.181  -0.010   0.586  0.00  0.00    -0.015 C 
ATOM      8  C   UNL     1       0.086  -0.508  -0.836  0.00  0.00    +0.003 C 
ATOM      9  C   UNL     1       1.438   0.023  -1.317  0.00  0.00    -0.001 C 
ATOM     10  C   UNL     1       2.543  -0.477  -0.385  0.00  0.00    -0.004 C 
ATOM     11  C   UNL     1       2.276   0.021   1.036  0.00  0.00    +0.010 C 
ATOM     12  C   UNL     1       0.924  -0.510   1.518  0.00  0.00    -0.001 C 
BRANCH  11  13
ATOM     13  N   UNL     1       3.338  -0.459   1.931  0.00  0.00    +0.388 N 
ATOM     14  H   UNL     1       4.229  -0.109   1.614  0.00  0.00    -0.089 HD
ATOM     15  H   UNL     1       3.162  -0.130   2.869  0.00  0.00    -0.089 HD
ATOM     16  H   UNL     1       3.351  -1.468   1.926  0.00  0.00    -0.089 HD
ENDBRANCH  11  13
ENDBRANCH   1  11
BRANCH   3  17
ATOM     17  C   UNL     1       1.804   4.742   2.644  0.00  0.00    +0.114 C 
BRANCH  17  18
ATOM     18  C   UNL     1       3.096   5.148   3.305  0.00  0.00    -0.039 A 
ATOM     19  C   UNL     1       3.467   4.574   4.507  0.00  0.00    +0.004 A 
ATOM     20  C   UNL     1       4.652   4.947   5.114  0.00  0.00    +0.001 A 
ATOM     21  C   UNL     1       5.466   5.893   4.519  0.00  0.00    +0.015 A 
ATOM     22  C   UNL     1       5.095   6.467   3.317  0.00  0.00    +0.018 A 
ATOM     23  C   UNL     1       3.911   6.090   2.708  0.00  0.00    +0.019 A 
ATOM     24 BR   UNL     1       6.207   7.762   2.504  0.00  0.00    -0.050 Br
ENDBRANCH  17  18
ENDBRANCH   3  17
TORSDOF 4
