REMARK  Name = ZINC35188699
REMARK  8 active torsions:
REMARK  status: ('A' for Active; 'I' for Inactive)
REMARK    1  A    between atoms: C_9  and  C_12
REMARK    2  A    between atoms: C_12  and  N_13
REMARK    3  A    between atoms: N_16  and  C_17
REMARK    4  A    between atoms: C_17  and  C_18
REMARK    5  A    between atoms: C_23  and  C_26
REMARK    6  A    between atoms: C_26  and  N_27
REMARK    7  A    between atoms: N_30  and  C_31
REMARK    8  A    between atoms: C_31  and  C_32
REMARK                            x       y       z     vdW  Elec       q    Type
REMARK                         _______ _______ _______ _____ _____    ______ ____
ROOT
ATOM      1  C   UNL     1      10.600  -1.369  -1.911  0.00  0.00    +0.006 C 
ATOM      2  C   UNL     1      10.296  -1.604  -3.393  0.00  0.00    +0.005 C 
ATOM      3  C   UNL     1      11.231  -0.746  -4.247  0.00  0.00    +0.001 C 
ATOM      4  C   UNL     1      12.684  -1.130  -3.957  0.00  0.00    +0.005 C 
ATOM      5  C   UNL     1      12.987  -0.894  -2.476  0.00  0.00    +0.006 C 
ATOM      6  C   UNL     1      12.052  -1.752  -1.621  0.00  0.00    +0.010 C 
ENDROOT
BRANCH   1   7
ATOM      7  C   UNL     1       9.665  -2.227  -1.057  0.00  0.00    +0.109 C 
BRANCH   7  11
ATOM      8  N   UNL     1       6.008  -1.981  -0.760  0.00  0.00    -0.296 N 
ATOM      9  C   UNL     1       7.280  -2.393  -0.587  0.00  0.00    +0.300 C 
ATOM     10  O   UNL     1       7.522  -3.319   0.163  0.00  0.00    -0.253 OA
ATOM     11  N   UNL     1       8.283  -1.779  -1.245  0.00  0.00    -0.299 N 
ATOM     12  H   UNL     1       5.815  -1.243  -1.358  0.00  0.00    +0.150 HD
ATOM     13  H   UNL     1       8.089  -1.040  -1.843  0.00  0.00    +0.150 HD
BRANCH   8  14
ATOM     14  C   UNL     1       4.918  -2.649  -0.045  0.00  0.00    +0.153 C 
BRANCH  14  23
ATOM     15  C   UNL     1      -0.017   1.378   0.010  0.00  0.00    +0.004 A 
ATOM     16  C   UNL     1       1.170   2.088   0.002  0.00  0.00    +0.004 A 
ATOM     17  C   UNL     1       2.378   1.418  -0.012  0.00  0.00    +0.049 A 
ATOM     18  C   UNL     1       2.404   0.031  -0.019  0.00  0.00    +0.163 A 
ATOM     19  C   UNL     1       1.212  -0.683  -0.014  0.00  0.00    +0.162 A 
ATOM     20  C   UNL     1       0.002  -0.004   0.002  0.00  0.00    +0.049 A 
ATOM     21  O   UNL     1       1.214  -2.043  -0.029  0.00  0.00    -0.485 OA
ATOM     22  C   UNL     1       2.441  -2.689   0.330  0.00  0.00    +0.275 C 
ATOM     23  C   UNL     1       3.587  -1.993  -0.416  0.00  0.00    +0.228 C 
ATOM     24  O   UNL     1       3.602  -0.615  -0.030  0.00  0.00    -0.480 OA
ENDBRANCH  14  23
ENDBRANCH   8  14
ENDBRANCH   7  11
ENDBRANCH   1   7
BRANCH   5  25
ATOM     25  C   UNL     1      14.439  -1.278  -2.186  0.00  0.00    +0.109 C 
BRANCH  25  26
ATOM     26  N   UNL     1      15.337  -0.378  -2.913  0.00  0.00    -0.299 N 
ATOM     27  C   UNL     1      16.672  -0.528  -2.808  0.00  0.00    +0.300 C 
ATOM     28  O   UNL     1      17.132  -1.411  -2.109  0.00  0.00    -0.253 OA
ATOM     29  N   UNL     1      17.498   0.301  -3.477  0.00  0.00    -0.296 N 
ATOM     30  H   UNL     1      14.971   0.327  -3.471  0.00  0.00    +0.150 HD
ATOM     31  H   UNL     1      17.132   1.005  -4.035  0.00  0.00    +0.150 HD
BRANCH  29  32
ATOM     32  C   UNL     1      18.950   0.138  -3.363  0.00  0.00    +0.153 C 
BRANCH  32  33
ATOM     33  C   UNL     1      19.651   1.197  -4.215  0.00  0.00    +0.228 C 
ATOM     34  C   UNL     1      21.167   0.963  -4.188  0.00  0.00    +0.275 C 
ATOM     35  O   UNL     1      21.792   1.978  -4.982  0.00  0.00    -0.485 OA
ATOM     36  C   UNL     1      21.371   3.257  -4.781  0.00  0.00    +0.162 A 
ATOM     37  C   UNL     1      22.155   4.310  -5.228  0.00  0.00    +0.049 A 
ATOM     38  C   UNL     1      21.740   5.614  -5.035  0.00  0.00    +0.004 A 
ATOM     39  C   UNL     1      20.542   5.872  -4.396  0.00  0.00    +0.004 A 
ATOM     40  C   UNL     1      19.756   4.828  -3.946  0.00  0.00    +0.049 A 
ATOM     41  C   UNL     1      20.168   3.517  -4.135  0.00  0.00    +0.163 A 
ATOM     42  O   UNL     1      19.387   2.499  -3.680  0.00  0.00    -0.480 OA
ENDBRANCH  32  33
ENDBRANCH  29  32
ENDBRANCH  25  26
ENDBRANCH   5  25
TORSDOF 8
