REMARK  Name = ZINC16022002
REMARK  8 active torsions:
REMARK  status: ('A' for Active; 'I' for Inactive)
REMARK    1  A    between atoms: C_1  and  C_2
REMARK    2  A    between atoms: C_2  and  C_3
REMARK    3  A    between atoms: C_3  and  C_5
REMARK    4  A    between atoms: C_3  and  N_6
REMARK    5  A    between atoms: C_20  and  C_25
REMARK    6  A    between atoms: C_27  and  C_29
REMARK    7  A    between atoms: C_29  and  C_30
REMARK    8  A    between atoms: C_29  and  C_31
REMARK                            x       y       z     vdW  Elec       q    Type
REMARK                         _______ _______ _______ _____ _____    ______ ____
ROOT
ATOM      1  N   UNL     1       1.989  -0.050  -1.089  0.00  0.00    -0.239 N 
ATOM      2  C   UNL     1       2.852  -0.503  -0.172  0.00  0.00    +0.227 C 
ATOM      3  O   UNL     1       2.614  -1.362   0.650  0.00  0.00    -0.275 OA
ATOM      4  C   UNL     1       4.169   0.224  -0.320  0.00  0.00    +0.107 C 
ATOM      5  C   UNL     1       3.912   1.194  -1.507  0.00  0.00    +0.122 C 
ATOM      6  C   UNL     1       2.480   0.900  -1.893  0.00  0.00    +0.228 C 
ATOM      7  O   UNL     1       1.870   1.442  -2.789  0.00  0.00    -0.275 OA
ATOM      8  C   UNL     1       4.028   2.594  -0.894  0.00  0.00    +0.136 C 
ATOM      9  C   UNL     1       4.648   3.568  -1.856  0.00  0.00    +0.004 A 
ATOM     10  C   UNL     1       5.856   3.611  -2.514  0.00  0.00    +0.008 A 
ATOM     11  C   UNL     1       6.148   4.668  -3.358  0.00  0.00    +0.001 A 
ATOM     12  C   UNL     1       5.222   5.680  -3.538  0.00  0.00    +0.005 A 
ATOM     13  C   UNL     1       4.010   5.641  -2.882  0.00  0.00    -0.029 A 
ATOM     14  C   UNL     1       3.708   4.580  -2.031  0.00  0.00    +0.042 A 
ATOM     15  N   UNL     1       2.568   4.317  -1.268  0.00  0.00    -0.283 N 
ATOM     16  C   UNL     1       2.675   3.168  -0.573  0.00  0.00    +0.243 C 
ATOM     17  O   UNL     1       1.842   2.689   0.167  0.00  0.00    -0.273 OA
ATOM     18  C   UNL     1       3.009   6.748  -3.086  0.00  0.00    +0.045 C 
ATOM     19  N   UNL     1       4.847   2.437   0.322  0.00  0.00    -0.295 NA
ATOM     20  C   UNL     1       4.388   1.130   0.911  0.00  0.00    +0.070 C 
ATOM     21  H   UNL     1       1.790   4.895  -1.242  0.00  0.00    +0.155 HD
ATOM     22  H   UNL     1       5.830   2.409   0.095  0.00  0.00    +0.124 HD
ENDROOT
BRANCH  20  23
ATOM     23  C   UNL     1       5.473   0.544   1.817  0.00  0.00    +0.001 C 
ATOM     24  C   UNL     1       5.674   1.456   3.028  0.00  0.00    +0.009 C 
ATOM     25  C   UNL     1       5.046  -0.847   2.290  0.00  0.00    +0.009 C 
ENDBRANCH  20  23
BRANCH   1  26
ATOM     26  C   UNL     1       0.619  -0.557  -1.207  0.00  0.00    +0.081 C 
ATOM     27  C   UNL     1      -0.370   0.595  -1.018  0.00  0.00    +0.028 C 
BRANCH  26  29
ATOM     28  C   UNL     1       1.314  -2.412  -2.730  0.00  0.00    +0.006 C 
ATOM     29  C   UNL     1       0.422  -1.176  -2.592  0.00  0.00    +0.019 C 
ENDBRANCH  26  29
ENDBRANCH   1  26
TORSDOF 3
