REMARK  Name = ZINC01818530
REMARK  7 active torsions:
REMARK  status: ('A' for Active; 'I' for Inactive)
REMARK    1  A    between atoms: C_1  and  C_2
REMARK    2  A    between atoms: C_2  and  C_3
REMARK    3  A    between atoms: C_3  and  C_4
REMARK    4  A    between atoms: C_4  and  C_5
REMARK    5  A    between atoms: C_5  and  N_6
REMARK    6  A    between atoms: N_25  and  S_26
REMARK    7  A    between atoms: S_26  and  C_29
REMARK                            x       y       z     vdW  Elec       q    Type
REMARK                         _______ _______ _______ _____ _____    ______ ____
ROOT
ATOM      1  N   UNL     1      -3.464   4.110   2.964  0.00  0.00    -0.331 N 
ATOM      2  C   UNL     1      -2.432   3.383   2.648  0.00  0.00    +0.183 A 
ATOM      3  N   UNL     1      -1.661   3.161   3.751  0.00  0.00    -0.282 N 
ATOM      4  C   UNL     1      -2.267   3.811   4.812  0.00  0.00    +0.073 A 
ATOM      5  C   UNL     1      -3.423   4.414   4.287  0.00  0.00    +0.067 A 
ATOM      6  C   UNL     1      -4.255   5.154   5.130  0.00  0.00    +0.028 A 
ATOM      7  C   UNL     1      -3.936   5.285   6.463  0.00  0.00    +0.002 A 
ATOM      8  C   UNL     1      -2.794   4.687   6.976  0.00  0.00    +0.002 A 
ATOM      9  C   UNL     1      -1.961   3.953   6.157  0.00  0.00    +0.028 A 
ATOM     10  C   UNL     1      -0.479   2.423   3.800  0.00  0.00    +0.182 A 
ATOM     11  C   UNL     1      -0.436   1.129   3.230  0.00  0.00    +0.182 A 
ATOM     12  N   UNL     1       0.676   0.423   3.264  0.00  0.00    -0.226 NA
ATOM     13  C   UNL     1       1.770   0.932   3.847  0.00  0.00    +0.091 A 
ATOM     14  C   UNL     1       2.968   0.200   3.896  0.00  0.00    +0.030 A 
ATOM     15  C   UNL     1       4.066   0.740   4.493  0.00  0.00    +0.002 A 
ATOM     16  C   UNL     1       4.021   2.012   5.058  0.00  0.00    +0.002 A 
ATOM     17  C   UNL     1       2.877   2.750   5.029  0.00  0.00    +0.030 A 
ATOM     18  C   UNL     1       1.724   2.225   4.421  0.00  0.00    +0.092 A 
ATOM     19  N   UNL     1       0.586   2.932   4.380  0.00  0.00    -0.224 NA
ATOM     20  N   UNL     1      -1.568   0.603   2.628  0.00  0.00    -0.197 N 
ATOM     21  H   UNL     1      -2.411   1.081   2.679  0.00  0.00    +0.175 HD
ENDROOT
BRANCH  20  22
ATOM     22  S   UNL     1      -1.482  -0.841   1.821  0.00  0.00    +0.074 S 
ATOM     23  O   UNL     1      -0.360  -0.755   0.954  0.00  0.00    -0.150 OA
ATOM     24  O   UNL     1      -2.792  -1.119   1.347  0.00  0.00    -0.150 OA
BRANCH  22  25
ATOM     25  C   UNL     1      -1.104  -2.082   3.014  0.00  0.00    +0.109 A 
ATOM     26  C   UNL     1       0.213  -2.398   3.288  0.00  0.00    +0.030 A 
ATOM     27  C   UNL     1       0.510  -3.368   4.227  0.00  0.00    +0.017 A 
ATOM     28  C   UNL     1      -0.511  -4.030   4.883  0.00  0.00    +0.018 A 
ATOM     29  C   UNL     1      -1.829  -3.718   4.604  0.00  0.00    +0.017 A 
ATOM     30  C   UNL     1      -2.126  -2.744   3.670  0.00  0.00    +0.030 A 
ATOM     31 BR   UNL     1      -0.106  -5.362   6.163  0.00  0.00    -0.050 Br
ENDBRANCH  22  25
ENDBRANCH  20  22
BRANCH   1  32
ATOM     32  C   UNL     1      -4.508   4.541   2.032  0.00  0.00    +0.123 C 
BRANCH  32  33
ATOM     33  C   UNL     1      -4.176   5.938   1.504  0.00  0.00    +0.022 C 
BRANCH  33  34
ATOM     34  C   UNL     1      -5.267   6.388   0.531  0.00  0.00    +0.001 C 
BRANCH  34  36
ATOM     35  C   UNL     1      -6.026   8.236  -0.970  0.00  0.00    +0.004 C 
ATOM     36  C   UNL     1      -4.935   7.786   0.003  0.00  0.00    -0.003 C 
ENDBRANCH  34  36
ENDBRANCH  33  34
ENDBRANCH  32  33
ENDBRANCH   1  32
TORSDOF 6
