REMARK  Name = ZINC20153127
REMARK  12 active torsions:
REMARK  status: ('A' for Active; 'I' for Inactive)
REMARK    1  A    between atoms: C_1  and  C_2
REMARK    2  A    between atoms: N_5  and  C_8
REMARK    3  A    between atoms: C_11  and  C_17
REMARK    4  A    between atoms: C_13  and  N_14
REMARK    5  A    between atoms: N_19  and  C_20
REMARK    6  A    between atoms: C_20  and  N_22
REMARK    7  A    between atoms: N_22  and  C_23
REMARK    8  A    between atoms: C_26  and  C_31
REMARK    9  A    between atoms: C_27  and  O_29
REMARK   10  A    between atoms: O_29  and  C_30
REMARK   11  A    between atoms: C_34  and  C_36
REMARK   12  A    between atoms: C_36  and  O_37
REMARK                            x       y       z     vdW  Elec       q    Type
REMARK                         _______ _______ _______ _____ _____    ______ ____
ROOT
ATOM      1  C   UNL     1      -3.060  -6.437   4.400  0.00  0.00    +0.250 C 
ATOM      2  O   UNL     1      -3.755  -6.086   5.334  0.00  0.00    -0.270 OA
ATOM      3  N   UNL     1      -2.756  -7.741   4.239  0.00  0.00    -0.264 N 
ATOM      4  H   UNL     1      -2.202  -8.021   3.495  0.00  0.00    +0.157 HD
ENDROOT
BRANCH   1   8
ATOM      5  C   UNL     1      -1.589  -3.568   1.646  0.00  0.00    +0.060 A 
ATOM      6  C   UNL     1      -1.277  -4.915   1.484  0.00  0.00    +0.026 A 
ATOM      7  C   UNL     1      -1.749  -5.841   2.370  0.00  0.00    +0.015 A 
ATOM      8  C   UNL     1      -2.549  -5.438   3.444  0.00  0.00    +0.039 A 
ATOM      9  C   UNL     1      -2.863  -4.086   3.609  0.00  0.00    +0.047 A 
ATOM     10  C   UNL     1      -2.380  -3.157   2.716  0.00  0.00    +0.148 A 
BRANCH   5  15
ATOM     11  C   UNL     1       1.286  -1.775  -2.674  0.00  0.00    +0.007 C 
ATOM     12  C   UNL     1       0.351  -1.636  -1.471  0.00  0.00    -0.011 C 
ATOM     13  C   UNL     1       1.079  -2.088  -0.203  0.00  0.00    +0.022 C 
ATOM     14  C   UNL     1       0.151  -1.915   1.003  0.00  0.00    +0.105 C 
ATOM     15  N   UNL     1      -1.105  -2.630   0.741  0.00  0.00    -0.328 N 
ATOM     16  C   UNL     1      -1.840  -2.336  -0.497  0.00  0.00    +0.105 C 
ATOM     17  C   UNL     1      -0.890  -2.505  -1.687  0.00  0.00    +0.022 C 
ENDBRANCH   5  15
BRANCH  10  18
ATOM     18  N   UNL     1      -2.705  -1.723   2.889  0.00  0.00    +0.058 N 
ATOM     19  O   UNL     1      -3.363  -1.322   3.956  0.00  0.00    -0.126 OA
ATOM     20  O   UNL     1      -2.336  -0.850   1.975  0.00  0.00    -0.126 OA
ENDBRANCH  10  18
ENDBRANCH   1   8
BRANCH   3  21
ATOM     21  C   UNL     1      -3.223  -8.654   5.114  0.00  0.00    +0.141 C 
ATOM     22  S   UNL     1      -4.202  -8.159   6.428  0.00  0.00    -0.018 S 
BRANCH  21  23
ATOM     23  N   UNL     1      -2.920  -9.957   4.953  0.00  0.00    -0.296 N 
ATOM     24  H   UNL     1      -2.298 -10.229   4.259  0.00  0.00    +0.154 HD
BRANCH  23  25
ATOM     25  C   UNL     1      -3.490 -10.900   5.770  0.00  0.00    +0.036 A 
ATOM     26  C   UNL     1      -4.864 -10.799   6.084  0.00  0.00    +0.024 A 
ATOM     27  C   UNL     1      -5.463 -11.708   6.885  0.00  0.00    +0.017 A 
ATOM     28  C   UNL     1      -4.668 -12.814   7.434  0.00  0.00    +0.059 A 
ATOM     29  C   UNL     1      -3.233 -12.891   7.085  0.00  0.00    +0.132 A 
ATOM     30  C   UNL     1      -2.700 -11.938   6.265  0.00  0.00    +0.069 A 
BRANCH  28  31
ATOM     31  C   UNL     1      -5.251 -13.768   8.262  0.00  0.00    +0.139 A 
ATOM     32  C   UNL     1      -6.091 -13.508   9.447  0.00  0.00    +0.050 A 
ATOM     33  C   UNL     1      -6.434 -14.732   9.938  0.00  0.00    +0.047 A 
ATOM     34  C   UNL     1      -5.848 -15.700   9.116  0.00  0.00    +0.131 A 
ATOM     35  O   UNL     1      -5.161 -15.111   8.132  0.00  0.00    -0.457 OA
BRANCH  34  36
ATOM     36  C   UNL     1      -5.978 -17.189   9.307  0.00  0.00    +0.230 C 
BRANCH  36  37
ATOM     37  O   UNL     1      -7.119 -17.664   8.589  0.00  0.00    -0.387 OA
ATOM     38  H   UNL     1      -7.264 -18.617   8.667  0.00  0.00    +0.210 HD
ENDBRANCH  36  37
ENDBRANCH  34  36
ENDBRANCH  28  31
BRANCH  29  39
ATOM     39  O   UNL     1      -2.463 -13.891   7.567  0.00  0.00    -0.494 OA
ATOM     40  C   UNL     1      -1.086 -13.893   7.183  0.00  0.00    +0.277 C 
ENDBRANCH  29  39
ENDBRANCH  23  25
ENDBRANCH  21  23
ENDBRANCH   3  21
TORSDOF 10
