REMARK  Name = ZINC12895897
REMARK  9 active torsions:
REMARK  status: ('A' for Active; 'I' for Inactive)
REMARK    1  A    between atoms: C_5  and  C_7
REMARK    2  A    between atoms: C_7  and  C_9
REMARK    3  A    between atoms: C_7  and  N_65
REMARK    4  A    between atoms: C_9  and  N_10
REMARK    5  A    between atoms: C_11  and  C_13
REMARK    6  A    between atoms: C_13  and  C_14
REMARK    7  A    between atoms: C_14  and  C_15
REMARK    8  A    between atoms: C_18  and  S_21
REMARK    9  A    between atoms: S_21  and  N_24
REMARK                            x       y       z     vdW  Elec       q    Type
REMARK                         _______ _______ _______ _____ _____    ______ ____
ROOT
ATOM      1  N   UNL     1      -0.815   0.400  -0.361  0.00  0.00    -0.317 N 
ATOM      2  C   UNL     1      -2.135   0.188  -0.532  0.00  0.00    +0.213 C 
ATOM      3  O   UNL     1      -2.886   1.129  -0.677  0.00  0.00    -0.276 OA
ATOM      4  H   UNL     1      -0.214  -0.353  -0.245  0.00  0.00    +0.149 HD
ENDROOT
BRANCH   1   5
ATOM      5  C   UNL     1      -0.288   1.766  -0.351  0.00  0.00    +0.093 C 
BRANCH   5   6
ATOM      6  C   UNL     1       1.241   1.723  -0.307  0.00  0.00    -0.019 C 
BRANCH   6  11
ATOM      7  C   UNL     1       2.585   5.116  -1.273  0.00  0.00    +0.000 A 
ATOM      8  C   UNL     1       2.773   5.702  -0.035  0.00  0.00    +0.001 A 
ATOM      9  C   UNL     1       2.465   5.001   1.116  0.00  0.00    +0.020 A 
ATOM     10  C   UNL     1       1.969   3.712   1.028  0.00  0.00    +0.043 A 
ATOM     11  C   UNL     1       1.781   3.127  -0.211  0.00  0.00    -0.041 A 
ATOM     12  C   UNL     1       2.094   3.827  -1.361  0.00  0.00    +0.003 A 
ATOM     13 CL   UNL     1       1.582   2.831   2.473  0.00  0.00    -0.083 Cl
ENDBRANCH   6  11
BRANCH   6  18
ATOM     14  C   UNL     1       3.227   1.198  -1.615  0.00  0.00    -0.078 C 
ATOM     15  C   UNL     1       3.611   0.074  -2.609  0.00  0.00    -0.020 C 
ATOM     16  C   UNL     1       2.628  -1.062  -2.244  0.00  0.00    -0.020 C 
ATOM     17  C   UNL     1       1.453  -0.363  -1.534  0.00  0.00    -0.078 C 
ATOM     18  N   UNL     1       1.763   1.067  -1.544  0.00  0.00    +0.385 N 
ATOM     19  H   UNL     1       1.334   1.509  -2.365  0.00  0.00    -0.081 HD
ENDBRANCH   6  18
ENDBRANCH   5   6
ENDBRANCH   1   5
BRANCH   2  20
ATOM     20  C   UNL     1      -2.677  -1.218  -0.543  0.00  0.00    +0.100 C 
BRANCH  20  21
ATOM     21  C   UNL     1      -4.193  -1.179  -0.751  0.00  0.00    +0.044 C 
BRANCH  21  22
ATOM     22  C   UNL     1      -4.735  -2.584  -0.762  0.00  0.00    -0.047 A 
ATOM     23  C   UNL     1      -4.827  -3.281  -1.953  0.00  0.00    +0.005 A 
ATOM     24  C   UNL     1      -5.321  -4.572  -1.962  0.00  0.00    +0.029 A 
ATOM     25  C   UNL     1      -5.731  -5.164  -0.782  0.00  0.00    +0.105 A 
ATOM     26  C   UNL     1      -5.643  -4.466   0.408  0.00  0.00    +0.029 A 
ATOM     27  C   UNL     1      -5.146  -3.176   0.418  0.00  0.00    +0.005 A 
BRANCH  25  28
ATOM     28  S   UNL     1      -6.364  -6.808  -0.794  0.00  0.00    +0.061 S 
ATOM     29  O   UNL     1      -5.833  -7.439  -1.952  0.00  0.00    -0.153 OA
ATOM     30  O   UNL     1      -6.168  -7.328   0.514  0.00  0.00    -0.153 OA
BRANCH  28  31
ATOM     31  N   UNL     1      -8.000  -6.701  -1.022  0.00  0.00    -0.177 NA
ATOM     32  C   UNL     1      -9.008  -6.599   0.044  0.00  0.00    +0.109 C 
ATOM     33  C   UNL     1     -10.392  -6.548  -0.638  0.00  0.00    +0.018 C 
ATOM     34  C   UNL     1     -10.121  -7.202  -2.019  0.00  0.00    +0.018 C 
ATOM     35  C   UNL     1      -8.688  -6.698  -2.325  0.00  0.00    +0.109 C 
ENDBRANCH  28  31
ENDBRANCH  25  28
ENDBRANCH  21  22
ENDBRANCH  20  21
ENDBRANCH   2  20
TORSDOF 9
