REMARK  Name = ZINC18707824
REMARK  7 active torsions:
REMARK  status: ('A' for Active; 'I' for Inactive)
REMARK    1  A    between atoms: C_1  and  C_2
REMARK    2  A    between atoms: C_4  and  C_33
REMARK    3  A    between atoms: N_8  and  S_9
REMARK    4  A    between atoms: S_9  and  C_12
REMARK    5  A    between atoms: C_15  and  N_18
REMARK    6  A    between atoms: N_18  and  S_19
REMARK    7  A    between atoms: S_19  and  C_22
REMARK                            x       y       z     vdW  Elec       q    Type
REMARK                         _______ _______ _______ _____ _____    ______ ____
ROOT
ATOM      1  C   UNL     1       0.021   1.435   0.082  0.00  0.00    +0.109 A 
ATOM      2  C   UNL     1       1.216   2.126   0.001  0.00  0.00    +0.030 A 
ATOM      3  C   UNL     1       2.412   1.436  -0.038  0.00  0.00    +0.026 A 
ATOM      4  C   UNL     1       2.413   0.048   0.004  0.00  0.00    +0.048 A 
ATOM      5  C   UNL     1       1.211  -0.643   0.085  0.00  0.00    +0.026 A 
ATOM      6  C   UNL     1       0.018   0.053   0.124  0.00  0.00    +0.030 A 
ENDROOT
BRANCH   1   7
ATOM      7  S   UNL     1      -1.503   2.319   0.124  0.00  0.00    +0.075 S 
ATOM      8  O   UNL     1      -1.256   3.583  -0.476  0.00  0.00    -0.150 OA
ATOM      9  O   UNL     1      -2.502   1.429  -0.355  0.00  0.00    -0.150 OA
BRANCH   7  17
ATOM     10  C   UNL     1       2.351   4.864   2.167  0.00  0.00    +0.066 C 
ATOM     11  C   UNL     1       0.982   4.524   2.698  0.00  0.00    +0.044 A 
ATOM     12  C   UNL     1       0.556   5.029   3.916  0.00  0.00    +0.046 A 
ATOM     13  C   UNL     1      -0.711   4.692   4.367  0.00  0.00    +0.044 A 
ATOM     14  N   UNL     1      -1.470   3.902   3.626  0.00  0.00    -0.219 NA
ATOM     15  C   UNL     1      -1.033   3.436   2.466  0.00  0.00    +0.235 A 
ATOM     16  N   UNL     1       0.174   3.735   2.009  0.00  0.00    -0.219 NA
ATOM     17  N   UNL     1      -1.855   2.612   1.716  0.00  0.00    -0.184 N 
ATOM     18  C   UNL     1      -1.216   5.218   5.686  0.00  0.00    +0.066 C 
ATOM     19  H   UNL     1      -2.636   2.207   2.123  0.00  0.00    +0.177 HD
ENDBRANCH   7  17
ENDBRANCH   1   7
BRANCH   4  20
ATOM     20  N   UNL     1       3.621  -0.653  -0.037  0.00  0.00    -0.216 N 
ATOM     21  H   UNL     1       3.780  -1.381   0.584  0.00  0.00    +0.174 HD
BRANCH  20  22
ATOM     22  S   UNL     1       4.781  -0.241  -1.144  0.00  0.00    +0.072 S 
ATOM     23  O   UNL     1       4.995   1.157  -1.007  0.00  0.00    -0.150 OA
ATOM     24  O   UNL     1       5.830  -1.190  -1.006  0.00  0.00    -0.150 OA
BRANCH  22  25
ATOM     25  C   UNL     1       4.085  -0.489  -2.744  0.00  0.00    +0.109 A 
ATOM     26  C   UNL     1       3.505   0.571  -3.416  0.00  0.00    +0.030 A 
ATOM     27  C   UNL     1       2.958   0.380  -4.670  0.00  0.00    +0.025 A 
ATOM     28  C   UNL     1       2.993  -0.879  -5.256  0.00  0.00    +0.037 A 
ATOM     29  C   UNL     1       3.577  -1.941  -4.578  0.00  0.00    -0.024 A 
ATOM     30  C   UNL     1       4.126  -1.743  -3.327  0.00  0.00    +0.034 A 
ATOM     31  C   UNL     1       3.614  -3.307  -5.214  0.00  0.00    +0.046 C 
ATOM     32  C   UNL     1       2.354  -3.512  -6.056  0.00  0.00    +0.101 C 
ATOM     33  C   UNL     1       2.132  -2.319  -6.946  0.00  0.00    +0.218 C 
ATOM     34  O   UNL     1       1.669  -2.477  -8.056  0.00  0.00    -0.275 OA
ATOM     35  N   UNL     1       2.442  -1.079  -6.525  0.00  0.00    -0.285 N 
ATOM     36  H   UNL     1       2.282  -0.319  -7.106  0.00  0.00    +0.155 HD
ENDBRANCH  22  25
ENDBRANCH  20  22
ENDBRANCH   4  20
TORSDOF 5
