REMARK  Name = ZINC20718737
REMARK  2 active torsions:
REMARK  status: ('A' for Active; 'I' for Inactive)
REMARK    1  A    between atoms: C_9  and  S_14
REMARK    2  A    between atoms: S_14  and  C_15
REMARK                            x       y       z     vdW  Elec       q    Type
REMARK                         _______ _______ _______ _____ _____    ______ ____
ROOT
ATOM      1  C   UNL     1      -0.017   1.371   0.010  0.00  0.00    +0.000 A 
ATOM      2  C   UNL     1       1.179   2.068   0.002  0.00  0.00    +0.002 A 
ATOM      3  C   UNL     1       2.365   1.376  -0.017  0.00  0.00    +0.023 A 
ATOM      4  C   UNL     1       2.396  -0.029  -0.024  0.00  0.00    +0.037 A 
ATOM      5  C   UNL     1       1.202  -0.717  -0.011  0.00  0.00    -0.026 A 
ATOM      6  C   UNL     1       0.002  -0.004   0.002  0.00  0.00    +0.005 A 
ATOM      7  C   UNL     1       1.065  -2.205  -0.003  0.00  0.00    +0.038 C 
ATOM      8  C   UNL     1       2.104  -2.950   0.776  0.00  0.00    +0.028 C 
ATOM      9  C   UNL     1       3.426  -3.066   0.057  0.00  0.00    +0.141 C 
ATOM     10  C   UNL     1       4.164  -1.776   0.040  0.00  0.00    +0.231 C 
ATOM     11  O   UNL     1       5.372  -1.843   0.129  0.00  0.00    -0.274 OA
ATOM     12  N   UNL     1       3.656  -0.580  -0.060  0.00  0.00    -0.284 N 
ATOM     13  H   UNL     1       4.340   0.093  -0.196  0.00  0.00    +0.155 HD
ENDROOT
BRANCH   9  14
ATOM     14  S   UNL     1       4.444  -4.314   0.892  0.00  0.00    -0.073 S 
BRANCH  14  15
ATOM     15  C   UNL     1       5.875  -4.449  -0.128  0.00  0.00    +0.197 A 
ATOM     16  N   UNL     1       6.112  -3.773  -1.230  0.00  0.00    -0.122 NA
ATOM     17  N   UNL     1       7.249  -4.114  -1.726  0.00  0.00    -0.129 NA
ATOM     18  C   UNL     1       7.810  -5.034  -0.964  0.00  0.00    +0.162 A 
ATOM     19  N   UNL     1       6.944  -5.269   0.084  0.00  0.00    -0.278 N 
ATOM     20  C   UNL     1       7.260  -6.181   1.052  0.00  0.00    +0.095 A 
ATOM     21  C   UNL     1       8.422  -6.861   0.997  0.00  0.00    +0.018 A 
ATOM     22  C   UNL     1       9.328  -6.641  -0.059  0.00  0.00    +0.005 A 
ATOM     23  C   UNL     1       9.026  -5.744  -1.034  0.00  0.00    +0.049 A 
ENDBRANCH  14  15
ENDBRANCH   9  14
TORSDOF 2
