REMARK  Name = ZINC08115354
REMARK  2 active torsions:
REMARK  status: ('A' for Active; 'I' for Inactive)
REMARK    1  A    between atoms: C_8  and  C_10
REMARK    2  A    between atoms: C_15  and  C_19
REMARK                            x       y       z     vdW  Elec       q    Type
REMARK                         _______ _______ _______ _____ _____    ______ ____
ROOT
ATOM      1  C   UNL     1       3.796  -3.324  -0.051  0.00  0.00    +0.286 C 
ATOM      2  O   UNL     1       3.268  -4.420  -0.052  0.00  0.00    -0.266 OA
ATOM      3  N   UNL     1       5.140  -3.222  -0.064  0.00  0.00    -0.247 N 
ATOM      4  C   UNL     1       5.927  -4.377  -0.077  0.00  0.00    +0.241 A 
ATOM      5  N   UNL     1       7.261  -4.404  -0.084  0.00  0.00    -0.194 NA
ATOM      6  C   UNL     1       7.680  -5.653  -0.096  0.00  0.00    +0.159 A 
ATOM      7  N   UNL     1       6.593  -6.457  -0.096  0.00  0.00    -0.257 N 
ATOM      8  H   UNL     1       6.587  -7.427  -0.103  0.00  0.00    +0.191 HD
ATOM      9  N   UNL     1       5.474  -5.609  -0.078  0.00  0.00    -0.136 NA
ATOM     10  H   UNL     1       5.560  -2.348  -0.064  0.00  0.00    +0.158 HD
ENDROOT
BRANCH   1  18
ATOM     11  C   UNL     1      -0.017   1.362   0.009  0.00  0.00    +0.001 A 
ATOM     12  C   UNL     1       1.171   2.082   0.002  0.00  0.00    +0.004 A 
ATOM     13  C   UNL     1       2.387   1.434  -0.013  0.00  0.00    +0.047 A 
ATOM     14  C   UNL     1       2.431   0.045  -0.021  0.00  0.00    +0.136 A 
ATOM     15  C   UNL     1       1.225  -0.680  -0.013  0.00  0.00    +0.021 A 
ATOM     16  C   UNL     1       0.002  -0.004   0.002  0.00  0.00    +0.011 A 
ATOM     17  C   UNL     1       1.609  -2.091  -0.025  0.00  0.00    +0.063 A 
ATOM     18  C   UNL     1       2.968  -2.110  -0.038  0.00  0.00    +0.191 A 
ATOM     19  O   UNL     1       3.441  -0.847  -0.035  0.00  0.00    -0.450 OA
ENDBRANCH   1  18
BRANCH   6  20
ATOM     20  C   UNL     1       9.091  -6.098  -0.108  0.00  0.00    +0.033 A 
ATOM     21  C   UNL     1       9.396  -7.459  -0.126  0.00  0.00    +0.012 A 
ATOM     22  C   UNL     1      10.714  -7.868  -0.137  0.00  0.00    +0.001 A 
ATOM     23  C   UNL     1      11.732  -6.931  -0.129  0.00  0.00    +0.001 A 
ATOM     24  C   UNL     1      11.437  -5.580  -0.110  0.00  0.00    +0.016 A 
ATOM     25  C   UNL     1      10.123  -5.158  -0.106  0.00  0.00    +0.029 A 
ATOM     26 BR   UNL     1       9.720  -3.310  -0.090  0.00  0.00    -0.050 Br
ENDBRANCH   6  20
TORSDOF 2
