REMARK  Name = ZINC25607860
REMARK  11 active torsions:
REMARK  status: ('A' for Active; 'I' for Inactive)
REMARK    1  A    between atoms: C_1  and  N_2
REMARK    2  A    between atoms: N_2  and  C_3
REMARK    3  A    between atoms: N_2  and  C_4
REMARK    4  A    between atoms: C_4  and  C_6
REMARK    5  A    between atoms: C_4  and  C_33
REMARK    6  A    between atoms: C_6  and  N_7
REMARK    7  A    between atoms: C_8  and  C_10
REMARK    8  A    between atoms: C_10  and  C_12
REMARK    9  A    between atoms: C_10  and  N_23
REMARK   10  A    between atoms: C_12  and  C_13
REMARK   11  A    between atoms: C_24  and  C_26
REMARK                            x       y       z     vdW  Elec       q    Type
REMARK                         _______ _______ _______ _____ _____    ______ ____
ROOT
ATOM      1  C   UNL     1      -0.688   0.712  -3.186  0.00  0.00    +0.163 C 
ENDROOT
BRANCH   1   3
ATOM      2  N   UNL     1      -0.567   1.054  -0.740  0.00  0.00    -0.312 N 
ATOM      3  C   UNL     1       0.013   0.578  -1.859  0.00  0.00    +0.234 C 
ATOM      4  O   UNL     1       1.099   0.042  -1.799  0.00  0.00    -0.274 OA
ATOM      5  H   UNL     1      -1.552   1.540  -0.794  0.00  0.00    +0.149 HD
BRANCH   2   6
ATOM      6  C   UNL     1       0.115   0.923   0.551  0.00  0.00    +0.128 C 
BRANCH   6   7
ATOM      7  C   UNL     1      -0.714   1.612   1.637  0.00  0.00    +0.110 C 
BRANCH   7   8
ATOM      8  C   UNL     1      -2.010   0.867   1.829  0.00  0.00    +0.008 A 
ATOM      9  C   UNL     1      -2.342  -0.036   2.784  0.00  0.00    +0.013 A 
ATOM     10  C   UNL     1      -3.606  -0.597   2.765  0.00  0.00    +0.008 A 
ATOM     11  C   UNL     1      -4.471  -0.235   1.787  0.00  0.00    +0.045 A 
ATOM     12  S   UNL     1      -3.503   0.938   0.852  0.00  0.00    -0.100 S 
ENDBRANCH   7   8
BRANCH   7  14
ATOM     13  C   UNL     1      -1.795   3.689   2.254  0.00  0.00    +0.105 C 
ATOM     14  N   UNL     1      -1.000   2.995   1.232  0.00  0.00    -0.300 NA
ATOM     15  C   UNL     1       0.241   3.726   0.944  0.00  0.00    +0.105 C 
ENDBRANCH   7  14
ENDBRANCH   6   7
ENDBRANCH   2   6
ENDBRANCH   1   3
BRANCH   1  16
ATOM     16  N   UNL     1       0.142   0.122  -4.239  0.00  0.00    -0.300 N 
ATOM     17  C   UNL     1      -0.429  -0.335  -5.371  0.00  0.00    +0.245 C 
ATOM     18  O   UNL     1      -1.633  -0.257  -5.519  0.00  0.00    -0.270 OA
ATOM     19  H   UNL     1       1.232   0.052  -4.106  0.00  0.00    +0.150 HD
BRANCH  17  20
ATOM     20  C   UNL     1       0.408  -0.930  -6.433  0.00  0.00    +0.037 A 
ATOM     21  C   UNL     1       1.792  -1.016  -6.268  0.00  0.00    +0.016 A 
ATOM     22  C   UNL     1       2.568  -1.578  -7.259  0.00  0.00    +0.039 A 
ATOM     23  C   UNL     1       1.978  -2.047  -8.423  0.00  0.00    +0.123 A 
ATOM     24  C   UNL     1       0.605  -1.959  -8.594  0.00  0.00    +0.039 A 
ATOM     25  C   UNL     1      -0.181  -1.405  -7.606  0.00  0.00    +0.016 A 
ATOM     26  F   UNL     1       2.744  -2.592  -9.393  0.00  0.00    -0.205 F 
ENDBRANCH  17  20
ENDBRANCH   1  16
BRANCH   1  27
ATOM     27  C   UNL     1      -0.922   2.193  -3.492  0.00  0.00    +0.069 C 
BRANCH  27  28
ATOM     28  C   UNL     1      -1.731   2.323  -4.757  0.00  0.00    -0.020 A 
ATOM     29  C   UNL     1      -1.250   2.516  -5.996  0.00  0.00    +0.087 A 
ATOM     30  N   UNL     1      -2.282   2.582  -6.892  0.00  0.00    -0.360 N 
ATOM     31  H   UNL     1      -2.073   2.731  -7.961  0.00  0.00    +0.165 HD
ATOM     32  C   UNL     1      -3.483   2.438  -6.234  0.00  0.00    +0.047 A 
ATOM     33  C   UNL     1      -3.191   2.269  -4.868  0.00  0.00    +0.003 A 
ATOM     34  C   UNL     1      -4.228   2.097  -3.950  0.00  0.00    +0.010 A 
ATOM     35  C   UNL     1      -5.524   2.094  -4.383  0.00  0.00    +0.001 A 
ATOM     36  C   UNL     1      -5.818   2.260  -5.729  0.00  0.00    +0.002 A 
ATOM     37  C   UNL     1      -4.809   2.431  -6.652  0.00  0.00    +0.026 A 
ENDBRANCH  27  28
ENDBRANCH   1  27
TORSDOF 9
