REMARK  Name = ZINC04574430
REMARK  11 active torsions:
REMARK  status: ('A' for Active; 'I' for Inactive)
REMARK    1  A    between atoms: C_1  and  O_2
REMARK    2  A    between atoms: O_2  and  C_3
REMARK    3  A    between atoms: C_3  and  C_5
REMARK    4  A    between atoms: C_8  and  C_28
REMARK    5  A    between atoms: C_9  and  N_11
REMARK    6  A    between atoms: N_11  and  C_12
REMARK    7  A    between atoms: C_12  and  N_14
REMARK    8  A    between atoms: C_17  and  C_20
REMARK    9  A    between atoms: C_17  and  N_62
REMARK   10  A    between atoms: C_28  and  O_30
REMARK   11  A    between atoms: O_30  and  C_31
REMARK                            x       y       z     vdW  Elec       q    Type
REMARK                         _______ _______ _______ _____ _____    ______ ____
ROOT
ATOM      1  C   UNL     1       1.989   4.188   0.090  0.00  0.00    +0.137 C 
ATOM      2  S   UNL     1       3.367   3.200  -0.145  0.00  0.00    -0.018 S 
ENDROOT
BRANCH   1   3
ATOM      3  N   UNL     1       2.125   5.526   0.172  0.00  0.00    -0.313 N 
ATOM      4  C   UNL     1       0.943   6.395   0.257  0.00  0.00    +0.106 C 
ATOM      5  C   UNL     1       1.022   7.452  -0.843  0.00  0.00    +0.016 C 
ATOM      6  C   UNL     1       2.357   8.194  -0.740  0.00  0.00    +0.015 C 
ATOM      7  C   UNL     1       3.508   7.205  -0.935  0.00  0.00    +0.016 C 
ATOM      8  C   UNL     1       3.458   6.144   0.170  0.00  0.00    +0.106 C 
BRANCH   6  14
ATOM      9  C   UNL     1       3.756   9.841  -1.830  0.00  0.00    -0.077 C 
ATOM     10  C   UNL     1       3.830  10.809  -3.013  0.00  0.00    -0.019 C 
ATOM     11  C   UNL     1       2.760  11.891  -2.848  0.00  0.00    -0.004 C 
ATOM     12  C   UNL     1       1.384  11.227  -2.748  0.00  0.00    -0.019 C 
ATOM     13  C   UNL     1       1.381  10.246  -1.573  0.00  0.00    -0.077 C 
ATOM     14  N   UNL     1       2.416   9.217  -1.804  0.00  0.00    +0.389 N 
ATOM     15  H   UNL     1       2.241   8.766  -2.710  0.00  0.00    -0.080 HD
ENDBRANCH   6  14
BRANCH   6  16
ATOM     16  C   UNL     1       2.470   8.835   0.619  0.00  0.00    +0.200 C 
ATOM     17  O   UNL     1       1.474   9.037   1.280  0.00  0.00    -0.278 OA
ATOM     18  N   UNL     1       3.680   9.185   1.100  0.00  0.00    -0.330 N 
ATOM     19  H   UNL     1       4.469   9.091   0.543  0.00  0.00    +0.145 HD
ATOM     20  H   UNL     1       3.762   9.531   2.002  0.00  0.00    +0.145 HD
ENDBRANCH   6  16
ENDBRANCH   1   3
BRANCH   1  21
ATOM     21  N   UNL     1       0.768   3.627   0.194  0.00  0.00    -0.296 N 
ATOM     22  H   UNL     1      -0.020   4.189   0.255  0.00  0.00    +0.154 HD
BRANCH  21  27
ATOM     23  C   UNL     1       1.333   0.090   1.042  0.00  0.00    +0.061 A 
ATOM     24  C   UNL     1       0.367  -0.532   0.245  0.00  0.00    +0.016 A 
ATOM     25  C   UNL     1      -0.456   0.222  -0.560  0.00  0.00    +0.017 A 
ATOM     26  C   UNL     1      -0.330   1.613  -0.583  0.00  0.00    +0.080 A 
ATOM     27  C   UNL     1       0.638   2.241   0.215  0.00  0.00    +0.047 A 
ATOM     28  C   UNL     1       1.466   1.476   1.025  0.00  0.00    +0.039 A 
BRANCH  23  29
ATOM     29  C   UNL     1       2.216  -0.726   1.904  0.00  0.00    +0.339 C 
ATOM     30  O   UNL     1       3.055  -0.187   2.597  0.00  0.00    -0.245 OA
BRANCH  29  32
ATOM     31  C   UNL     1       2.988  -2.803   2.792  0.00  0.00    +0.280 C 
ATOM     32  O   UNL     1       2.088  -2.067   1.922  0.00  0.00    -0.464 OA
ENDBRANCH  29  32
ENDBRANCH  23  29
BRANCH  26  33
ATOM     33  C   UNL     1      -1.209   2.420  -1.451  0.00  0.00    +0.341 C 
ATOM     34  O   UNL     1      -1.157   3.633  -1.409  0.00  0.00    -0.245 OA
BRANCH  33  35
ATOM     35  O   UNL     1      -2.069   1.812  -2.291  0.00  0.00    -0.464 OA
ATOM     36  C   UNL     1      -2.903   2.669  -3.115  0.00  0.00    +0.280 C 
ENDBRANCH  33  35
ENDBRANCH  26  33
ENDBRANCH  21  27
ENDBRANCH   1  21
TORSDOF 9
