REMARK  Name = ZINC10205408
REMARK  5 active torsions:
REMARK  status: ('A' for Active; 'I' for Inactive)
REMARK    1  A    between atoms: C_1  and  C_2
REMARK    2  A    between atoms: C_2  and  C_4
REMARK    3  A    between atoms: C_2  and  N_14
REMARK    4  A    between atoms: C_7  and  S_10
REMARK    5  A    between atoms: S_10  and  C_13
REMARK                            x       y       z     vdW  Elec       q    Type
REMARK                         _______ _______ _______ _____ _____    ______ ____
ROOT
ATOM      1  N   UNL     1       2.573   5.345   0.005  0.00  0.00    -0.293 N 
ATOM      2  C   UNL     1       2.442   4.003  -0.000  0.00  0.00    +0.306 C 
ATOM      3  O   UNL     1       3.431   3.296  -0.013  0.00  0.00    -0.252 OA
ATOM      4  N   UNL     1       1.215   3.446   0.008  0.00  0.00    -0.248 N 
ATOM      5  C   UNL     1       1.081   2.067   0.003  0.00  0.00    +0.167 A 
ATOM      6  N   UNL     1      -0.016   1.347   0.009  0.00  0.00    -0.225 NA
ATOM      7  C   UNL     1       0.002  -0.004   0.002  0.00  0.00    +0.080 A 
ATOM      8  C   UNL     1      -1.098  -0.892   0.007  0.00  0.00    +0.029 A 
ATOM      9  C   UNL     1      -0.903  -2.248  -0.002  0.00  0.00    +0.002 A 
ATOM     10  C   UNL     1       0.371  -2.798  -0.017  0.00  0.00    +0.001 A 
ATOM     11  C   UNL     1       1.470  -1.959  -0.022  0.00  0.00    +0.017 A 
ATOM     12  C   UNL     1       1.284  -0.599  -0.013  0.00  0.00    +0.041 A 
ATOM     13  S   UNL     1       2.358   0.817  -0.016  0.00  0.00    -0.052 S 
ATOM     14  H   UNL     1       1.784   5.909   0.015  0.00  0.00    +0.151 HD
ATOM     15  H   UNL     1       0.426   4.010   0.018  0.00  0.00    +0.158 HD
ENDROOT
BRANCH   1  17
ATOM     16  C   UNL     1       4.436   6.040   1.428  0.00  0.00    +0.033 C 
ATOM     17  C   UNL     1       3.906   5.951  -0.004  0.00  0.00    +0.102 C 
BRANCH  17  18
ATOM     18  C   UNL     1       3.825   7.334  -0.597  0.00  0.00    -0.027 A 
ATOM     19  C   UNL     1       2.754   8.154  -0.295  0.00  0.00    +0.007 A 
ATOM     20  C   UNL     1       2.682   9.424  -0.835  0.00  0.00    +0.027 A 
ATOM     21  C   UNL     1       3.676   9.871  -1.686  0.00  0.00    +0.088 A 
ATOM     22  C   UNL     1       4.745   9.049  -1.992  0.00  0.00    +0.027 A 
ATOM     23  C   UNL     1       4.819   7.780  -1.448  0.00  0.00    +0.007 A 
BRANCH  21  24
ATOM     24  S   UNL     1       3.581  11.488  -2.380  0.00  0.00    -0.006 S 
ATOM     25  O   UNL     1       2.803  12.234  -1.455  0.00  0.00    -0.170 OA
ATOM     26  O   UNL     1       4.929  11.847  -2.649  0.00  0.00    -0.170 OA
ATOM     27  C   UNL     1       2.670  11.274  -3.934  0.00  0.00    +0.200 C 
ENDBRANCH  21  24
ENDBRANCH  17  18
ENDBRANCH   1  17
TORSDOF 3
