REMARK  Name = ZINC65526090
REMARK  2 active torsions:
REMARK  status: ('A' for Active; 'I' for Inactive)
REMARK    1  A    between atoms: C_16  and  N_18
REMARK    2  A    between atoms: C_21  and  O_24
REMARK                            x       y       z     vdW  Elec       q    Type
REMARK                         _______ _______ _______ _____ _____    ______ ____
ROOT
ATOM      1  C   UNL     1      -0.017   1.377   0.010  0.00  0.00    +0.001 A 
ATOM      2  C   UNL     1       1.176   2.077   0.002  0.00  0.00    +0.004 A 
ATOM      3  C   UNL     1       2.375   1.400   0.003  0.00  0.00    +0.046 A 
ATOM      4  C   UNL     1       2.404   0.004   0.002  0.00  0.00    +0.125 A 
ATOM      5  C   UNL     1       1.205  -0.688  -0.018  0.00  0.00    +0.012 A 
ATOM      6  C   UNL     1       0.002  -0.004   0.002  0.00  0.00    +0.009 A 
ATOM      7  C   UNL     1       1.188  -2.189  -0.101  0.00  0.00    +0.146 C 
ATOM      8  N   UNL     1       2.119  -2.749   0.880  0.00  0.00    -0.292 N 
ATOM      9  C   UNL     1       3.504  -2.954   0.469  0.00  0.00    +0.149 C 
ATOM     10  C   UNL     1       3.836  -1.855  -0.562  0.00  0.00    +0.248 C 
ATOM     11  O   UNL     1       3.633  -0.580   0.046  0.00  0.00    -0.490 OA
ATOM     12  C   UNL     1       1.698  -3.074   2.158  0.00  0.00    +0.220 A 
ATOM     13  N   UNL     1       0.431  -2.877   2.491  0.00  0.00    -0.223 NA
ATOM     14  C   UNL     1      -0.009  -3.176   3.704  0.00  0.00    +0.118 A 
ATOM     15  C   UNL     1       0.870  -3.699   4.632  0.00  0.00    +0.063 A 
ATOM     16  C   UNL     1       2.200  -3.896   4.253  0.00  0.00    +0.126 A 
ATOM     17  N   UNL     1       2.572  -3.578   3.016  0.00  0.00    -0.199 NA
ENDROOT
BRANCH  16  18
ATOM     18  N   UNL     1       3.117  -4.418   5.150  0.00  0.00    -0.313 N 
ATOM     19  C   UNL     1       4.564  -4.570   4.910  0.00  0.00    +0.109 C 
ATOM     20  C   UNL     1       5.200  -4.584   6.322  0.00  0.00    +0.052 C 
ATOM     21  C   UNL     1       4.139  -5.370   7.135  0.00  0.00    +0.133 C 
ATOM     22  C   UNL     1       2.809  -4.908   6.502  0.00  0.00    +0.137 C 
BRANCH  21  23
ATOM     23  O   UNL     1       4.321  -6.779   6.976  0.00  0.00    -0.390 OA
ATOM     24  H   UNL     1       5.176  -7.102   7.291  0.00  0.00    +0.210 HD
ENDBRANCH  21  23
ENDBRANCH  16  18
TORSDOF 2
