REMARK  Name = ZINC15978223
REMARK  7 active torsions:
REMARK  status: ('A' for Active; 'I' for Inactive)
REMARK    1  A    between atoms: C_1  and  C_2
REMARK    2  A    between atoms: N_11  and  C_15
REMARK    3  A    between atoms: C_15  and  C_16
REMARK    4  A    between atoms: C_19  and  C_34
REMARK    5  A    between atoms: C_22  and  C_24
REMARK    6  A    between atoms: C_37  and  O_40
REMARK    7  A    between atoms: O_40  and  C_41
REMARK                            x       y       z     vdW  Elec       q    Type
REMARK                         _______ _______ _______ _____ _____    ______ ____
ROOT
ATOM      1  C   UNL     1      -2.871   3.007   1.320  0.00  0.00    +0.253 C 
ATOM      2  O   UNL     1      -2.861   3.001   2.533  0.00  0.00    -0.272 OA
ATOM      3  N   UNL     1      -1.907   2.360   0.635  0.00  0.00    -0.184 N 
ATOM      4  C   UNL     1      -0.787   1.609   1.234  0.00  0.00    +0.137 C 
ATOM      5  C   UNL     1      -0.013   1.086   0.008  0.00  0.00    +0.087 C 
ATOM      6  C   UNL     1      -0.795   1.612  -1.174  0.00  0.00    +0.069 C 
ATOM      7  N   UNL     1      -1.806   2.292  -0.753  0.00  0.00    -0.181 NA
ENDROOT
BRANCH   6   8
ATOM      8  C   UNL     1      -0.455   1.382  -2.590  0.00  0.00    -0.002 A 
ATOM      9  C   UNL     1       0.679   0.618  -2.921  0.00  0.00    +0.010 A 
ATOM     10  C   UNL     1       1.013   0.393  -4.216  0.00  0.00    +0.009 A 
ATOM     11  C   UNL     1       0.220   0.926  -5.250  0.00  0.00    -0.018 A 
ATOM     12  C   UNL     1       0.546   0.705  -6.599  0.00  0.00    +0.008 A 
ATOM     13  C   UNL     1      -0.240   1.233  -7.578  0.00  0.00    +0.001 A 
ATOM     14  C   UNL     1      -1.366   1.992  -7.264  0.00  0.00    +0.001 A 
ATOM     15  C   UNL     1      -1.713   2.227  -5.969  0.00  0.00    +0.008 A 
ATOM     16  C   UNL     1      -0.925   1.697  -4.931  0.00  0.00    -0.017 A 
ATOM     17  C   UNL     1      -1.258   1.916  -3.585  0.00  0.00    +0.018 A 
ENDBRANCH   6   8
BRANCH   4  18
ATOM     18  C   UNL     1       0.083   2.520   2.062  0.00  0.00    -0.024 A 
ATOM     19  C   UNL     1       0.272   3.833   1.674  0.00  0.00    +0.009 A 
ATOM     20  C   UNL     1       1.065   4.671   2.435  0.00  0.00    +0.046 A 
ATOM     21  C   UNL     1       1.679   4.191   3.582  0.00  0.00    +0.120 A 
ATOM     22  C   UNL     1       1.492   2.870   3.965  0.00  0.00    +0.046 A 
ATOM     23  C   UNL     1       0.694   2.038   3.204  0.00  0.00    +0.009 A 
BRANCH  21  24
ATOM     24  O   UNL     1       2.463   5.011   4.329  0.00  0.00    -0.495 OA
ATOM     25  C   UNL     1       2.611   6.358   3.874  0.00  0.00    +0.277 C 
ENDBRANCH  21  24
ENDBRANCH   4  18
BRANCH   1  26
ATOM     26  C   UNL     1      -3.960   3.739   0.579  0.00  0.00    +0.215 C 
BRANCH  26  36
ATOM     27  C   UNL     1      -4.506   4.875   4.832  0.00  0.00    +0.010 C 
ATOM     28  C   UNL     1      -5.398   6.041   4.400  0.00  0.00    +0.018 C 
ATOM     29  C   UNL     1      -4.594   7.343   4.447  0.00  0.00    +0.006 C 
ATOM     30  C   UNL     1      -5.482   8.505   3.995  0.00  0.00    +0.000 C 
ATOM     31  C   UNL     1      -5.957   8.260   2.561  0.00  0.00    +0.003 C 
ATOM     32  C   UNL     1      -6.765   6.961   2.508  0.00  0.00    +0.035 C 
ATOM     33  C   UNL     1      -5.896   5.800   2.979  0.00  0.00    +0.115 C 
ATOM     34  C   UNL     1      -4.729   5.600   2.039  0.00  0.00    +0.247 C 
ATOM     35  O   UNL     1      -3.846   6.392   1.786  0.00  0.00    -0.273 OA
ATOM     36  N   UNL     1      -4.877   4.355   1.541  0.00  0.00    -0.215 N 
ATOM     37  C   UNL     1      -5.968   3.755   2.030  0.00  0.00    +0.310 C 
ATOM     38  O   UNL     1      -6.314   2.630   1.727  0.00  0.00    -0.252 OA
ATOM     39  N   UNL     1      -6.638   4.535   2.900  0.00  0.00    -0.285 N 
ATOM     40  H   UNL     1      -7.451   4.308   3.378  0.00  0.00    +0.151 HD
ENDBRANCH  26  36
ENDBRANCH   1  26
TORSDOF 5
