REMARK  Name = ZINC43726916
REMARK  10 active torsions:
REMARK  status: ('A' for Active; 'I' for Inactive)
REMARK    1  A    between atoms: C_1  and  C_2
REMARK    2  A    between atoms: C_2  and  C_4
REMARK    3  A    between atoms: C_2  and  C_10
REMARK    4  A    between atoms: C_4  and  C_5
REMARK    5  A    between atoms: C_5  and  C_6
REMARK    6  A    between atoms: C_6  and  O_8
REMARK    7  A    between atoms: O_8  and  C_9
REMARK    8  A    between atoms: C_16  and  C_38
REMARK    9  A    between atoms: N_24  and  N_25
REMARK   10  A    between atoms: C_32  and  C_37
REMARK                            x       y       z     vdW  Elec       q    Type
REMARK                         _______ _______ _______ _____ _____    ______ ____
ROOT
ATOM      1  C   UNL     1      -1.389  -0.524  -0.042  0.00  0.00    -0.002 C 
ATOM      2  C   UNL     1      -1.480  -2.061   0.017  0.00  0.00    +0.004 C 
ATOM      3  C   UNL     1      -2.114  -2.517  -1.317  0.00  0.00    +0.005 C 
ATOM      4  C   UNL     1      -1.808  -1.351  -2.276  0.00  0.00    +0.004 C 
ATOM      5  C   UNL     1      -2.014  -0.101  -1.398  0.00  0.00    -0.026 C 
ATOM      6  C   UNL     1      -3.501   0.148  -1.138  0.00  0.00    +0.007 C 
ATOM      7  C   UNL     1      -4.289   0.202  -2.445  0.00  0.00    +0.005 C 
ATOM      8  C   UNL     1      -4.155  -1.155  -3.142  0.00  0.00    +0.004 C 
ATOM      9  C   UNL     1      -2.691  -1.353  -3.498  0.00  0.00    +0.042 C 
ATOM     10  C   UNL     1      -2.575  -2.650  -4.263  0.00  0.00    +0.041 C 
ATOM     11  N   UNL     1      -1.737  -3.553  -3.913  0.00  0.00    -0.188 NA
ATOM     12  C   UNL     1      -3.486  -2.847  -5.456  0.00  0.00    +0.056 C 
ATOM     13  C   UNL     1      -4.927  -2.550  -5.038  0.00  0.00    +0.001 C 
ATOM     14  C   UNL     1      -5.007  -1.188  -4.410  0.00  0.00    -0.025 C 
ATOM     15  C   UNL     1      -6.468  -0.913  -4.043  0.00  0.00    +0.007 C 
ATOM     16  C   UNL     1      -6.946  -1.970  -3.045  0.00  0.00    +0.001 C 
ATOM     17  C   UNL     1      -6.833  -3.359  -3.675  0.00  0.00    +0.000 C 
ATOM     18  C   UNL     1      -5.405  -3.606  -4.040  0.00  0.00    +0.004 C 
ATOM     19  C   UNL     1      -4.506  -0.128  -5.393  0.00  0.00    +0.012 C 
ATOM     20  C   UNL     1      -1.313   1.125  -1.987  0.00  0.00    +0.012 C 
ENDROOT
BRANCH  11  21
ATOM     21  N   UNL     1      -1.557  -4.688  -4.714  0.00  0.00    -0.191 N 
ATOM     22  C   UNL     1      -0.759  -5.690  -4.292  0.00  0.00    +0.317 C 
ATOM     23  O   UNL     1      -0.602  -6.675  -4.987  0.00  0.00    -0.251 OA
ATOM     24  N   UNL     1      -0.136  -5.599  -3.101  0.00  0.00    -0.312 N 
ATOM     25  H   UNL     1      -2.005  -4.754  -5.571  0.00  0.00    +0.179 HD
ATOM     26  H   UNL     1      -0.261  -4.813  -2.547  0.00  0.00    +0.147 HD
ATOM     27  H   UNL     1       0.438  -6.320  -2.798  0.00  0.00    +0.147 HD
ENDBRANCH  11  21
BRANCH   1  29
ATOM     28  C   UNL     1       0.633  -0.373   1.418  0.00  0.00    +0.008 C 
ATOM     29  C   UNL     1       0.075  -0.082   0.024  0.00  0.00    -0.010 C 
BRANCH  29  30
ATOM     30  C   UNL     1       0.886  -0.850  -1.022  0.00  0.00    +0.014 C 
BRANCH  30  31
ATOM     31  C   UNL     1       2.338  -0.369  -0.994  0.00  0.00    +0.121 C 
BRANCH  31  32
ATOM     32  C   UNL     1       3.138  -1.125  -2.023  0.00  0.00    +0.307 C 
ATOM     33  O   UNL     1       2.602  -1.963  -2.709  0.00  0.00    -0.251 OA
BRANCH  32  34
ATOM     34  O   UNL     1       4.446  -0.868  -2.179  0.00  0.00    -0.468 OA
ATOM     35  C   UNL     1       5.142  -1.622  -3.173  0.00  0.00    +0.280 C 
ENDBRANCH  32  34
ENDBRANCH  31  32
ENDBRANCH  30  31
ENDBRANCH  29  30
ENDBRANCH   1  29
TORSDOF 6
