REMARK  Name = ZINC36346804
REMARK  16 active torsions:
REMARK  status: ('A' for Active; 'I' for Inactive)
REMARK    1  A    between atoms: C_1  and  C_2
REMARK    2  A    between atoms: C_5  and  O_8
REMARK    3  A    between atoms: O_8  and  C_9
REMARK    4  A    between atoms: C_10  and  C_21
REMARK    5  A    between atoms: C_11  and  C_15
REMARK    6  A    between atoms: N_13  and  C_14
REMARK    7  A    between atoms: C_21  and  N_22
REMARK    8  A    between atoms: N_22  and  C_23
REMARK    9  A    between atoms: N_22  and  C_30
REMARK   10  A    between atoms: C_23  and  C_24
REMARK   11  A    between atoms: C_30  and  C_31
REMARK   12  A    between atoms: C_31  and  C_33
REMARK   13  A    between atoms: C_31  and  O_38
REMARK   14  A    between atoms: C_33  and  O_34
REMARK   15  A    between atoms: O_34  and  C_35
REMARK   16  A    between atoms: C_35  and  C_36
REMARK                            x       y       z     vdW  Elec       q    Type
REMARK                         _______ _______ _______ _____ _____    ______ ____
ROOT
ATOM      1  C   UNL     1       1.300  -4.447   1.131  0.00  0.00    +0.221 A 
ATOM      2  C   UNL     1       0.934  -5.740   1.323  0.00  0.00    +0.025 A 
ATOM      3  C   UNL     1       0.639  -5.906   2.690  0.00  0.00    +0.098 A 
ATOM      4  N   UNL     1       0.823  -4.750   3.291  0.00  0.00    -0.168 NA
ATOM      5  N   UNL     1       1.244  -3.819   2.334  0.00  0.00    -0.235 N 
ATOM      6  C   UNL     1       1.566  -2.412   2.585  0.00  0.00    +0.176 C 
ENDROOT
BRANCH   3   7
ATOM      7  C   UNL     1       0.196  -7.165   3.339  0.00  0.00    +0.002 A 
ATOM      8  C   UNL     1      -0.762  -7.969   2.725  0.00  0.00    +0.010 A 
ATOM      9  C   UNL     1      -1.170  -9.139   3.333  0.00  0.00    +0.001 A 
ATOM     10  C   UNL     1      -0.629  -9.514   4.550  0.00  0.00    +0.000 A 
ATOM     11  C   UNL     1       0.322  -8.720   5.164  0.00  0.00    +0.001 A 
ATOM     12  C   UNL     1       0.741  -7.550   4.562  0.00  0.00    +0.010 A 
ENDBRANCH   3   7
BRANCH   1  13
ATOM     13  O   UNL     1       1.662  -3.885  -0.050  0.00  0.00    -0.438 OA
BRANCH  13  18
ATOM     14  C   UNL     1      -2.358  -1.476  -3.174  0.00  0.00    +0.044 C 
ATOM     15  C   UNL     1      -1.282  -2.120  -2.338  0.00  0.00    -0.050 A 
ATOM     16  C   UNL     1       0.042  -2.027  -2.726  0.00  0.00    +0.007 A 
ATOM     17  C   UNL     1       1.030  -2.617  -1.961  0.00  0.00    +0.046 A 
ATOM     18  C   UNL     1       0.692  -3.303  -0.803  0.00  0.00    +0.130 A 
ATOM     19  C   UNL     1      -0.637  -3.395  -0.416  0.00  0.00    +0.046 A 
ATOM     20  C   UNL     1      -1.621  -2.799  -1.182  0.00  0.00    +0.007 A 
ENDBRANCH  13  18
ENDBRANCH   1  13
BRANCH   2  21
ATOM     21  C   UNL     1       0.857  -6.808   0.263  0.00  0.00    -0.035 C 
BRANCH  21  22
ATOM     22  N   UNL     1       2.192  -7.379   0.045  0.00  0.00    +0.387 N 
ATOM     23  H   UNL     1       2.842  -6.640  -0.180  0.00  0.00    -0.081 HD
BRANCH  22  24
ATOM     24  C   UNL     1       2.140  -8.339  -1.066  0.00  0.00    -0.042 C 
BRANCH  24  25
ATOM     25  C   UNL     1       1.811  -7.610  -2.344  0.00  0.00    -0.064 A 
ATOM     26  C   UNL     1       0.503  -7.545  -2.785  0.00  0.00    +0.002 A 
ATOM     27  C   UNL     1       0.202  -6.876  -3.958  0.00  0.00    +0.000 A 
ATOM     28  C   UNL     1       1.209  -6.273  -4.688  0.00  0.00    +0.000 A 
ATOM     29  C   UNL     1       2.517  -6.338  -4.246  0.00  0.00    +0.000 A 
ATOM     30  C   UNL     1       2.818  -7.003  -3.071  0.00  0.00    +0.002 A 
ENDBRANCH  24  25
ENDBRANCH  22  24
BRANCH  22  31
ATOM     31  C   UNL     1       2.636  -8.067   1.265  0.00  0.00    -0.044 C 
BRANCH  31  32
ATOM     32  C   UNL     1       4.075  -8.554   1.082  0.00  0.00    +0.124 C 
BRANCH  32  33
ATOM     33  O   UNL     1       4.945  -7.428   0.945  0.00  0.00    -0.391 OA
ATOM     34  H   UNL     1       4.940  -6.832   1.706  0.00  0.00    +0.210 HD
ENDBRANCH  32  33
BRANCH  32  35
ATOM     35  C   UNL     1       4.494  -9.377   2.301  0.00  0.00    +0.190 C 
BRANCH  35  36
ATOM     36  O   UNL     1       5.794  -9.928   2.080  0.00  0.00    -0.365 OA
BRANCH  36  37
ATOM     37  C   UNL     1       6.282 -10.719   3.165  0.00  0.00    +0.248 C 
BRANCH  37  38
ATOM     38  C   UNL     1       7.620 -11.234   2.834  0.00  0.00    -0.077 C 
ATOM     39  C   UNL     1       8.688 -11.646   2.569  0.00  0.00    +0.006 C 
ENDBRANCH  37  38
ENDBRANCH  36  37
ENDBRANCH  35  36
ENDBRANCH  32  35
ENDBRANCH  31  32
ENDBRANCH  22  31
ENDBRANCH  21  22
ENDBRANCH   2  21
TORSDOF 14
