REMARK  Name = ZINC13163707
REMARK  8 active torsions:
REMARK  status: ('A' for Active; 'I' for Inactive)
REMARK    1  A    between atoms: C_1  and  N_2
REMARK    2  A    between atoms: C_3  and  C_24
REMARK    3  A    between atoms: C_6  and  S_7
REMARK    4  A    between atoms: S_7  and  C_8
REMARK    5  A    between atoms: C_8  and  C_9
REMARK    6  A    between atoms: N_11  and  C_12
REMARK    7  A    between atoms: C_13  and  C_21
REMARK    8  A    between atoms: C_24  and  C_25
REMARK                            x       y       z     vdW  Elec       q    Type
REMARK                         _______ _______ _______ _____ _____    ______ ____
ROOT
ATOM      1  C   UNL     1      -4.218   2.585  -8.789  0.00  0.00    +0.228 C 
ATOM      2  O   UNL     1      -4.708   1.495  -8.994  0.00  0.00    -0.275 OA
ATOM      3  N   UNL     1      -4.505   3.617  -9.608  0.00  0.00    -0.279 N 
ATOM      4  H   UNL     1      -4.113   4.489  -9.444  0.00  0.00    +0.155 HD
ENDROOT
BRANCH   3   5
ATOM      5  C   UNL     1      -5.360   3.431 -10.684  0.00  0.00    +0.084 A 
ATOM      6  C   UNL     1      -5.771   4.361 -11.628  0.00  0.00    +0.068 A 
ATOM      7  C   UNL     1      -6.681   3.907 -12.666  0.00  0.00    -0.023 A 
ATOM      8  C   UNL     1      -7.031   2.604 -12.594  0.00  0.00    -0.004 A 
ATOM      9  S   UNL     1      -6.167   1.981 -11.180  0.00  0.00    -0.077 S 
ATOM     10  C   UNL     1      -7.947   1.863 -13.518  0.00  0.00    +0.043 C 
ATOM     11  C   UNL     1      -8.730   2.889 -14.350  0.00  0.00    +0.005 C 
ATOM     12  C   UNL     1      -7.748   3.924 -14.907  0.00  0.00    +0.005 C 
ATOM     13  C   UNL     1      -7.221   4.804 -13.773  0.00  0.00    +0.037 C 
BRANCH   6  14
ATOM     14  C   UNL     1      -5.305   5.750 -11.581  0.00  0.00    +0.244 C 
ATOM     15  O   UNL     1      -4.289   6.072 -12.170  0.00  0.00    -0.270 OA
ATOM     16  N   UNL     1      -6.000   6.671 -10.886  0.00  0.00    -0.325 N 
ATOM     17  H   UNL     1      -6.810   6.415 -10.416  0.00  0.00    +0.145 HD
ATOM     18  H   UNL     1      -5.692   7.590 -10.854  0.00  0.00    +0.145 HD
ENDBRANCH   6  14
ENDBRANCH   3   5
BRANCH   1  19
ATOM     19  C   UNL     1      -3.290   2.787  -7.620  0.00  0.00    +0.173 C 
BRANCH  19  20
ATOM     20  S   UNL     1      -3.106   1.227  -6.719  0.00  0.00    -0.077 S 
BRANCH  20  26
ATOM     21  C   UNL     1      -1.762  -0.467  -4.218  0.00  0.00    +0.152 C 
ATOM     22  N   UNL     1      -1.499   0.956  -4.445  0.00  0.00    -0.309 N 
ATOM     23  C   UNL     1      -0.699   1.777  -3.700  0.00  0.00    +0.134 A 
ATOM     24  N   UNL     1      -0.738   2.959  -4.247  0.00  0.00    -0.134 NA
ATOM     25  N   UNL     1      -1.507   2.942  -5.277  0.00  0.00    -0.123 NA
ATOM     26  C   UNL     1      -2.003   1.738  -5.444  0.00  0.00    +0.192 A 
BRANCH  23  27
ATOM     27  C   UNL     1       0.088   1.386  -2.475  0.00  0.00    +0.081 C 
BRANCH  27  28
ATOM     28  C   UNL     1      -0.770   1.602  -1.227  0.00  0.00    +0.019 C 
ATOM     29  C   UNL     1      -0.013   1.086   0.008  0.00  0.00    +0.028 C 
ATOM     30  C   UNL     1      -0.754   1.594   1.277  0.00  0.00    +0.166 C 
ATOM     31  S   UNL     1      -1.173   3.312   0.758  0.00  0.00    -0.031 S 
ATOM     32  O   UNL     1      -0.138   4.188   1.183  0.00  0.00    -0.174 OA
ATOM     33  O   UNL     1      -2.518   3.590   1.121  0.00  0.00    -0.174 OA
ATOM     34  C   UNL     1      -1.074   3.111  -1.067  0.00  0.00    +0.170 C 
ENDBRANCH  27  28
ENDBRANCH  23  27
ENDBRANCH  20  26
ENDBRANCH  19  20
ENDBRANCH   1  19
TORSDOF 7
