REMARK  Name = ZINC64435101
REMARK  3 active torsions:
REMARK  status: ('A' for Active; 'I' for Inactive)
REMARK    1  A    between atoms: C_3  and  C_6
REMARK    2  A    between atoms: C_8  and  C_12
REMARK    3  A    between atoms: C_16  and  C_21
REMARK                            x       y       z     vdW  Elec       q    Type
REMARK                         _______ _______ _______ _____ _____    ______ ____
ROOT
ATOM      1  C   UNL     1       6.831   1.870  -1.317  0.00  0.00    +0.182 C 
ATOM      2  N   UNL     1       8.031   2.749  -1.291  0.00  0.00    -0.265 N 
ATOM      3  N   UNL     1       9.151   2.180  -0.763  0.00  0.00    -0.218 N 
ATOM      4  C   UNL     1      10.345   2.608  -0.210  0.00  0.00    +0.237 A 
ATOM      5  N   UNL     1      11.054   1.557   0.077  0.00  0.00    -0.124 NA
ATOM      6  N   UNL     1      10.406   0.489  -0.232  0.00  0.00    -0.121 NA
ATOM      7  C   UNL     1       9.251   0.812  -0.722  0.00  0.00    +0.211 A 
ATOM      8  S   UNL     1       7.691   0.238  -1.364  0.00  0.00    -0.058 S 
ATOM      9  H   UNL     1       8.217   3.134  -2.205  0.00  0.00    +0.168 HD
ENDROOT
BRANCH   1  12
ATOM     10  C   UNL     1       3.739   1.825  -0.025  0.00  0.00    +0.098 C 
ATOM     11  C   UNL     1       4.837   1.040  -0.045  0.00  0.00    +0.034 C 
ATOM     12  C   UNL     1       5.990   2.028  -0.049  0.00  0.00    +0.185 C 
ATOM     13  N   UNL     1       5.313   3.335  -0.029  0.00  0.00    -0.177 NA
ATOM     14  N   UNL     1       4.097   3.137  -0.022  0.00  0.00    -0.153 NA
BRANCH  10  17
ATOM     15  C   UNL     1      -0.016   1.354   0.009  0.00  0.00    +0.008 A 
ATOM     16  C   UNL     1       1.177   2.041   0.002  0.00  0.00    +0.018 A 
ATOM     17  C   UNL     1       2.347   1.329  -0.013  0.00  0.00    +0.039 A 
ATOM     18  S   UNL     1       1.752  -0.354  -0.017  0.00  0.00    -0.095 S 
ATOM     19  C   UNL     1       0.002  -0.004   0.002  0.00  0.00    +0.046 A 
ENDBRANCH  10  17
ENDBRANCH   1  12
BRANCH   4  20
ATOM     20  C   UNL     1      10.751   4.041   0.019  0.00  0.00    +0.384 C 
ATOM     21  F   UNL     1      12.127   4.101   0.267  0.00  0.00    -0.179 F 
ATOM     22  F   UNL     1      10.450   4.798  -1.118  0.00  0.00    -0.179 F 
ATOM     23 CL   UNL     1       9.854   4.701   1.436  0.00  0.00    -0.039 Cl
ENDBRANCH   4  20
TORSDOF 3
