REMARK  Name = ZINC09074773
REMARK  5 active torsions:
REMARK  status: ('A' for Active; 'I' for Inactive)
REMARK    1  A    between atoms: C_1  and  C_2
REMARK    2  A    between atoms: C_5  and  N_9
REMARK    3  A    between atoms: C_6  and  C_8
REMARK    4  A    between atoms: N_20  and  C_21
REMARK    5  A    between atoms: C_21  and  C_22
REMARK                            x       y       z     vdW  Elec       q    Type
REMARK                         _______ _______ _______ _____ _____    ______ ____
ROOT
ATOM      1  N   UNL     1       0.059  -4.168  -0.021  0.00  0.00    -0.297 N 
ATOM      2  C   UNL     1      -0.043  -4.852  -1.214  0.00  0.00    +0.156 A 
ATOM      3  C   UNL     1      -0.141  -6.313  -1.243  0.00  0.00    +0.148 A 
ATOM      4  C   UNL     1      -0.243  -6.944  -2.508  0.00  0.00    +0.185 A 
ATOM      5  N   UNL     1      -0.334  -8.274  -2.572  0.00  0.00    -0.233 NA
ATOM      6  C   UNL     1      -0.328  -8.980  -1.460  0.00  0.00    +0.133 A 
ATOM      7  C   UNL     1      -0.228  -8.354  -0.218  0.00  0.00    +0.131 A 
ATOM      8  N   UNL     1      -0.137  -7.043  -0.133  0.00  0.00    -0.247 NA
ATOM      9  N   UNL     1      -0.244  -6.180  -3.608  0.00  0.00    -0.193 NA
ATOM     10  C   UNL     1      -0.153  -4.868  -3.525  0.00  0.00    +0.219 A 
ATOM     11  N   UNL     1      -0.060  -4.210  -2.373  0.00  0.00    -0.197 NA
ATOM     12  N   UNL     1      -0.159  -4.136  -4.697  0.00  0.00    -0.306 N 
ATOM     13  H   UNL     1      -0.030  -4.644   0.820  0.00  0.00    +0.154 HD
ATOM     14  H   UNL     1      -0.093  -3.169  -4.666  0.00  0.00    +0.149 HD
ENDROOT
BRANCH   1  19
ATOM     15  C   UNL     1       0.991   1.426  -0.032  0.00  0.00    +0.044 C 
ATOM     16  C   UNL     1       0.743  -0.060  -0.029  0.00  0.00    -0.050 A 
ATOM     17  C   UNL     1       1.152  -0.830  -1.103  0.00  0.00    +0.005 A 
ATOM     18  C   UNL     1       0.927  -2.192  -1.103  0.00  0.00    +0.024 A 
ATOM     19  C   UNL     1       0.289  -2.790  -0.024  0.00  0.00    +0.035 A 
ATOM     20  C   UNL     1      -0.120  -2.014   1.053  0.00  0.00    -0.029 A 
ATOM     21  C   UNL     1       0.113  -0.652   1.050  0.00  0.00    +0.008 A 
ATOM     22  C   UNL     1      -0.813  -2.657   2.227  0.00  0.00    +0.045 C 
ENDBRANCH   1  19
BRANCH  12  23
ATOM     23  C   UNL     1      -0.266  -4.822  -5.988  0.00  0.00    +0.178 C 
BRANCH  23  24
ATOM     24  C   UNL     1      -0.250  -3.805  -7.100  0.00  0.00    +0.122 A 
ATOM     25  C   UNL     1       0.845  -3.350  -7.735  0.00  0.00    +0.046 A 
ATOM     26  C   UNL     1       0.401  -2.415  -8.698  0.00  0.00    +0.041 A 
ATOM     27  C   UNL     1      -0.939  -2.355  -8.594  0.00  0.00    +0.195 A 
ATOM     28  O   UNL     1      -1.328  -3.203  -7.628  0.00  0.00    -0.466 OA
ENDBRANCH  23  24
ENDBRANCH  12  23
TORSDOF 3
