REMARK  Name = ZINC18764617
REMARK  12 active torsions:
REMARK  status: ('A' for Active; 'I' for Inactive)
REMARK    1  A    between atoms: C_1  and  C_2
REMARK    2  A    between atoms: C_6  and  C_31
REMARK    3  A    between atoms: C_7  and  O_8
REMARK    4  A    between atoms: O_8  and  C_9
REMARK    5  A    between atoms: C_9  and  C_10
REMARK    6  A    between atoms: C_13  and  S_16
REMARK    7  A    between atoms: N_14  and  N_15
REMARK    8  A    between atoms: S_16  and  C_17
REMARK    9  A    between atoms: C_17  and  C_19
REMARK   10  A    between atoms: C_17  and  C_20
REMARK   11  A    between atoms: N_22  and  C_23
REMARK   12  A    between atoms: C_23  and  C_24
REMARK                            x       y       z     vdW  Elec       q    Type
REMARK                         _______ _______ _______ _____ _____    ______ ____
ROOT
ATOM      1  C   UNL     1       2.537   8.163   0.899  0.00  0.00    +0.189 A 
ATOM      2  N   UNL     1       1.340   7.857   0.487  0.00  0.00    -0.128 NA
ATOM      3  N   UNL     1       1.238   6.585   0.332  0.00  0.00    -0.121 NA
ATOM      4  C   UNL     1       2.375   6.006   0.639  0.00  0.00    +0.209 A 
ATOM      5  N   UNL     1       3.238   6.995   1.016  0.00  0.00    -0.225 N 
ENDROOT
BRANCH   5   6
ATOM      6  N   UNL     1       4.534   6.848   1.423  0.00  0.00    -0.295 N 
ATOM      7  H   UNL     1       5.167   6.896   0.639  0.00  0.00    +0.163 HD
ATOM      8  H   UNL     1       4.773   7.533   2.124  0.00  0.00    +0.163 HD
ENDBRANCH   5   6
BRANCH   1   9
ATOM      9  C   UNL     1       3.053   9.548   1.197  0.00  0.00    +0.306 C 
BRANCH   9  10
ATOM     10  O   UNL     1       2.807   9.862   2.569  0.00  0.00    -0.484 OA
BRANCH  10  17
ATOM     11  C   UNL     1       5.423  10.067   3.617  0.00  0.00    +0.047 C 
ATOM     12  C   UNL     1       4.488  11.245   3.529  0.00  0.00    -0.009 A 
ATOM     13  C   UNL     1       4.901  12.489   3.966  0.00  0.00    +0.007 A 
ATOM     14  C   UNL     1       4.042  13.570   3.890  0.00  0.00    +0.001 A 
ATOM     15  C   UNL     1       2.770  13.410   3.373  0.00  0.00    +0.007 A 
ATOM     16  C   UNL     1       2.354  12.170   2.929  0.00  0.00    -0.009 A 
ATOM     17  C   UNL     1       3.214  11.084   3.004  0.00  0.00    +0.127 A 
ATOM     18  C   UNL     1       0.967  11.996   2.365  0.00  0.00    +0.047 C 
ENDBRANCH  10  17
ENDBRANCH   9  10
ENDBRANCH   1   9
BRANCH   4  19
ATOM     19  S   UNL     1       2.720   4.279   0.583  0.00  0.00    -0.072 S 
BRANCH  19  20
ATOM     20  C   UNL     1       1.120   3.657   0.011  0.00  0.00    +0.137 C 
ATOM     21  C   UNL     1       0.849   4.171  -1.404  0.00  0.00    +0.029 C 
BRANCH  20  22
ATOM     22  C   UNL     1       1.140   2.151   0.003  0.00  0.00    +0.226 C 
ATOM     23  O   UNL     1       2.199   1.558  -0.011  0.00  0.00    -0.275 OA
ATOM     24  N   UNL     1      -0.018   1.461   0.010  0.00  0.00    -0.310 N 
ATOM     25  H   UNL     1      -0.864   1.934   0.017  0.00  0.00    +0.149 HD
BRANCH  24  26
ATOM     26  C   UNL     1       0.002  -0.004   0.002  0.00  0.00    +0.139 C 
BRANCH  26  27
ATOM     27  C   UNL     1      -1.412  -0.526   0.013  0.00  0.00    -0.030 A 
ATOM     28  C   UNL     1      -2.046  -0.777   1.215  0.00  0.00    +0.006 A 
ATOM     29  C   UNL     1      -3.345  -1.250   1.225  0.00  0.00    +0.020 A 
ATOM     30  C   UNL     1      -4.006  -1.483   0.032  0.00  0.00    +0.041 A 
ATOM     31  C   UNL     1      -3.368  -1.237  -1.171  0.00  0.00    +0.020 A 
ATOM     32  C   UNL     1      -2.071  -0.758  -1.180  0.00  0.00    +0.006 A 
ATOM     33 CL   UNL     1      -5.635  -2.083   0.045  0.00  0.00    -0.084 Cl
ENDBRANCH  26  27
ENDBRANCH  24  26
ENDBRANCH  20  22
ENDBRANCH  19  20
ENDBRANCH   4  19
TORSDOF 9
