REMARK  Name = ZINC56541095
REMARK  9 active torsions:
REMARK  status: ('A' for Active; 'I' for Inactive)
REMARK    1  A    between atoms: C_1  and  C_2
REMARK    2  A    between atoms: C_2  and  C_27
REMARK    3  A    between atoms: C_4  and  N_10
REMARK    4  A    between atoms: C_6  and  C_8
REMARK    5  A    between atoms: C_6  and  C_9
REMARK    6  A    between atoms: N_13  and  C_14
REMARK    7  A    between atoms: N_13  and  C_20
REMARK    8  A    between atoms: C_14  and  C_15
REMARK    9  A    between atoms: C_20  and  C_21
REMARK                            x       y       z     vdW  Elec       q    Type
REMARK                         _______ _______ _______ _____ _____    ______ ____
ROOT
ATOM      1  N   UNL     1       2.615  -0.819  -2.626  0.00  0.00    -0.296 N 
ATOM      2  C   UNL     1       3.770  -0.334  -3.123  0.00  0.00    +0.303 C 
ATOM      3  O   UNL     1       4.376   0.532  -2.522  0.00  0.00    -0.253 OA
ATOM      4  N   UNL     1       4.255  -0.809  -4.288  0.00  0.00    -0.276 N 
ATOM      5  H   UNL     1       2.133  -1.510  -3.106  0.00  0.00    +0.151 HD
ENDROOT
BRANCH   1   9
ATOM      6  C   UNL     1      -0.019   1.528   0.010  0.00  0.00    -0.010 C 
ATOM      7  C   UNL     1       0.002  -0.004   0.002  0.00  0.00    -0.072 C 
ATOM      8  C   UNL     1       0.573  -0.505  -1.321  0.00  0.00    +0.009 C 
ATOM      9  C   UNL     1       2.088  -0.301  -1.357  0.00  0.00    +0.072 C 
ATOM     10  C   UNL     1       2.703  -1.086  -0.198  0.00  0.00    +0.009 C 
ATOM     11  C   UNL     1       2.147  -0.590   1.133  0.00  0.00    -0.072 C 
ATOM     12  N   UNL     1       0.697  -0.529   1.164  0.00  0.00    +0.386 N 
ATOM     13  C   UNL     1       2.769   0.766   1.481  0.00  0.00    -0.010 C 
ATOM     14  C   UNL     1       2.600  -1.589   2.223  0.00  0.00    -0.010 C 
ATOM     15  C   UNL     1      -1.468  -0.478   0.079  0.00  0.00    -0.010 C 
ATOM     16  H   UNL     1       0.416   0.021   1.982  0.00  0.00    -0.084 HD
ATOM     17  H   UNL     1       0.341  -1.472   1.351  0.00  0.00    -0.084 HD
ENDBRANCH   1   9
BRANCH   4  18
ATOM     18  C   UNL     1       3.525  -1.853  -5.013  0.00  0.00    +0.183 C 
BRANCH  18  19
ATOM     19  C   UNL     1       2.552  -1.214  -5.969  0.00  0.00    +0.122 A 
ATOM     20  C   UNL     1       2.808  -0.880  -7.247  0.00  0.00    +0.046 A 
ATOM     21  C   UNL     1       1.623  -0.313  -7.768  0.00  0.00    +0.041 A 
ATOM     22  C   UNL     1       0.713  -0.333  -6.777  0.00  0.00    +0.195 A 
ATOM     23  O   UNL     1       1.279  -0.885  -5.692  0.00  0.00    -0.466 OA
ENDBRANCH  18  19
ENDBRANCH   4  18
BRANCH   4  24
ATOM     24  C   UNL     1       5.510  -0.282  -4.829  0.00  0.00    +0.141 C 
BRANCH  24  25
ATOM     25  C   UNL     1       6.681  -1.111  -4.299  0.00  0.00    +0.136 C 
ATOM     26  C   UNL     1       8.016  -0.491  -4.766  0.00  0.00    +0.035 C 
ATOM     27  C   UNL     1       8.867  -1.748  -5.093  0.00  0.00    +0.031 C 
ATOM     28  C   UNL     1       7.776  -2.711  -5.627  0.00  0.00    +0.160 C 
ATOM     29  O   UNL     1       6.613  -2.442  -4.825  0.00  0.00    -0.375 OA
ENDBRANCH  24  25
ENDBRANCH   4  24
TORSDOF 5
