REMARK  Name = ZINC67438248
REMARK  7 active torsions:
REMARK  status: ('A' for Active; 'I' for Inactive)
REMARK    1  A    between atoms: C_1  and  C_2
REMARK    2  A    between atoms: C_5  and  C_29
REMARK    3  A    between atoms: N_8  and  C_10
REMARK    4  A    between atoms: C_10  and  C_11
REMARK    5  A    between atoms: C_11  and  C_13
REMARK    6  A    between atoms: C_11  and  N_14
REMARK    7  A    between atoms: C_15  and  C_17
REMARK                            x       y       z     vdW  Elec       q    Type
REMARK                         _______ _______ _______ _____ _____    ______ ____
ROOT
ATOM      1  N   UNL     1       3.510  -2.495   0.951  0.00  0.00    -0.307 N 
ATOM      2  C   UNL     1       4.540  -1.852   0.365  0.00  0.00    +0.299 C 
ATOM      3  O   UNL     1       5.038  -0.886   0.905  0.00  0.00    -0.265 OA
ATOM      4  H   UNL     1       3.112  -3.266   0.519  0.00  0.00    +0.149 HD
ENDROOT
BRANCH   2   5
ATOM      5  C   UNL     1       5.067  -2.327  -0.949  0.00  0.00    +0.305 C 
ATOM      6  O   UNL     1       4.569  -3.293  -1.489  0.00  0.00    -0.265 OA
ATOM      7  N   UNL     1       6.097  -1.684  -1.535  0.00  0.00    -0.257 N 
ATOM      8  C   UNL     1       6.585  -2.125  -2.752  0.00  0.00    +0.166 A 
ATOM      9  N   UNL     1       6.179  -3.135  -3.485  0.00  0.00    -0.225 NA
ATOM     10  C   UNL     1       6.754  -3.454  -4.664  0.00  0.00    +0.080 A 
ATOM     11  C   UNL     1       6.416  -4.508  -5.545  0.00  0.00    +0.029 A 
ATOM     12  C   UNL     1       7.108  -4.695  -6.712  0.00  0.00    +0.002 A 
ATOM     13  C   UNL     1       8.159  -3.864  -7.073  0.00  0.00    +0.001 A 
ATOM     14  C   UNL     1       8.517  -2.823  -6.237  0.00  0.00    +0.017 A 
ATOM     15  C   UNL     1       7.829  -2.628  -5.065  0.00  0.00    +0.041 A 
ATOM     16  S   UNL     1       7.925  -1.460  -3.730  0.00  0.00    -0.052 S 
ATOM     17  H   UNL     1       6.495  -0.913  -1.103  0.00  0.00    +0.157 HD
ENDBRANCH   2   5
BRANCH   1  18
ATOM     18  C   UNL     1       2.993  -2.028   2.239  0.00  0.00    +0.054 C 
ATOM     19  C   UNL     1       3.825  -2.634   3.372  0.00  0.00    +0.026 C 
BRANCH  18  20
ATOM     20  C   UNL     1       1.534  -2.461   2.390  0.00  0.00    -0.057 C 
BRANCH  20  26
ATOM     21  C   UNL     1      -0.019   1.526   0.010  0.00  0.00    +0.005 C 
ATOM     22  C   UNL     1       0.002  -0.004   0.002  0.00  0.00    -0.031 C 
ATOM     23  C   UNL     1      -1.434  -0.535   0.015  0.00  0.00    +0.003 C 
ATOM     24  C   UNL     1      -1.402  -2.064   0.086  0.00  0.00    -0.031 C 
ATOM     25  C   UNL     1      -0.613  -2.496   1.324  0.00  0.00    -0.076 C 
ATOM     26  N   UNL     1       0.758  -1.980   1.239  0.00  0.00    +0.381 N 
ATOM     27  C   UNL     1       0.740  -0.512   1.242  0.00  0.00    -0.076 C 
ATOM     28  C   UNL     1      -2.832  -2.602   0.177  0.00  0.00    +0.005 C 
ATOM     29  H   UNL     1       1.188  -2.307   0.386  0.00  0.00    -0.082 HD
ENDBRANCH  20  26
ENDBRANCH  18  20
ENDBRANCH   1  18
TORSDOF 4
