REMARK  Name = ZINC12381694
REMARK  7 active torsions:
REMARK  status: ('A' for Active; 'I' for Inactive)
REMARK    1  A    between atoms: C_1  and  C_2
REMARK    2  A    between atoms: C_2  and  C_3
REMARK    3  A    between atoms: C_2  and  C_4
REMARK    4  A    between atoms: C_2  and  C_5
REMARK    5  A    between atoms: C_8  and  C_11
REMARK    6  A    between atoms: C_23  and  C_28
REMARK    7  A    between atoms: C_28  and  C_30
REMARK                            x       y       z     vdW  Elec       q    Type
REMARK                         _______ _______ _______ _____ _____    ______ ____
ROOT
ATOM      1  C   UNL     1       2.649   4.423   1.267  0.00  0.00    +0.136 C 
ATOM      2  C   UNL     1       2.909   4.216  -0.205  0.00  0.00    +0.036 C 
ATOM      3  C   UNL     1       2.794   5.151  -1.164  0.00  0.00    +0.017 C 
ATOM      4  C   UNL     1       3.099   4.811  -2.613  0.00  0.00    +0.051 C 
ATOM      5  C   UNL     1       2.745   3.352  -2.893  0.00  0.00    +0.014 C 
ATOM      6  C   UNL     1       3.583   2.479  -1.951  0.00  0.00    +0.080 C 
ATOM      7  C   UNL     1       3.302   2.898  -0.539  0.00  0.00    +0.163 C 
ATOM      8  O   UNL     1       3.416   2.077   0.350  0.00  0.00    -0.292 OA
ATOM      9  N   UNL     1       2.429   6.439  -0.946  0.00  0.00    -0.316 N 
ATOM     10  C   UNL     1       1.358   6.840  -0.154  0.00  0.00    +0.053 A 
ATOM     11  C   UNL     1       0.257   7.484  -0.677  0.00  0.00    +0.036 A 
ATOM     12  C   UNL     1      -0.764   7.904   0.185  0.00  0.00    +0.024 A 
ATOM     13  C   UNL     1      -0.658   7.668   1.561  0.00  0.00    +0.013 A 
ATOM     14  C   UNL     1       0.439   7.006   2.069  0.00  0.00    +0.025 A 
ATOM     15  C   UNL     1       1.439   6.572   1.208  0.00  0.00    +0.049 A 
ATOM     16  N   UNL     1       2.499   5.806   1.662  0.00  0.00    -0.331 N 
ATOM     17  H   UNL     1       2.954   7.133  -1.374  0.00  0.00    +0.152 HD
ATOM     18  H   UNL     1       3.152   6.206   2.259  0.00  0.00    +0.147 HD
ENDROOT
BRANCH   1  22
ATOM     19  C   UNL     1      -0.920   2.321   2.312  0.00  0.00    -0.042 A 
ATOM     20  C   UNL     1       0.287   1.958   2.880  0.00  0.00    +0.004 A 
ATOM     21  C   UNL     1       1.442   2.637   2.541  0.00  0.00    +0.006 A 
ATOM     22  C   UNL     1       1.389   3.682   1.638  0.00  0.00    -0.023 A 
ATOM     23  C   UNL     1       0.181   4.049   1.074  0.00  0.00    +0.006 A 
ATOM     24  C   UNL     1      -0.974   3.369   1.413  0.00  0.00    +0.004 A 
BRANCH  19  26
ATOM     25  C   UNL     1      -2.426   1.700   4.182  0.00  0.00    +0.015 C 
ATOM     26  C   UNL     1      -2.179   1.576   2.677  0.00  0.00    -0.013 C 
ATOM     27  C   UNL     1      -3.363   2.173   1.915  0.00  0.00    +0.015 C 
ATOM     28  C   UNL     1      -2.024   0.100   2.305  0.00  0.00    +0.015 C 
ENDBRANCH  19  26
ENDBRANCH   1  22
BRANCH  12  29
ATOM     29  C   UNL     1      -1.950   8.592  -0.355  0.00  0.00    +0.193 C 
ATOM     30  O   UNL     1      -1.833   9.361  -1.290  0.00  0.00    -0.287 OA
BRANCH  29  31
ATOM     31  C   UNL     1      -3.282   8.346   0.238  0.00  0.00    +0.022 A 
ATOM     32  C   UNL     1      -3.449   7.344   1.196  0.00  0.00    +0.012 A 
ATOM     33  C   UNL     1      -4.693   7.125   1.750  0.00  0.00    +0.001 A 
ATOM     34  C   UNL     1      -5.776   7.887   1.349  0.00  0.00    +0.000 A 
ATOM     35  C   UNL     1      -5.619   8.878   0.396  0.00  0.00    +0.001 A 
ATOM     36  C   UNL     1      -4.379   9.112  -0.162  0.00  0.00    +0.012 A 
ENDBRANCH  29  31
ENDBRANCH  12  29
TORSDOF 4
