REMARK  Name = ZINC14721656
REMARK  11 active torsions:
REMARK  status: ('A' for Active; 'I' for Inactive)
REMARK    1  A    between atoms: C_1  and  C_2
REMARK    2  A    between atoms: C_2  and  C_3
REMARK    3  A    between atoms: C_2  and  C_4
REMARK    4  A    between atoms: C_4  and  N_5
REMARK    5  A    between atoms: C_6  and  N_29
REMARK    6  A    between atoms: C_7  and  N_14
REMARK    7  A    between atoms: N_14  and  C_15
REMARK    8  A    between atoms: C_15  and  C_16
REMARK    9  A    between atoms: C_16  and  O_17
REMARK   10  A    between atoms: O_17  and  C_18
REMARK   11  A    between atoms: C_19  and  C_21
REMARK                            x       y       z     vdW  Elec       q    Type
REMARK                         _______ _______ _______ _____ _____    ______ ____
ROOT
ATOM      1  N   UNL     1       2.044  -0.372   0.094  0.00  0.00    -0.280 N 
ATOM      2  C   UNL     1       1.692  -0.925   1.303  0.00  0.00    +0.127 A 
ATOM      3  C   UNL     1       0.562  -1.713   1.380  0.00  0.00    +0.140 A 
ATOM      4  C   UNL     1      -0.198  -1.927   0.214  0.00  0.00    +0.277 A 
ATOM      5  O   UNL     1      -1.201  -2.619   0.254  0.00  0.00    -0.266 OA
ATOM      6  N   UNL     1       0.191  -1.361  -0.945  0.00  0.00    -0.273 N 
ATOM      7  H   UNL     1      -0.346  -1.516  -1.775  0.00  0.00    +0.173 HD
ATOM      8  C   UNL     1       1.292  -0.592  -1.000  0.00  0.00    +0.331 A 
ATOM      9  O   UNL     1       1.618  -0.090  -2.059  0.00  0.00    -0.246 OA
ENDROOT
BRANCH   3  10
ATOM     10  N   UNL     1       0.174  -2.294   2.605  0.00  0.00    -0.258 N 
ATOM     11  C   UNL     1      -0.105  -1.509   3.665  0.00  0.00    +0.253 C 
ATOM     12  O   UNL     1      -0.417  -2.011   4.728  0.00  0.00    -0.270 OA
BRANCH  11  13
ATOM     13  C   UNL     1      -0.033  -0.039   3.534  0.00  0.00    +0.057 A 
ATOM     14  C   UNL     1      -0.306   0.571   2.308  0.00  0.00    +0.014 A 
ATOM     15  C   UNL     1      -0.237   1.943   2.193  0.00  0.00    +0.002 A 
ATOM     16  C   UNL     1       0.101   2.718   3.288  0.00  0.00    +0.021 A 
ATOM     17  C   UNL     1       0.373   2.122   4.508  0.00  0.00    +0.060 A 
ATOM     18  C   UNL     1       0.303   0.748   4.639  0.00  0.00    +0.071 A 
ATOM     19 CL   UNL     1       0.638   0.001   6.170  0.00  0.00    -0.081 Cl
ATOM     20 CL   UNL     1       0.797   3.103   5.876  0.00  0.00    -0.082 Cl
ENDBRANCH  11  13
BRANCH  10  21
ATOM     21  C   UNL     1       0.076  -3.751   2.727  0.00  0.00    +0.142 C 
BRANCH  21  22
ATOM     22  C   UNL     1       1.372  -4.302   3.323  0.00  0.00    +0.179 C 
BRANCH  22  23
ATOM     23  O   UNL     1       1.524  -3.820   4.660  0.00  0.00    -0.381 OA
ATOM     24  C   UNL     1       2.710  -4.279   5.312  0.00  0.00    +0.194 C 
ENDBRANCH  22  23
ENDBRANCH  21  22
ENDBRANCH  10  21
ENDBRANCH   3  10
BRANCH   2  25
ATOM     25  N   UNL     1       2.457  -0.695   2.422  0.00  0.00    -0.343 N 
ATOM     26  H   UNL     1       3.169  -0.037   2.396  0.00  0.00    +0.144 HD
ATOM     27  H   UNL     1       2.285  -1.191   3.237  0.00  0.00    +0.144 HD
ENDBRANCH   2  25
BRANCH   1  28
ATOM     28  C   UNL     1       3.241   0.467  -0.002  0.00  0.00    +0.131 C 
BRANCH  28  30
ATOM     29  C   UNL     1       5.676   0.482  -0.561  0.00  0.00    +0.009 C 
ATOM     30  C   UNL     1       4.451  -0.407  -0.338  0.00  0.00    +0.003 C 
ATOM     31  C   UNL     1       4.723  -1.369   0.820  0.00  0.00    +0.009 C 
ENDBRANCH  28  30
ENDBRANCH   1  28
TORSDOF 8
