REMARK  Name = ZINC35758143
REMARK  14 active torsions:
REMARK  status: ('A' for Active; 'I' for Inactive)
REMARK    1  A    between atoms: C_1  and  C_2
REMARK    2  A    between atoms: N_5  and  C_8
REMARK    3  A    between atoms: C_9  and  C_19
REMARK    4  A    between atoms: C_10  and  C_13
REMARK    5  A    between atoms: C_19  and  N_20
REMARK    6  A    between atoms: N_20  and  C_21
REMARK    7  A    between atoms: N_20  and  C_27
REMARK    8  A    between atoms: C_21  and  C_22
REMARK    9  A    between atoms: C_27  and  C_28
REMARK   10  A    between atoms: C_28  and  C_30
REMARK   11  A    between atoms: C_28  and  O_39
REMARK   12  A    between atoms: C_30  and  O_31
REMARK   13  A    between atoms: O_31  and  C_32
REMARK   14  A    between atoms: C_32  and  C_33
REMARK                            x       y       z     vdW  Elec       q    Type
REMARK                         _______ _______ _______ _____ _____    ______ ____
ROOT
ATOM      1  N   UNL     1       2.109  -5.121   3.051  0.00  0.00    +0.389 N 
ATOM      2  H   UNL     1       2.279  -6.096   3.247  0.00  0.00    -0.081 HD
ENDROOT
BRANCH   1   3
ATOM      3  C   UNL     1       3.301  -4.532   2.427  0.00  0.00    -0.035 C 
BRANCH   3   5
ATOM      4  C   UNL     1       4.170  -6.739   1.485  0.00  0.00    +0.222 A 
ATOM      5  C   UNL     1       3.799  -5.443   1.335  0.00  0.00    +0.025 A 
ATOM      6  C   UNL     1       3.961  -5.098  -0.023  0.00  0.00    +0.117 A 
ATOM      7  N   UNL     1       4.413  -6.155  -0.658  0.00  0.00    -0.076 NA
ATOM      8  O   UNL     1       4.556  -7.203   0.284  0.00  0.00    -0.339 OA
BRANCH   4  13
ATOM      9  C   UNL     1       5.029 -11.075   4.730  0.00  0.00    +0.007 C 
ATOM     10  C   UNL     1       4.572  -9.652   4.402  0.00  0.00    -0.011 C 
ATOM     11  C   UNL     1       5.761  -8.843   3.878  0.00  0.00    +0.022 C 
ATOM     12  C   UNL     1       5.307  -7.410   3.582  0.00  0.00    +0.108 C 
ATOM     13  N   UNL     1       4.158  -7.457   2.667  0.00  0.00    -0.299 N 
ATOM     14  C   UNL     1       2.997  -8.280   3.032  0.00  0.00    +0.108 C 
ATOM     15  C   UNL     1       3.477  -9.703   3.334  0.00  0.00    +0.022 C 
ENDBRANCH   4  13
BRANCH   6  16
ATOM     16  C   UNL     1       3.671  -3.774  -0.629  0.00  0.00    +0.004 A 
ATOM     17  C   UNL     1       2.562  -3.041  -0.210  0.00  0.00    +0.010 A 
ATOM     18  C   UNL     1       2.298  -1.810  -0.775  0.00  0.00    +0.001 A 
ATOM     19  C   UNL     1       3.131  -1.304  -1.757  0.00  0.00    +0.000 A 
ATOM     20  C   UNL     1       4.232  -2.027  -2.176  0.00  0.00    +0.001 A 
ATOM     21  C   UNL     1       4.509  -3.257  -1.613  0.00  0.00    +0.010 A 
ENDBRANCH   6  16
ENDBRANCH   3   5
ENDBRANCH   1   3
BRANCH   1  22
ATOM     22  C   UNL     1       0.966  -4.998   2.136  0.00  0.00    -0.003 C 
BRANCH  22  23
ATOM     23  C   UNL     1       1.089  -6.022   1.037  0.00  0.00    +0.089 A 
ATOM     24  C   UNL     1       0.737  -7.317   1.126  0.00  0.00    +0.042 A 
ATOM     25  C   UNL     1       1.022  -7.905  -0.128  0.00  0.00    +0.041 A 
ATOM     26  C   UNL     1       1.531  -6.934  -0.907  0.00  0.00    +0.195 A 
ATOM     27  O   UNL     1       1.564  -5.794  -0.198  0.00  0.00    -0.470 OA
ENDBRANCH  22  23
ENDBRANCH   1  22
BRANCH   1  28
ATOM     28  C   UNL     1       1.811  -4.414   4.304  0.00  0.00    -0.044 C 
BRANCH  28  29
ATOM     29  C   UNL     1       0.808  -5.228   5.123  0.00  0.00    +0.124 C 
BRANCH  29  30
ATOM     30  O   UNL     1      -0.457  -5.234   4.458  0.00  0.00    -0.391 OA
ATOM     31  H   UNL     1      -0.839  -4.355   4.331  0.00  0.00    +0.210 HD
ENDBRANCH  29  30
BRANCH  29  32
ATOM     32  C   UNL     1       0.652  -4.599   6.509  0.00  0.00    +0.189 C 
BRANCH  32  33
ATOM     33  O   UNL     1      -0.194  -5.423   7.314  0.00  0.00    -0.373 OA
BRANCH  33  34
ATOM     34  C   UNL     1      -0.407  -4.923   8.635  0.00  0.00    +0.195 C 
BRANCH  34  35
ATOM     35  C   UNL     1      -1.308  -5.865   9.390  0.00  0.00    -0.022 A 
ATOM     36  C   UNL     1      -2.679  -5.693   9.348  0.00  0.00    +0.006 A 
ATOM     37  C   UNL     1      -3.506  -6.557  10.041  0.00  0.00    +0.000 A 
ATOM     38  C   UNL     1      -2.962  -7.594  10.775  0.00  0.00    +0.000 A 
ATOM     39  C   UNL     1      -1.592  -7.767  10.816  0.00  0.00    +0.000 A 
ATOM     40  C   UNL     1      -0.765  -6.905  10.120  0.00  0.00    +0.006 A 
ENDBRANCH  34  35
ENDBRANCH  33  34
ENDBRANCH  32  33
ENDBRANCH  29  32
ENDBRANCH  28  29
ENDBRANCH   1  28
TORSDOF 13
