REMARK  Name = ZINC50530587
REMARK  4 active torsions:
REMARK  status: ('A' for Active; 'I' for Inactive)
REMARK    1  A    between atoms: C_1  and  C_2
REMARK    2  A    between atoms: C_2  and  C_4
REMARK    3  A    between atoms: C_2  and  N_10
REMARK    4  A    between atoms: N_8  and  C_9
REMARK                            x       y       z     vdW  Elec       q    Type
REMARK                         _______ _______ _______ _____ _____    ______ ____
ROOT
ATOM      1  N   UNL     1      -1.372  -0.511   0.012  0.00  0.00    -0.318 N 
ATOM      2  C   UNL     1      -2.047  -0.659   1.214  0.00  0.00    +0.150 A 
ATOM      3  C   UNL     1      -3.372  -1.153   1.239  0.00  0.00    +0.027 A 
ATOM      4  C   UNL     1      -4.067  -1.515   0.081  0.00  0.00    +0.012 A 
ATOM      5  C   UNL     1      -5.344  -1.984   0.185  0.00  0.00    +0.001 A 
ATOM      6  C   UNL     1      -5.964  -2.108   1.426  0.00  0.00    +0.001 A 
ATOM      7  C   UNL     1      -5.315  -1.764   2.574  0.00  0.00    +0.011 A 
ATOM      8  C   UNL     1      -4.003  -1.279   2.504  0.00  0.00    +0.024 A 
ATOM      9  C   UNL     1      -3.267  -0.904   3.644  0.00  0.00    +0.159 A 
ATOM     10  N   UNL     1      -2.040  -0.458   3.494  0.00  0.00    -0.135 NA
ATOM     11  N   UNL     1      -1.463  -0.347   2.357  0.00  0.00    -0.132 NA
ATOM     12 CL   UNL     1      -3.971  -1.029   5.227  0.00  0.00    -0.059 Cl
ATOM     13  H   UNL     1      -1.810  -0.743  -0.822  0.00  0.00    +0.148 HD
ENDROOT
BRANCH   1  15
ATOM     14  C   UNL     1      -0.019   1.526   0.010  0.00  0.00    +0.036 C 
ATOM     15  C   UNL     1       0.002  -0.004   0.002  0.00  0.00    +0.137 C 
BRANCH  15  16
ATOM     16  C   UNL     1       0.707  -0.490  -1.238  0.00  0.00    +0.153 A 
ATOM     17  N   UNL     1       0.229  -0.486  -2.452  0.00  0.00    -0.133 NA
ATOM     18  N   UNL     1       1.101  -0.972  -3.263  0.00  0.00    -0.138 NA
ATOM     19  C   UNL     1       2.175  -1.307  -2.603  0.00  0.00    +0.224 A 
ATOM     20  N   UNL     1       1.958  -1.007  -1.300  0.00  0.00    -0.319 N 
ATOM     21  C   UNL     1       2.887  -1.203  -0.183  0.00  0.00    +0.151 C 
ENDBRANCH  15  16
ENDBRANCH   1  15
TORSDOF 2
