REMARK  Name = ZINC45574029
REMARK  10 active torsions:
REMARK  status: ('A' for Active; 'I' for Inactive)
REMARK    1  A    between atoms: C_1  and  C_2
REMARK    2  A    between atoms: C_5  and  S_8
REMARK    3  A    between atoms: S_8  and  N_11
REMARK    4  A    between atoms: N_11  and  C_12
REMARK    5  A    between atoms: C_12  and  C_14
REMARK    6  A    between atoms: C_12  and  C_17
REMARK    7  A    between atoms: C_14  and  C_15
REMARK    8  A    between atoms: C_14  and  C_16
REMARK    9  A    between atoms: N_19  and  C_20
REMARK   10  A    between atoms: C_23  and  N_26
REMARK                            x       y       z     vdW  Elec       q    Type
REMARK                         _______ _______ _______ _____ _____    ______ ____
ROOT
ATOM      1  C   UNL     1       2.636  -4.615   1.054  0.00  0.00    +0.165 C 
ENDROOT
BRANCH   1   2
ATOM      2  C   UNL     1       3.953  -4.160   0.479  0.00  0.00    +0.236 C 
ATOM      3  O   UNL     1       4.155  -4.244  -0.714  0.00  0.00    -0.274 OA
ATOM      4  N   UNL     1       4.905  -3.659   1.291  0.00  0.00    -0.284 N 
ATOM      5  H   UNL     1       4.772  -3.659   2.252  0.00  0.00    +0.155 HD
BRANCH   4   6
ATOM      6  C   UNL     1       6.087  -3.138   0.747  0.00  0.00    +0.034 A 
ATOM      7  C   UNL     1       7.287  -3.281   1.430  0.00  0.00    +0.025 A 
ATOM      8  C   UNL     1       8.452  -2.768   0.893  0.00  0.00    +0.025 A 
ATOM      9  C   UNL     1       8.422  -2.110  -0.329  0.00  0.00    +0.030 A 
ATOM     10  C   UNL     1       7.221  -1.968  -1.012  0.00  0.00    +0.025 A 
ATOM     11  C   UNL     1       6.058  -2.485  -0.478  0.00  0.00    +0.025 A 
BRANCH   9  12
ATOM     12  N   UNL     1       9.602  -1.591  -0.873  0.00  0.00    -0.330 N 
ATOM     13  C   UNL     1       9.568  -0.772  -2.092  0.00  0.00    +0.105 C 
ATOM     14  C   UNL     1      10.287   0.552  -1.818  0.00  0.00    +0.019 C 
ATOM     15  C   UNL     1      11.695   0.264  -1.294  0.00  0.00    +0.003 C 
ATOM     16  C   UNL     1      11.603  -0.516   0.019  0.00  0.00    +0.019 C 
ATOM     17  C   UNL     1      10.899  -1.848  -0.231  0.00  0.00    +0.105 C 
ENDBRANCH   9  12
ENDBRANCH   4   6
ENDBRANCH   1   2
BRANCH   1  18
ATOM     18  C   UNL     1       2.882  -5.733   2.069  0.00  0.00    +0.010 C 
ATOM     19  C   UNL     1       1.544  -6.207   2.640  0.00  0.00    +0.009 C 
ATOM     20  C   UNL     1       3.584  -6.904   1.377  0.00  0.00    +0.009 C 
ENDBRANCH   1  18
BRANCH   1  21
ATOM     21  N   UNL     1       1.779  -5.114  -0.025  0.00  0.00    -0.178 NA
ATOM     22  H   UNL     1       2.034  -5.909  -0.519  0.00  0.00    +0.149 HD
BRANCH  21  23
ATOM     23  S   UNL     1       0.374  -4.322  -0.400  0.00  0.00    +0.059 S 
ATOM     24  O   UNL     1      -0.331  -4.144   0.821  0.00  0.00    -0.153 OA
ATOM     25  O   UNL     1      -0.190  -5.001  -1.514  0.00  0.00    -0.153 OA
BRANCH  23  30
ATOM     26  C   UNL     1       1.893   1.189  -2.331  0.00  0.00    +0.044 C 
ATOM     27  C   UNL     1       1.514  -0.187  -1.849  0.00  0.00    -0.050 A 
ATOM     28  C   UNL     1       1.409  -1.230  -2.750  0.00  0.00    +0.005 A 
ATOM     29  C   UNL     1       1.061  -2.493  -2.307  0.00  0.00    +0.029 A 
ATOM     30  C   UNL     1       0.819  -2.712  -0.964  0.00  0.00    +0.105 A 
ATOM     31  C   UNL     1       0.925  -1.669  -0.063  0.00  0.00    +0.029 A 
ATOM     32  C   UNL     1       1.277  -0.408  -0.505  0.00  0.00    +0.005 A 
ENDBRANCH  23  30
ENDBRANCH  21  23
ENDBRANCH   1  21
TORSDOF 7
