REMARK  Name = ZINC50044482
REMARK  3 active torsions:
REMARK  status: ('A' for Active; 'I' for Inactive)
REMARK    1  A    between atoms: C_6  and  S_7
REMARK    2  A    between atoms: S_7  and  C_8
REMARK    3  A    between atoms: C_9  and  C_15
REMARK                            x       y       z     vdW  Elec       q    Type
REMARK                         _______ _______ _______ _____ _____    ______ ____
ROOT
ATOM      1  C   UNL     1      -1.005  -2.587  -0.151  0.00  0.00    +0.116 A 
ATOM      2  C   UNL     1      -1.973  -3.600  -0.292  0.00  0.00    +0.096 A 
ATOM      3  C   UNL     1      -1.545  -4.928  -0.420  0.00  0.00    +0.034 A 
ATOM      4  C   UNL     1      -0.186  -5.186  -0.402  0.00  0.00    +0.037 A 
ATOM      5  C   UNL     1       0.706  -4.135  -0.259  0.00  0.00    +0.127 A 
ATOM      6  N   UNL     1       0.285  -2.891  -0.145  0.00  0.00    -0.247 NA
ATOM      7 BR   UNL     1       0.450  -6.958  -0.570  0.00  0.00    -0.049 Br
ENDROOT
BRANCH   2   8
ATOM      8  C   UNL     1      -3.405  -3.270  -0.304  0.00  0.00    +0.389 C 
ATOM      9  O   UNL     1      -4.237  -4.159  -0.428  0.00  0.00    -0.240 OA
ATOM     10  O   UNL     1      -3.766  -2.106  -0.192  0.00  0.00    -0.240 OA
ENDBRANCH   2   8
BRANCH   1  11
ATOM     11  S   UNL     1      -1.511  -0.907   0.012  0.00  0.00    -0.069 S 
BRANCH  11  17
ATOM     12  C   UNL     1       0.591   0.360  -1.197  0.00  0.00    +0.016 A 
ATOM     13  C   UNL     1       1.777   1.068  -1.198  0.00  0.00    +0.016 A 
ATOM     14  C   UNL     1       2.378   1.414  -0.000  0.00  0.00    +0.018 A 
ATOM     15  C   UNL     1       1.794   1.052   1.201  0.00  0.00    +0.016 A 
ATOM     16  C   UNL     1       0.609   0.345   1.208  0.00  0.00    +0.016 A 
ATOM     17  C   UNL     1       0.002  -0.004   0.007  0.00  0.00    +0.014 A 
ATOM     18 BR   UNL     1       4.003   2.383  -0.006  0.00  0.00    -0.050 Br
ENDBRANCH  11  17
ENDBRANCH   1  11
TORSDOF 3
