REMARK  Name = ZINC39658682
REMARK  8 active torsions:
REMARK  status: ('A' for Active; 'I' for Inactive)
REMARK    1  A    between atoms: C_4  and  C_7
REMARK    2  A    between atoms: C_7  and  S_8
REMARK    3  A    between atoms: S_8  and  C_9
REMARK    4  A    between atoms: C_9  and  C_10
REMARK    5  A    between atoms: C_10  and  N_11
REMARK    6  A    between atoms: C_12  and  C_14
REMARK    7  A    between atoms: C_25  and  C_27
REMARK    8  A    between atoms: C_30  and  C_32
REMARK                            x       y       z     vdW  Elec       q    Type
REMARK                         _______ _______ _______ _____ _____    ______ ____
ROOT
ATOM      1  C   UNL     1       9.681  -4.043   3.622  0.00  0.00    +0.100 C 
ATOM      2  C   UNL     1      10.675  -3.193   2.800  0.00  0.00    +0.121 C 
ATOM      3  N   UNL     1      11.486  -2.480   3.814  0.00  0.00    -0.294 N 
ATOM      4  C   UNL     1      11.703  -3.482   4.885  0.00  0.00    +0.115 C 
ATOM      5  C   UNL     1      10.360  -4.233   4.989  0.00  0.00    -0.004 C 
ATOM      6  C   UNL     1       9.502  -3.627   6.095  0.00  0.00    -0.010 C 
ATOM      7  C   UNL     1      10.170  -3.878   7.449  0.00  0.00    -0.082 C 
ATOM      8  N   UNL     1      10.326  -5.323   7.660  0.00  0.00    +0.379 N 
ATOM      9  C   UNL     1      11.228  -5.882   6.646  0.00  0.00    -0.082 C 
ATOM     10  C   UNL     1      10.604  -5.715   5.257  0.00  0.00    -0.010 C 
ATOM     11  C   UNL     1      11.928  -1.207   3.773  0.00  0.00    +0.282 C 
ATOM     12  O   UNL     1      12.590  -0.762   4.692  0.00  0.00    -0.267 OA
ATOM     13  H   UNL     1      10.710  -5.488   8.578  0.00  0.00    -0.086 HD
ATOM     14  H   UNL     1       9.424  -5.771   7.590  0.00  0.00    -0.086 HD
ENDROOT
BRANCH  11  15
ATOM     15  C   UNL     1      11.611  -0.359   2.621  0.00  0.00    +0.190 A 
ATOM     16  C   UNL     1      12.002   0.951   2.449  0.00  0.00    +0.055 A 
ATOM     17  C   UNL     1      11.483   1.369   1.220  0.00  0.00    +0.050 A 
ATOM     18  C   UNL     1      10.802   0.310   0.691  0.00  0.00    +0.136 A 
ATOM     19  O   UNL     1      10.890  -0.727   1.540  0.00  0.00    -0.450 OA
BRANCH  18  20
ATOM     20  C   UNL     1      10.090   0.304  -0.603  0.00  0.00    +0.017 A 
ATOM     21  C   UNL     1      10.082   1.448  -1.404  0.00  0.00    +0.014 A 
ATOM     22  C   UNL     1       9.416   1.437  -2.611  0.00  0.00    +0.039 A 
ATOM     23  C   UNL     1       8.756   0.292  -3.031  0.00  0.00    +0.123 A 
ATOM     24  C   UNL     1       8.761  -0.846  -2.240  0.00  0.00    +0.039 A 
ATOM     25  C   UNL     1       9.428  -0.848  -1.034  0.00  0.00    +0.014 A 
ATOM     26  F   UNL     1       8.106   0.286  -4.215  0.00  0.00    -0.205 F 
ENDBRANCH  18  20
ENDBRANCH  11  15
BRANCH   1  28
ATOM     27  N   UNL     1       7.228  -4.005   3.933  0.00  0.00    -0.314 N 
ATOM     28  C   UNL     1       8.374  -3.312   3.783  0.00  0.00    +0.218 C 
ATOM     29  O   UNL     1       8.352  -2.099   3.778  0.00  0.00    -0.275 OA
ATOM     30  H   UNL     1       7.245  -4.975   3.938  0.00  0.00    +0.149 HD
BRANCH  27  31
ATOM     31  C   UNL     1       5.956  -3.294   4.090  0.00  0.00    +0.115 C 
BRANCH  31  32
ATOM     32  C   UNL     1       4.820  -4.307   4.241  0.00  0.00    +0.088 C 
BRANCH  32  33
ATOM     33  S   UNL     1       3.246  -3.427   4.435  0.00  0.00    -0.155 S 
BRANCH  33  34
ATOM     34  C   UNL     1       2.019  -4.753   4.600  0.00  0.00    +0.104 C 
BRANCH  34  38
ATOM     35  C   UNL     1      -1.867  -3.046   5.082  0.00  0.00    +0.000 A 
ATOM     36  C   UNL     1      -1.389  -3.329   3.816  0.00  0.00    +0.000 A 
ATOM     37  C   UNL     1      -0.131  -3.881   3.660  0.00  0.00    +0.004 A 
ATOM     38  C   UNL     1       0.648  -4.150   4.770  0.00  0.00    -0.038 A 
ATOM     39  C   UNL     1       0.170  -3.866   6.035  0.00  0.00    +0.004 A 
ATOM     40  C   UNL     1      -1.088  -3.315   6.191  0.00  0.00    +0.000 A 
ENDBRANCH  34  38
ENDBRANCH  33  34
ENDBRANCH  32  33
ENDBRANCH  31  32
ENDBRANCH  27  31
ENDBRANCH   1  28
TORSDOF 8
