REMARK  Name = ZINC39919409
REMARK  7 active torsions:
REMARK  status: ('A' for Active; 'I' for Inactive)
REMARK    1  A    between atoms: C_1  and  C_2
REMARK    2  A    between atoms: C_7  and  O_8
REMARK    3  A    between atoms: O_8  and  C_9
REMARK    4  A    between atoms: C_9  and  C_11
REMARK    5  A    between atoms: C_9  and  C_12
REMARK    6  A    between atoms: N_14  and  N_15
REMARK    7  A    between atoms: C_16  and  C_28
REMARK                            x       y       z     vdW  Elec       q    Type
REMARK                         _______ _______ _______ _____ _____    ______ ____
ROOT
ATOM      1  N   UNL     1       1.136   0.115   7.038  0.00  0.00    -0.191 N 
ATOM      2  C   UNL     1       2.465  -0.191   7.566  0.00  0.00    +0.212 C 
ATOM      3  N   UNL     1       2.511   0.066   9.011  0.00  0.00    -0.320 N 
ATOM      4  C   UNL     1       1.939   1.237   9.495  0.00  0.00    +0.041 A 
ATOM      5  C   UNL     1       2.410   1.866  10.635  0.00  0.00    +0.025 A 
ATOM      6  C   UNL     1       1.808   3.030  11.073  0.00  0.00    +0.022 A 
ATOM      7  C   UNL     1       0.736   3.573  10.380  0.00  0.00    +0.042 A 
ATOM      8  C   UNL     1       0.254   2.958   9.242  0.00  0.00    +0.035 A 
ATOM      9  C   UNL     1       0.851   1.783   8.791  0.00  0.00    +0.061 A 
ATOM     10  C   UNL     1       0.372   1.084   7.585  0.00  0.00    +0.267 C 
ATOM     11  O   UNL     1      -0.700   1.374   7.090  0.00  0.00    -0.268 OA
ATOM     12 CL   UNL     1      -0.004   5.037  10.948  0.00  0.00    -0.084 Cl
ATOM     13  H   UNL     1       2.930  -0.567   9.614  0.00  0.00    +0.148 HD
ENDROOT
BRANCH   2  14
ATOM     14  C   UNL     1       3.487   0.676   6.876  0.00  0.00    -0.008 A 
ATOM     15  C   UNL     1       4.460   0.099   6.082  0.00  0.00    +0.007 A 
ATOM     16  C   UNL     1       5.397   0.894   5.449  0.00  0.00    +0.000 A 
ATOM     17  C   UNL     1       5.361   2.267   5.610  0.00  0.00    +0.000 A 
ATOM     18  C   UNL     1       4.387   2.844   6.403  0.00  0.00    +0.000 A 
ATOM     19  C   UNL     1       3.447   2.049   7.033  0.00  0.00    +0.007 A 
ENDBRANCH   2  14
BRANCH   1  22
ATOM     20  C   UNL     1       0.643  -0.050   4.715  0.00  0.00    +0.270 C 
ATOM     21  O   UNL     1       1.138   1.045   4.545  0.00  0.00    -0.270 OA
ATOM     22  N   UNL     1       0.648  -0.608   5.941  0.00  0.00    -0.227 N 
ATOM     23  H   UNL     1       0.315  -1.510   6.065  0.00  0.00    +0.173 HD
BRANCH  20  24
ATOM     24  C   UNL     1       0.024  -0.785   3.555  0.00  0.00    +0.257 C 
ATOM     25  C   UNL     1      -1.480  -0.937   3.792  0.00  0.00    +0.062 C 
BRANCH  24  26
ATOM     26  O   UNL     1       0.244  -0.048   2.351  0.00  0.00    -0.480 OA
BRANCH  26  33
ATOM     27  C   UNL     1       0.506   1.416  -0.051  0.00  0.00    +0.047 C 
ATOM     28  C   UNL     1       0.331  -0.080  -0.026  0.00  0.00    -0.009 A 
ATOM     29  C   UNL     1       0.299  -0.792  -1.210  0.00  0.00    +0.007 A 
ATOM     30  C   UNL     1       0.138  -2.165  -1.188  0.00  0.00    +0.000 A 
ATOM     31  C   UNL     1       0.009  -2.829   0.017  0.00  0.00    +0.004 A 
ATOM     32  C   UNL     1       0.040  -2.122   1.204  0.00  0.00    +0.046 A 
ATOM     33  C   UNL     1       0.207  -0.745   1.185  0.00  0.00    +0.124 A 
ENDBRANCH  26  33
ENDBRANCH  24  26
ENDBRANCH  20  24
ENDBRANCH   1  22
TORSDOF 5
