REMARK  Name = ZINC04654094
REMARK  5 active torsions:
REMARK  status: ('A' for Active; 'I' for Inactive)
REMARK    1  A    between atoms: C_3  and  S_8
REMARK    2  A    between atoms: S_8  and  N_11
REMARK    3  A    between atoms: C_12  and  O_14
REMARK    4  A    between atoms: O_14  and  C_15
REMARK    5  A    between atoms: C_15  and  C_16
REMARK                            x       y       z     vdW  Elec       q    Type
REMARK                         _______ _______ _______ _____ _____    ______ ____
ROOT
ATOM      1  N   UNL     1      -4.648   5.314   2.318  0.00  0.00    -0.151 N 
ATOM      2  C   UNL     1      -3.897   4.840   1.305  0.00  0.00    +0.420 C 
ATOM      3  O   UNL     1      -3.357   5.611   0.536  0.00  0.00    -0.225 OA
ATOM      4  H   UNL     1      -5.079   4.699   2.932  0.00  0.00    +0.180 HD
ENDROOT
BRANCH   1   5
ATOM      5  S   UNL     1      -4.836   6.947   2.515  0.00  0.00    +0.077 S 
ATOM      6  O   UNL     1      -5.691   7.125   3.636  0.00  0.00    -0.150 OA
ATOM      7  O   UNL     1      -3.535   7.516   2.452  0.00  0.00    -0.150 OA
BRANCH   5  10
ATOM      8  C   UNL     1      -7.789   8.057   0.028  0.00  0.00    +0.040 A 
ATOM      9  C   UNL     1      -7.098   7.590   1.129  0.00  0.00    +0.031 A 
ATOM     10  C   UNL     1      -5.716   7.544   1.111  0.00  0.00    +0.109 A 
ATOM     11  C   UNL     1      -5.024   7.971  -0.007  0.00  0.00    +0.031 A 
ATOM     12  C   UNL     1      -5.714   8.434  -1.112  0.00  0.00    +0.040 A 
ATOM     13  C   UNL     1      -7.098   8.480  -1.095  0.00  0.00    +0.124 A 
ATOM     14  F   UNL     1      -7.772   8.938  -2.172  0.00  0.00    -0.205 F 
ENDBRANCH   5  10
ENDBRANCH   1   5
BRANCH   2  15
ATOM     15  O   UNL     1      -3.744   3.512   1.144  0.00  0.00    -0.449 OA
BRANCH  15  16
ATOM     16  C   UNL     1      -2.921   3.073   0.032  0.00  0.00    +0.235 C 
BRANCH  16  17
ATOM     17  C   UNL     1      -2.865   1.544   0.011  0.00  0.00    +0.013 C 
ATOM     18  C   UNL     1      -2.157   1.044   1.271  0.00  0.00    +0.003 C 
ATOM     19  C   UNL     1      -0.723   1.576   1.270  0.00  0.00    -0.018 C 
ATOM     20  C   UNL     1      -0.013   1.086   0.008  0.00  0.00    -0.078 C 
ATOM     21  C   UNL     1      -2.101   1.079  -1.234  0.00  0.00    -0.062 C 
ATOM     22  C   UNL     1      -2.817   1.638  -2.467  0.00  0.00    -0.015 C 
ATOM     23  C   UNL     1      -2.061   1.235  -3.734  0.00  0.00    -0.003 C 
ATOM     24  C   UNL     1      -0.626   1.764  -3.638  0.00  0.00    -0.019 C 
ATOM     25  C   UNL     1       0.033   1.178  -2.390  0.00  0.00    -0.078 C 
ATOM     26  N   UNL     1      -0.709   1.595  -1.186  0.00  0.00    +0.382 N 
ATOM     27  H   UNL     1      -0.737   2.621  -1.147  0.00  0.00    -0.081 HD
ENDBRANCH  16  17
ENDBRANCH  15  16
ENDBRANCH   2  15
TORSDOF 5
