REMARK  Name = ZINC09608782
REMARK  11 active torsions:
REMARK  status: ('A' for Active; 'I' for Inactive)
REMARK    1  A    between atoms: C_1  and  C_2
REMARK    2  A    between atoms: C_6  and  C_8
REMARK    3  A    between atoms: C_8  and  S_9
REMARK    4  A    between atoms: S_9  and  C_10
REMARK    5  A    between atoms: C_21  and  C_23
REMARK    6  A    between atoms: C_27  and  O_31
REMARK    7  A    between atoms: C_28  and  O_29
REMARK    8  A    between atoms: O_29  and  C_30
REMARK    9  A    between atoms: O_31  and  C_32
REMARK   10  A    between atoms: C_36  and  C_38
REMARK   11  A    between atoms: C_36  and  C_39
REMARK                            x       y       z     vdW  Elec       q    Type
REMARK                         _______ _______ _______ _____ _____    ______ ____
ROOT
ATOM      1  C   UNL     1       3.253   3.217  -1.078  0.00  0.00    +0.171 A 
ATOM      2  N   UNL     1       2.803   4.445  -0.697  0.00  0.00    -0.302 N 
ATOM      3  H   UNL     1       3.342   5.233  -0.871  0.00  0.00    +0.171 HD
ATOM      4  C   UNL     1       1.609   4.569  -0.080  0.00  0.00    +0.258 A 
ATOM      5  O   UNL     1       1.198   5.665   0.266  0.00  0.00    -0.267 OA
ATOM      6  C   UNL     1       0.851   3.416   0.156  0.00  0.00    +0.069 A 
ATOM      7  C   UNL     1       1.351   2.192  -0.256  0.00  0.00    +0.135 A 
ATOM      8  N   UNL     1       2.542   2.129  -0.860  0.00  0.00    -0.208 NA
ATOM      9  N   UNL     1       0.614   1.045  -0.039  0.00  0.00    -0.302 N 
ATOM     10  C   UNL     1      -0.732   1.116   0.199  0.00  0.00    +0.017 C 
ATOM     11  C   UNL     1      -1.298   2.265   0.629  0.00  0.00    +0.024 C 
ATOM     12  C   UNL     1      -0.476   3.509   0.848  0.00  0.00    +0.096 C 
ATOM     13  C   UNL     1      -2.679   2.338   0.884  0.00  0.00    +0.162 C 
ATOM     14  O   UNL     1      -3.162   3.392   1.250  0.00  0.00    -0.292 OA
ATOM     15  C   UNL     1      -3.571   1.139   0.714  0.00  0.00    +0.086 C 
ATOM     16  C   UNL     1      -2.746  -0.131   0.948  0.00  0.00    -0.023 C 
ATOM     17  C   UNL     1      -1.561  -0.124  -0.020  0.00  0.00    +0.058 C 
ATOM     18  C   UNL     1      -2.232  -0.154   2.389  0.00  0.00    +0.011 C 
ATOM     19  C   UNL     1      -3.614  -1.364   0.692  0.00  0.00    +0.011 C 
ATOM     20  H   UNL     1       1.054   0.180  -0.059  0.00  0.00    +0.153 HD
ENDROOT
BRANCH  12  21
ATOM     21  C   UNL     1      -0.249   3.697   2.326  0.00  0.00    +0.010 A 
ATOM     22  C   UNL     1      -0.507   4.921   2.915  0.00  0.00    +0.008 A 
ATOM     23  C   UNL     1      -0.306   5.094   4.272  0.00  0.00    +0.004 A 
ATOM     24  C   UNL     1       0.166   4.048   5.043  0.00  0.00    +0.049 A 
ATOM     25  C   UNL     1       0.432   2.821   4.458  0.00  0.00    +0.162 A 
ATOM     26  C   UNL     1       0.223   2.645   3.093  0.00  0.00    +0.166 A 
BRANCH  26  27
ATOM     27  O   UNL     1       0.483   1.442   2.514  0.00  0.00    -0.491 OA
ATOM     28  C   UNL     1       1.855   1.109   2.296  0.00  0.00    +0.277 C 
ENDBRANCH  26  27
BRANCH  25  29
ATOM     29  O   UNL     1       0.895   1.791   5.215  0.00  0.00    -0.491 OA
ATOM     30  C   UNL     1       1.085   2.045   6.609  0.00  0.00    +0.277 C 
ENDBRANCH  25  29
ENDBRANCH  12  21
BRANCH   1  31
ATOM     31  S   UNL     1       4.817   3.080  -1.877  0.00  0.00    -0.083 S 
BRANCH  31  32
ATOM     32  C   UNL     1       4.883   1.290  -2.135  0.00  0.00    +0.112 C 
BRANCH  32  38
ATOM     33  C   UNL     1       7.481   0.531  -6.345  0.00  0.00    +0.044 C 
ATOM     34  C   UNL     1       7.416   0.566  -4.840  0.00  0.00    -0.050 A 
ATOM     35  C   UNL     1       8.539   0.266  -4.092  0.00  0.00    +0.003 A 
ATOM     36  C   UNL     1       8.480   0.298  -2.712  0.00  0.00    +0.001 A 
ATOM     37  C   UNL     1       7.296   0.629  -2.078  0.00  0.00    +0.004 A 
ATOM     38  C   UNL     1       6.173   0.929  -2.826  0.00  0.00    -0.037 A 
ATOM     39  C   UNL     1       6.231   0.892  -4.207  0.00  0.00    +0.007 A 
ENDBRANCH  32  38
ENDBRANCH  31  32
ENDBRANCH   1  31
TORSDOF 6
