REMARK  Name = ZINC02116414
REMARK  5 active torsions:
REMARK  status: ('A' for Active; 'I' for Inactive)
REMARK    1  A    between atoms: C_1  and  C_2
REMARK    2  A    between atoms: C_2  and  C_3
REMARK    3  A    between atoms: C_3  and  C_4
REMARK    4  A    between atoms: C_4  and  N_5
REMARK    5  A    between atoms: C_19  and  C_22
REMARK                            x       y       z     vdW  Elec       q    Type
REMARK                         _______ _______ _______ _____ _____    ______ ____
ROOT
ATOM      1  N   UNL     1      -2.787  -2.571   0.015  0.00  0.00    -0.306 N 
ATOM      2  C   UNL     1      -3.412  -2.806   1.223  0.00  0.00    +0.056 A 
ATOM      3  C   UNL     1      -2.756  -2.567   2.426  0.00  0.00    +0.026 A 
ATOM      4  C   UNL     1      -3.404  -2.810   3.618  0.00  0.00    +0.002 A 
ATOM      5  C   UNL     1      -4.705  -3.293   3.632  0.00  0.00    +0.001 A 
ATOM      6  C   UNL     1      -5.368  -3.535   2.462  0.00  0.00    +0.013 A 
ATOM      7  C   UNL     1      -4.732  -3.294   1.242  0.00  0.00    +0.042 A 
ATOM      8  C   UNL     1      -5.410  -3.540  -0.034  0.00  0.00    +0.157 A 
ATOM      9  C   UNL     1      -4.735  -3.285  -1.196  0.00  0.00    +0.142 A 
ATOM     10  C   UNL     1      -3.417  -2.792  -1.153  0.00  0.00    +0.277 A 
ATOM     11  O   UNL     1      -2.830  -2.566  -2.198  0.00  0.00    -0.266 OA
ATOM     12  N   UNL     1      -5.375  -3.515  -2.427  0.00  0.00    -0.275 N 
ATOM     13  C   UNL     1      -6.717  -3.674  -2.447  0.00  0.00    +0.258 C 
ATOM     14  O   UNL     1      -7.290  -3.900  -3.492  0.00  0.00    -0.271 OA
ATOM     15  C   UNL     1      -7.496  -3.568  -1.160  0.00  0.00    +0.256 C 
ATOM     16  O   UNL     1      -6.678  -4.008  -0.073  0.00  0.00    -0.477 OA
ATOM     17  C   UNL     1      -8.746  -4.446  -1.247  0.00  0.00    +0.062 C 
ATOM     18  H   UNL     1      -4.861  -3.559  -3.248  0.00  0.00    +0.155 HD
ENDROOT
BRANCH   1  19
ATOM     19  C   UNL     1      -1.413  -2.063   0.004  0.00  0.00    +0.125 C 
BRANCH  19  20
ATOM     20  C   UNL     1      -1.433  -0.534   0.013  0.00  0.00    +0.021 C 
BRANCH  20  22
ATOM     21  C   UNL     1      -0.019   1.526   0.010  0.00  0.00    +0.004 C 
ATOM     22  C   UNL     1       0.002  -0.004   0.002  0.00  0.00    -0.002 C 
ENDBRANCH  20  22
ENDBRANCH  19  20
ENDBRANCH   1  19
TORSDOF 3
