REMARK  Name = ZINC45286543
REMARK  10 active torsions:
REMARK  status: ('A' for Active; 'I' for Inactive)
REMARK    1  A    between atoms: C_1  and  C_2
REMARK    2  A    between atoms: C_4  and  C_29
REMARK    3  A    between atoms: C_6  and  S_8
REMARK    4  A    between atoms: S_8  and  C_9
REMARK    5  A    between atoms: C_10  and  C_19
REMARK    6  A    between atoms: C_11  and  C_18
REMARK    7  A    between atoms: C_19  and  N_20
REMARK    8  A    between atoms: C_23  and  C_26
REMARK    9  A    between atoms: C_26  and  O_27
REMARK   10  A    between atoms: O_27  and  C_28
REMARK                            x       y       z     vdW  Elec       q    Type
REMARK                         _______ _______ _______ _____ _____    ______ ____
ROOT
ATOM      1  C   UNL     1       0.120  -1.664   3.520  0.00  0.00    +0.034 A 
ATOM      2  C   UNL     1       0.341  -1.828   4.904  0.00  0.00    -0.030 A 
ATOM      3  C   UNL     1       0.489  -0.743   5.692  0.00  0.00    +0.018 A 
ATOM      4  N   UNL     1       0.428   0.512   5.171  0.00  0.00    -0.325 N 
ATOM      5  H   UNL     1       0.536   1.278   5.757  0.00  0.00    +0.169 HD
ATOM      6  C   UNL     1       0.219   0.711   3.856  0.00  0.00    +0.263 A 
ATOM      7  O   UNL     1       0.169   1.847   3.412  0.00  0.00    -0.267 OA
ATOM      8  C   UNL     1       0.065  -0.381   2.997  0.00  0.00    +0.091 A 
ATOM      9  I   UNL     1      -0.252  -0.083   0.947  0.00  0.00    -0.037 I 
ATOM     10  C   UNL     1       0.725  -0.923   7.170  0.00  0.00    +0.063 C 
ENDROOT
BRANCH   1  11
ATOM     11  S   UNL     1      -0.074  -3.067   2.472  0.00  0.00    -0.088 S 
BRANCH  11  17
ATOM     12  C   UNL     1       3.138  -7.004   1.224  0.00  0.00    +0.044 C 
ATOM     13  C   UNL     1       2.939  -5.667   1.889  0.00  0.00    -0.049 A 
ATOM     14  C   UNL     1       4.002  -5.040   2.513  0.00  0.00    +0.006 A 
ATOM     15  C   UNL     1       3.824  -3.813   3.124  0.00  0.00    -0.049 A 
ATOM     16  C   UNL     1       2.582  -3.208   3.114  0.00  0.00    +0.018 A 
ATOM     17  C   UNL     1       1.512  -3.835   2.488  0.00  0.00    +0.013 A 
ATOM     18  C   UNL     1       1.696  -5.066   1.870  0.00  0.00    +0.018 A 
ATOM     19  C   UNL     1       4.985  -3.134   3.803  0.00  0.00    +0.044 C 
ENDBRANCH  11  17
ENDBRANCH   1  11
BRANCH   2  20
ATOM     20  C   UNL     1       0.412  -3.210   5.501  0.00  0.00    -0.040 C 
BRANCH  20  21
ATOM     21  N   UNL     1      -0.947  -3.745   5.658  0.00  0.00    +0.382 N 
ATOM     22  C   UNL     1      -1.671  -2.953   6.660  0.00  0.00    -0.078 C 
ATOM     23  C   UNL     1      -3.112  -3.455   6.769  0.00  0.00    -0.013 C 
ATOM     24  C   UNL     1      -3.104  -4.928   7.189  0.00  0.00    +0.011 C 
ATOM     25  C   UNL     1      -2.284  -5.732   6.177  0.00  0.00    -0.013 C 
ATOM     26  C   UNL     1      -0.873  -5.146   6.090  0.00  0.00    -0.078 C 
ATOM     27  H   UNL     1      -1.433  -3.692   4.775  0.00  0.00    -0.081 HD
BRANCH  24  28
ATOM     28  C   UNL     1      -4.538  -5.458   7.224  0.00  0.00    +0.162 C 
BRANCH  28  29
ATOM     29  O   UNL     1      -4.540  -6.795   7.727  0.00  0.00    -0.383 OA
ATOM     30  C   UNL     1      -5.838  -7.388   7.800  0.00  0.00    +0.193 C 
ENDBRANCH  28  29
ENDBRANCH  24  28
ENDBRANCH  20  21
ENDBRANCH   2  20
TORSDOF 6
