REMARK  Name = ZINC36276408
REMARK  7 active torsions:
REMARK  status: ('A' for Active; 'I' for Inactive)
REMARK    1  A    between atoms: C_1  and  C_2
REMARK    2  A    between atoms: C_8  and  C_10
REMARK    3  A    between atoms: C_10  and  C_11
REMARK    4  A    between atoms: C_11  and  O_12
REMARK    5  A    between atoms: O_12  and  C_13
REMARK    6  A    between atoms: C_20  and  C_22
REMARK    7  A    between atoms: C_25  and  N_28
REMARK                            x       y       z     vdW  Elec       q    Type
REMARK                         _______ _______ _______ _____ _____    ______ ____
ROOT
ATOM      1  C   UNL     1       5.606  -6.245   2.104  0.00  0.00    +0.161 A 
ATOM      2  C   UNL     1       6.072  -6.644   0.885  0.00  0.00    +0.051 A 
ATOM      3  C   UNL     1       7.134  -7.560   0.814  0.00  0.00    +0.022 A 
ATOM      4  C   UNL     1       7.692  -8.046   1.942  0.00  0.00    +0.093 A 
ATOM      5  N   UNL     1       7.237  -7.656   3.170  0.00  0.00    -0.305 N 
ATOM      6  C   UNL     1       6.207  -6.759   3.276  0.00  0.00    +0.159 A 
ATOM      7  N   UNL     1       5.968  -6.548   4.562  0.00  0.00    -0.337 N 
ATOM      8  C   UNL     1       6.822  -7.282   5.293  0.00  0.00    +0.065 A 
ATOM      9  C   UNL     1       7.617  -7.989   4.441  0.00  0.00    +0.119 A 
ATOM     10  H   UNL     1       5.286  -5.958   4.919  0.00  0.00    +0.167 HD
ENDROOT
BRANCH   8  11
ATOM     11  C   UNL     1       6.881  -7.327   6.775  0.00  0.00    -0.000 A 
ATOM     12  C   UNL     1       5.993  -6.565   7.532  0.00  0.00    +0.012 A 
ATOM     13  C   UNL     1       6.050  -6.608   8.909  0.00  0.00    +0.023 A 
ATOM     14  C   UNL     1       6.991  -7.411   9.542  0.00  0.00    +0.025 A 
ATOM     15  C   UNL     1       7.878  -8.172   8.789  0.00  0.00    +0.023 A 
ATOM     16  C   UNL     1       7.821  -8.136   7.412  0.00  0.00    +0.012 A 
BRANCH  14  17
ATOM     17  N   UNL     1       7.047  -7.453  10.937  0.00  0.00    -0.358 N 
ATOM     18  H   UNL     1       6.429  -6.923  11.463  0.00  0.00    +0.142 HD
ATOM     19  H   UNL     1       7.704  -8.014  11.379  0.00  0.00    +0.142 HD
ENDBRANCH  14  17
ENDBRANCH   8  11
BRANCH   1  20
ATOM     20  O   UNL     1       4.579  -5.358   2.190  0.00  0.00    -0.488 OA
BRANCH  20  21
ATOM     21  C   UNL     1       4.025  -4.885   0.961  0.00  0.00    +0.238 C 
BRANCH  21  22
ATOM     22  C   UNL     1       2.889  -3.904   1.257  0.00  0.00    +0.137 C 
BRANCH  22  30
ATOM     23  C   UNL     1      -0.019   1.526   0.010  0.00  0.00    +0.007 C 
ATOM     24  C   UNL     1       0.002  -0.004   0.002  0.00  0.00    -0.011 C 
ATOM     25  C   UNL     1       0.717  -0.497  -1.258  0.00  0.00    +0.022 C 
ATOM     26  C   UNL     1       0.705  -2.029  -1.280  0.00  0.00    +0.108 C 
ATOM     27  N   UNL     1       1.285  -2.525  -0.025  0.00  0.00    -0.301 N 
ATOM     28  C   UNL     1       0.731  -2.043   1.248  0.00  0.00    +0.108 C 
ATOM     29  C   UNL     1       0.742  -0.511   1.242  0.00  0.00    +0.022 C 
ATOM     30  C   UNL     1       2.305  -3.405  -0.040  0.00  0.00    +0.219 C 
ATOM     31  O   UNL     1       2.754  -3.796  -1.097  0.00  0.00    -0.275 OA
ENDBRANCH  22  30
ENDBRANCH  21  22
ENDBRANCH  20  21
ENDBRANCH   1  20
TORSDOF 6
