REMARK  Name = ZINC55104614
REMARK  5 active torsions:
REMARK  status: ('A' for Active; 'I' for Inactive)
REMARK    1  A    between atoms: C_1  and  C_2
REMARK    2  A    between atoms: N_6  and  C_28
REMARK    3  A    between atoms: N_15  and  C_18
REMARK    4  A    between atoms: C_18  and  C_19
REMARK    5  A    between atoms: C_22  and  N_25
REMARK                            x       y       z     vdW  Elec       q    Type
REMARK                         _______ _______ _______ _____ _____    ______ ____
ROOT
ATOM      1  C   UNL     1      -0.907   0.916  -0.306  0.00  0.00    +0.029 C 
ATOM      2  C   UNL     1      -0.293  -0.447   0.022  0.00  0.00    +0.132 C 
ATOM      3  C   UNL     1       0.463  -1.012  -1.172  0.00  0.00    +0.234 C 
ATOM      4  O   UNL     1      -0.030  -1.026  -2.281  0.00  0.00    -0.274 OA
ATOM      5  N   UNL     1       1.687  -1.491  -0.954  0.00  0.00    -0.243 N 
ATOM      6  C   UNL     1       2.232  -1.436   0.399  0.00  0.00    +0.193 C 
ATOM      7  S   UNL     1       1.081  -0.284   1.245  0.00  0.00    -0.108 S 
ATOM      8  C   UNL     1       3.639  -0.927   0.454  0.00  0.00    +0.017 A 
ATOM      9  C   UNL     1       4.258   0.220   0.009  0.00  0.00    +0.009 A 
ATOM     10  C   UNL     1       5.614   0.402   0.218  0.00  0.00    +0.000 A 
ATOM     11  C   UNL     1       6.346  -0.571   0.875  0.00  0.00    +0.002 A 
ATOM     12  C   UNL     1       5.730  -1.721   1.323  0.00  0.00    +0.024 A 
ATOM     13  C   UNL     1       4.367  -1.913   1.118  0.00  0.00    +0.043 A 
ATOM     14  N   UNL     1       3.530  -2.974   1.473  0.00  0.00    -0.264 N 
ATOM     15  C   UNL     1       2.255  -2.769   1.085  0.00  0.00    +0.259 C 
ATOM     16  O   UNL     1       1.313  -3.514   1.257  0.00  0.00    -0.272 OA
ENDROOT
BRANCH   5  17
ATOM     17  C   UNL     1       2.436  -2.038  -2.003  0.00  0.00    +0.040 A 
ATOM     18  C   UNL     1       2.435  -3.410  -2.217  0.00  0.00    +0.026 A 
ATOM     19  C   UNL     1       3.174  -3.947  -3.252  0.00  0.00    +0.041 A 
ATOM     20  C   UNL     1       3.917  -3.119  -4.077  0.00  0.00    +0.142 A 
ATOM     21  C   UNL     1       3.920  -1.750  -3.866  0.00  0.00    +0.078 A 
ATOM     22  C   UNL     1       3.176  -1.208  -2.834  0.00  0.00    +0.046 A 
ATOM     23 CL   UNL     1       4.852  -0.714  -4.901  0.00  0.00    -0.081 Cl
ATOM     24  F   UNL     1       4.640  -3.647  -5.089  0.00  0.00    -0.204 F 
ENDBRANCH   5  17
BRANCH  14  25
ATOM     25  C   UNL     1       3.986  -4.171   2.185  0.00  0.00    +0.148 C 
BRANCH  25  26
ATOM     26  C   UNL     1       3.865  -3.948   3.671  0.00  0.00    -0.030 A 
ATOM     27  C   UNL     1       4.922  -3.403   4.375  0.00  0.00    +0.007 A 
ATOM     28  C   UNL     1       4.811  -3.198   5.738  0.00  0.00    +0.033 A 
ATOM     29  C   UNL     1       3.644  -3.539   6.396  0.00  0.00    +0.126 A 
ATOM     30  C   UNL     1       2.587  -4.084   5.691  0.00  0.00    +0.033 A 
ATOM     31  C   UNL     1       2.696  -4.284   4.327  0.00  0.00    +0.007 A 
BRANCH  29  32
ATOM     32  N   UNL     1       3.526  -3.321   7.855  0.00  0.00    +0.056 N 
ATOM     33  O   UNL     1       4.451  -2.845   8.472  0.00  0.00    -0.126 OA
ATOM     34  O   UNL     1       2.506  -3.619   8.430  0.00  0.00    -0.126 OA
ENDBRANCH  29  32
ENDBRANCH  25  26
ENDBRANCH  14  25
TORSDOF 4
