REMARK  Name = ZINC36545242
REMARK  11 active torsions:
REMARK  status: ('A' for Active; 'I' for Inactive)
REMARK    1  A    between atoms: C_1  and  C_2
REMARK    2  A    between atoms: C_2  and  C_3
REMARK    3  A    between atoms: C_2  and  C_4
REMARK    4  A    between atoms: C_2  and  N_5
REMARK    5  A    between atoms: C_6  and  C_8
REMARK    6  A    between atoms: C_8  and  C_10
REMARK    7  A    between atoms: C_8  and  N_15
REMARK    8  A    between atoms: N_15  and  C_16
REMARK    9  A    between atoms: C_23  and  C_25
REMARK   10  A    between atoms: C_26  and  O_32
REMARK   11  A    between atoms: C_30  and  O_31
REMARK                            x       y       z     vdW  Elec       q    Type
REMARK                         _______ _______ _______ _____ _____    ______ ____
ROOT
ATOM      1  N   UNL     1       4.140  -0.098  -2.824  0.00  0.00    -0.247 N 
ATOM      2  C   UNL     1       5.143  -0.982  -2.655  0.00  0.00    +0.259 C 
ATOM      3  O   UNL     1       6.265  -0.587  -2.400  0.00  0.00    -0.269 OA
ENDROOT
BRANCH   1   4
ATOM      4  C   UNL     1       4.407   1.275  -2.809  0.00  0.00    +0.056 A 
ATOM      5  C   UNL     1       4.292   1.994  -1.626  0.00  0.00    +0.025 A 
ATOM      6  C   UNL     1       4.557   3.349  -1.615  0.00  0.00    +0.002 A 
ATOM      7  C   UNL     1       4.937   3.992  -2.779  0.00  0.00    +0.002 A 
ATOM      8  C   UNL     1       5.052   3.280  -3.959  0.00  0.00    +0.022 A 
ATOM      9  C   UNL     1       4.794   1.923  -3.977  0.00  0.00    +0.062 A 
ATOM     10 CL   UNL     1       4.946   1.028  -5.457  0.00  0.00    -0.082 Cl
ENDBRANCH   1   4
BRANCH   2  11
ATOM     11  C   UNL     1       4.881  -2.425  -2.778  0.00  0.00    +0.120 A 
ATOM     12  C   UNL     1       4.960  -3.053  -4.030  0.00  0.00    +0.133 A 
ATOM     13  C   UNL     1       4.712  -4.412  -4.135  0.00  0.00    +0.046 A 
ATOM     14  C   UNL     1       4.387  -5.149  -3.011  0.00  0.00    +0.007 A 
ATOM     15  C   UNL     1       4.307  -4.540  -1.773  0.00  0.00    +0.046 A 
ATOM     16  C   UNL     1       4.557  -3.184  -1.644  0.00  0.00    +0.133 A 
BRANCH  16  17
ATOM     17  O   UNL     1       4.484  -2.590  -0.426  0.00  0.00    -0.506 OA
ATOM     18  H   UNL     1       3.622  -2.196  -0.233  0.00  0.00    +0.292 HD
ENDBRANCH  16  17
BRANCH  12  19
ATOM     19  O   UNL     1       5.277  -2.331  -5.135  0.00  0.00    -0.506 OA
ATOM     20  H   UNL     1       6.226  -2.289  -5.317  0.00  0.00    +0.292 HD
ENDBRANCH  12  19
ENDBRANCH   2  11
BRANCH   1  21
ATOM     21  C   UNL     1       2.769  -0.575  -3.024  0.00  0.00    +0.233 C 
BRANCH  21  22
ATOM     22  C   UNL     1       2.258  -0.090  -4.356  0.00  0.00    +0.135 A 
ATOM     23  C   UNL     1       1.504  -0.799  -5.215  0.00  0.00    +0.047 A 
ATOM     24  C   UNL     1       1.255   0.036  -6.328  0.00  0.00    +0.041 A 
ATOM     25  C   UNL     1       1.871   1.206  -6.083  0.00  0.00    +0.195 A 
ATOM     26  O   UNL     1       2.472   1.126  -4.884  0.00  0.00    -0.465 OA
ENDBRANCH  21  22
BRANCH  21  28
ATOM     27  N   UNL     1       0.576  -0.356  -1.902  0.00  0.00    -0.309 N 
ATOM     28  C   UNL     1       1.887  -0.045  -1.924  0.00  0.00    +0.242 C 
ATOM     29  O   UNL     1       2.357   0.663  -1.058  0.00  0.00    -0.273 OA
ATOM     30  H   UNL     1       0.200  -0.921  -2.595  0.00  0.00    +0.149 HD
BRANCH  27  32
ATOM     31  C   UNL     1      -0.266   1.690  -0.859  0.00  0.00    +0.031 C 
ATOM     32  C   UNL     1      -0.282   0.160  -0.833  0.00  0.00    +0.026 C 
ATOM     33  C   UNL     1       0.237  -0.333   0.520  0.00  0.00    +0.031 C 
ATOM     34  C   UNL     1      -1.713  -0.339  -1.041  0.00  0.00    +0.031 C 
ENDBRANCH  27  32
ENDBRANCH  21  28
ENDBRANCH   1  21
TORSDOF 8
