REMARK  Name = ZINC20850515
REMARK  6 active torsions:
REMARK  status: ('A' for Active; 'I' for Inactive)
REMARK    1  A    between atoms: C_1  and  C_2
REMARK    2  A    between atoms: C_2  and  C_33
REMARK    3  A    between atoms: C_6  and  C_23
REMARK    4  A    between atoms: C_11  and  S_13
REMARK    5  A    between atoms: S_13  and  C_14
REMARK    6  A    between atoms: C_14  and  C_15
REMARK                            x       y       z     vdW  Elec       q    Type
REMARK                         _______ _______ _______ _____ _____    ______ ____
ROOT
ATOM      1  C   UNL     1      -0.968   8.599  -1.212  0.00  0.00    +0.011 C 
ATOM      2  C   UNL     1      -1.184   8.591   0.302  0.00  0.00    -0.023 C 
ATOM      3  C   UNL     1      -1.851   7.279   0.721  0.00  0.00    +0.058 C 
ATOM      4  C   UNL     1      -0.955   6.117   0.364  0.00  0.00    +0.020 C 
ATOM      5  C   UNL     1       0.389   6.252   0.359  0.00  0.00    +0.041 C 
ATOM      6  C   UNL     1       1.311   5.106   0.006  0.00  0.00    +0.177 C 
ATOM      7  N   UNL     1       0.572   3.850   0.015  0.00  0.00    -0.220 N 
ATOM      8  C   UNL     1      -0.782   3.781   0.030  0.00  0.00    +0.219 A 
ATOM      9  N   UNL     1      -1.124   2.522   0.021  0.00  0.00    -0.187 NA
ATOM     10  C   UNL     1      -0.022   1.758   0.012  0.00  0.00    +0.211 A 
ATOM     11  N   UNL     1       1.039   2.536   0.006  0.00  0.00    -0.141 NA
ATOM     12  N   UNL     1      -1.563   4.924   0.052  0.00  0.00    -0.287 N 
ATOM     13  C   UNL     1       0.991   7.482   0.682  0.00  0.00    +0.164 C 
ATOM     14  O   UNL     1       2.203   7.566   0.690  0.00  0.00    -0.292 OA
ATOM     15  C   UNL     1       0.168   8.694   1.017  0.00  0.00    +0.086 C 
ATOM     16  C   UNL     1      -2.071   9.771   0.704  0.00  0.00    +0.011 C 
ATOM     17  H   UNL     1      -2.640   4.898  -0.170  0.00  0.00    +0.155 HD
ENDROOT
BRANCH   6  18
ATOM     18  C   UNL     1       1.891   5.336  -1.366  0.00  0.00    -0.000 A 
ATOM     19  C   UNL     1       1.056   5.425  -2.464  0.00  0.00    +0.007 A 
ATOM     20  C   UNL     1       1.587   5.640  -3.721  0.00  0.00    +0.000 A 
ATOM     21  C   UNL     1       2.955   5.755  -3.884  0.00  0.00    +0.001 A 
ATOM     22  C   UNL     1       3.792   5.661  -2.788  0.00  0.00    +0.020 A 
ATOM     23  C   UNL     1       3.260   5.451  -1.528  0.00  0.00    +0.046 A 
ATOM     24 CL   UNL     1       4.310   5.333  -0.151  0.00  0.00    -0.083 Cl
ENDBRANCH   6  18
BRANCH  10  25
ATOM     25  S   UNL     1       0.002  -0.004   0.002  0.00  0.00    -0.080 S 
BRANCH  25  26
ATOM     26  C   UNL     1      -1.752  -0.467   0.016  0.00  0.00    +0.112 C 
BRANCH  26  27
ATOM     27  C   UNL     1      -1.875  -1.969   0.009  0.00  0.00    -0.034 A 
ATOM     28  C   UNL     1      -1.949  -2.651  -1.191  0.00  0.00    +0.004 A 
ATOM     29  C   UNL     1      -2.057  -4.029  -1.199  0.00  0.00    +0.003 A 
ATOM     30  C   UNL     1      -2.103  -4.726  -0.006  0.00  0.00    +0.038 A 
ATOM     31  C   UNL     1      -2.034  -4.044   1.196  0.00  0.00    +0.124 A 
ATOM     32  C   UNL     1      -1.920  -2.663   1.203  0.00  0.00    +0.042 A 
ATOM     33  F   UNL     1      -2.079  -4.724   2.363  0.00  0.00    -0.205 F 
ENDBRANCH  26  27
ENDBRANCH  25  26
ENDBRANCH  10  25
TORSDOF 4
