REMARK  Name = ZINC05350059
REMARK  8 active torsions:
REMARK  status: ('A' for Active; 'I' for Inactive)
REMARK    1  A    between atoms: C_1  and  C_2
REMARK    2  A    between atoms: C_2  and  C_3
REMARK    3  A    between atoms: C_3  and  C_5
REMARK    4  A    between atoms: C_3  and  N_6
REMARK    5  A    between atoms: C_11  and  C_27
REMARK    6  A    between atoms: C_27  and  C_28
REMARK    7  A    between atoms: C_28  and  C_29
REMARK    8  A    between atoms: C_28  and  C_30
REMARK                            x       y       z     vdW  Elec       q    Type
REMARK                         _______ _______ _______ _____ _____    ______ ____
ROOT
ATOM      1  N   UNL     1      -1.736   2.860   0.157  0.00  0.00    -0.239 N 
ATOM      2  C   UNL     1      -1.005   1.822   0.625  0.00  0.00    +0.224 C 
ATOM      3  O   UNL     1      -1.104   1.316   1.722  0.00  0.00    -0.275 OA
ATOM      4  C   UNL     1      -0.039   1.387  -0.453  0.00  0.00    +0.073 C 
ATOM      5  C   UNL     1       1.404   1.698  -0.002  0.00  0.00    -0.057 C 
ATOM      6  C   UNL     1       0.980   3.188  -1.752  0.00  0.00    +0.050 C 
ATOM      7  C   UNL     1      -0.314   2.375  -1.622  0.00  0.00    +0.088 C 
ATOM      8  C   UNL     1      -1.427   3.247  -1.086  0.00  0.00    +0.225 C 
ATOM      9  O   UNL     1      -1.955   4.157  -1.688  0.00  0.00    -0.275 OA
ATOM     10  C   UNL     1       0.702   4.614  -2.132  0.00  0.00    -0.028 A 
ATOM     11  C   UNL     1      -0.029   5.625  -1.550  0.00  0.00    +0.004 A 
ATOM     12  C   UNL     1      -0.097   6.868  -2.156  0.00  0.00    +0.000 A 
ATOM     13  C   UNL     1       0.571   7.090  -3.346  0.00  0.00    +0.002 A 
ATOM     14  C   UNL     1       1.303   6.080  -3.934  0.00  0.00    +0.023 A 
ATOM     15  C   UNL     1       1.377   4.826  -3.331  0.00  0.00    +0.036 A 
ATOM     16  N   UNL     1       2.041   3.662  -3.724  0.00  0.00    -0.286 N 
ATOM     17  C   UNL     1       1.857   2.653  -2.851  0.00  0.00    +0.211 C 
ATOM     18  O   UNL     1       2.312   1.532  -2.934  0.00  0.00    -0.277 OA
ATOM     19  H   UNL     1       2.572   3.589  -4.533  0.00  0.00    +0.155 HD
ATOM     20  N   UNL     1       1.629   3.072  -0.458  0.00  0.00    +0.394 N 
ATOM     21  H   UNL     1       2.636   3.255  -0.548  0.00  0.00    -0.083 HD
ATOM     22  H   UNL     1       1.218   3.738   0.207  0.00  0.00    -0.083 HD
ENDROOT
BRANCH   1  23
ATOM     23  C   UNL     1      -2.778   3.512   0.954  0.00  0.00    +0.081 C 
ATOM     24  C   UNL     1      -3.858   2.490   1.316  0.00  0.00    +0.028 C 
BRANCH  23  26
ATOM     25  C   UNL     1      -1.171   5.188   1.876  0.00  0.00    +0.006 C 
ATOM     26  C   UNL     1      -2.161   4.078   2.234  0.00  0.00    +0.019 C 
ENDBRANCH  23  26
ENDBRANCH   1  23
BRANCH   5  27
ATOM     27  C   UNL     1       2.390   0.746  -0.681  0.00  0.00    -0.012 C 
BRANCH  27  28
ATOM     28  C   UNL     1       2.615  -0.477   0.210  0.00  0.00    -0.019 C 
ATOM     29  C   UNL     1       3.502  -1.485  -0.522  0.00  0.00    +0.007 C 
ATOM     30  C   UNL     1       3.299  -0.043   1.508  0.00  0.00    +0.007 C 
ENDBRANCH  27  28
ENDBRANCH   5  27
TORSDOF 4
