REMARK  Name = ZINC30875011
REMARK  3 active torsions:
REMARK  status: ('A' for Active; 'I' for Inactive)
REMARK    1  A    between atoms: C_3  and  S_8
REMARK    2  A    between atoms: S_8  and  N_11
REMARK    3  A    between atoms: N_15  and  C_18
REMARK                            x       y       z     vdW  Elec       q    Type
REMARK                         _______ _______ _______ _____ _____    ______ ____
ROOT
ATOM      1  N   UNL     1       1.222  -2.923  -1.605  0.00  0.00    -0.097 NA
ATOM      2  C   UNL     1       2.289  -2.628  -2.420  0.00  0.00    +0.202 C 
ATOM      3  N   UNL     1       3.295  -1.968  -1.938  0.00  0.00    -0.303 N 
ATOM      4  C   UNL     1       4.461  -1.603  -2.736  0.00  0.00    +0.193 C 
ATOM      5  N   UNL     1       4.564  -2.453  -3.928  0.00  0.00    -0.268 NA
ATOM      6  C   UNL     1       3.279  -2.478  -4.651  0.00  0.00    +0.193 C 
ATOM      7  N   UNL     1       2.270  -3.035  -3.736  0.00  0.00    -0.303 N 
ATOM      8  H   UNL     1       1.528  -3.756  -4.109  0.00  0.00    +0.150 HD
ATOM      9  H   UNL     1       3.243  -1.681  -0.877  0.00  0.00    +0.150 HD
ENDROOT
BRANCH   1  10
ATOM     10  S   UNL     1       1.230  -2.441  -0.021  0.00  0.00    +0.102 S 
ATOM     11  O   UNL     1       2.486  -2.834   0.516  0.00  0.00    -0.146 OA
ATOM     12  O   UNL     1      -0.004  -2.866   0.539  0.00  0.00    -0.146 OA
BRANCH  10  15
ATOM     13  C   UNL     1      -0.017   1.378   0.010  0.00  0.00    +0.040 A 
ATOM     14  C   UNL     1       0.002  -0.004   0.002  0.00  0.00    +0.032 A 
ATOM     15  C   UNL     1       1.208  -0.679  -0.013  0.00  0.00    +0.113 A 
ATOM     16  C   UNL     1       2.397   0.026  -0.020  0.00  0.00    +0.032 A 
ATOM     17  C   UNL     1       2.381   1.408  -0.013  0.00  0.00    +0.040 A 
ATOM     18  C   UNL     1       1.173   2.086   0.002  0.00  0.00    +0.124 A 
ATOM     19  F   UNL     1       1.156   3.437   0.009  0.00  0.00    -0.205 F 
ENDBRANCH  10  15
ENDBRANCH   1  10
BRANCH   5  20
ATOM     20  C   UNL     1       5.652  -1.999  -4.805  0.00  0.00    +0.060 C 
ATOM     21  C   UNL     1       6.776  -2.992  -5.109  0.00  0.00    +0.020 C 
ATOM     22  C   UNL     1       7.034  -1.807  -4.176  0.00  0.00    +0.020 C 
ENDBRANCH   5  20
TORSDOF 3
