REMARK  Name = ZINC26692702
REMARK  7 active torsions:
REMARK  status: ('A' for Active; 'I' for Inactive)
REMARK    1  A    between atoms: C_1  and  C_2
REMARK    2  A    between atoms: N_10  and  C_11
REMARK    3  A    between atoms: C_11  and  C_12
REMARK    4  A    between atoms: C_12  and  C_14
REMARK    5  A    between atoms: C_12  and  N_22
REMARK    6  A    between atoms: C_17  and  O_20
REMARK    7  A    between atoms: O_20  and  C_21
REMARK                            x       y       z     vdW  Elec       q    Type
REMARK                         _______ _______ _______ _____ _____    ______ ____
ROOT
ATOM      1  C   UNL     1      -0.480   0.819  -2.369  0.00  0.00    -0.020 C 
ENDROOT
BRANCH   1   2
ATOM      2  C   UNL     1       0.931   0.982  -2.874  0.00  0.00    -0.059 A 
ATOM      3  C   UNL     1       1.510   2.237  -2.913  0.00  0.00    +0.005 A 
ATOM      4  C   UNL     1       2.804   2.387  -3.370  0.00  0.00    +0.046 A 
ATOM      5  C   UNL     1       3.520   1.280  -3.801  0.00  0.00    +0.120 A 
ATOM      6  C   UNL     1       2.935   0.022  -3.766  0.00  0.00    +0.046 A 
ATOM      7  C   UNL     1       1.642  -0.124  -3.302  0.00  0.00    +0.005 A 
BRANCH   5   8
ATOM      8  O   UNL     1       4.792   1.426  -4.257  0.00  0.00    -0.495 OA
ATOM      9  C   UNL     1       5.330   2.750  -4.264  0.00  0.00    +0.277 C 
ENDBRANCH   5   8
ENDBRANCH   1   2
BRANCH   1  10
ATOM     10  N   UNL     1      -0.686   1.690  -1.204  0.00  0.00    +0.385 N 
ATOM     11  C   UNL     1       0.183   1.280  -0.072  0.00  0.00    -0.078 C 
ATOM     12  C   UNL     1      -0.494   1.880   1.179  0.00  0.00    -0.020 C 
ATOM     13  C   UNL     1      -1.977   2.057   0.782  0.00  0.00    -0.020 C 
ATOM     14  C   UNL     1      -2.067   1.550  -0.673  0.00  0.00    -0.078 C 
ATOM     15  H   UNL     1      -0.469   2.708  -1.561  0.00  0.00    -0.081 HD
ENDBRANCH   1  10
BRANCH   1  16
ATOM     16  C   UNL     1      -1.465   1.204  -3.475  0.00  0.00    +0.093 C 
BRANCH  16  26
ATOM     17  C   UNL     1      -4.603   0.403 -11.160  0.00  0.00    +0.067 C 
ATOM     18  C   UNL     1      -4.017   0.517  -9.776  0.00  0.00    +0.059 A 
ATOM     19  C   UNL     1      -3.143  -0.339  -9.218  0.00  0.00    +0.138 A 
ATOM     20  N   UNL     1      -2.854   0.124  -7.941  0.00  0.00    -0.212 N 
ATOM     21  C   UNL     1      -3.596   1.265  -7.805  0.00  0.00    +0.197 A 
ATOM     22  N   UNL     1      -4.278   1.490  -8.891  0.00  0.00    -0.225 NA
ATOM     23  S   UNL     1      -3.181   1.799  -6.161  0.00  0.00    -0.013 S 
ATOM     24  C   UNL     1      -2.052   0.475  -5.760  0.00  0.00    +0.182 A 
ATOM     25  N   UNL     1      -2.067  -0.239  -6.853  0.00  0.00    -0.142 NA
ATOM     26  N   UNL     1      -1.338   0.264  -4.591  0.00  0.00    -0.323 N 
ATOM     27  H   UNL     1      -0.677  -0.611  -4.501  0.00  0.00    +0.148 HD
ENDBRANCH  16  26
ENDBRANCH   1  16
TORSDOF 5
