REMARK  Name = ZINC04232132
REMARK  6 active torsions:
REMARK  status: ('A' for Active; 'I' for Inactive)
REMARK    1  A    between atoms: C_7  and  C_11
REMARK    2  A    between atoms: N_12  and  N_13
REMARK    3  A    between atoms: C_14  and  C_16
REMARK    4  A    between atoms: C_21  and  N_22
REMARK    5  A    between atoms: N_22  and  S_23
REMARK    6  A    between atoms: S_23  and  C_26
REMARK                            x       y       z     vdW  Elec       q    Type
REMARK                         _______ _______ _______ _____ _____    ______ ____
ROOT
ATOM      1  C   UNL     1       2.200   8.829  -0.239  0.00  0.00    +0.061 A 
ATOM      2  C   UNL     1       3.558   8.552  -0.416  0.00  0.00    +0.015 A 
ATOM      3  C   UNL     1       4.466   9.585  -0.490  0.00  0.00    +0.001 A 
ATOM      4  C   UNL     1       4.042  10.900  -0.381  0.00  0.00    +0.002 A 
ATOM      5  C   UNL     1       2.705  11.190  -0.201  0.00  0.00    +0.025 A 
ATOM      6  C   UNL     1       1.773  10.161  -0.128  0.00  0.00    +0.060 A 
ENDROOT
BRANCH   1   8
ATOM      7  N   UNL     1       1.636   6.450  -0.270  0.00  0.00    -0.203 N 
ATOM      8  C   UNL     1       1.222   7.728  -0.163  0.00  0.00    +0.265 C 
ATOM      9  O   UNL     1       0.041   7.974  -0.004  0.00  0.00    -0.268 OA
ATOM     10  H   UNL     1       2.578   6.255  -0.397  0.00  0.00    +0.178 HD
BRANCH   7  12
ATOM     11  C   UNL     1       1.107   4.172  -0.301  0.00  0.00    +0.140 C 
ATOM     12  N   UNL     1       0.707   5.404  -0.198  0.00  0.00    -0.187 NA
BRANCH  11  19
ATOM     13  C   UNL     1      -3.539   4.059   0.280  0.00  0.00    +0.001 A 
ATOM     14  C   UNL     1      -4.040   2.764   0.288  0.00  0.00    +0.002 A 
ATOM     15  C   UNL     1      -3.197   1.685   0.135  0.00  0.00    +0.026 A 
ATOM     16  C   UNL     1      -1.831   1.890  -0.034  0.00  0.00    +0.047 A 
ATOM     17  C   UNL     1      -1.326   3.200  -0.036  0.00  0.00    +0.008 A 
ATOM     18  C   UNL     1      -2.190   4.282   0.119  0.00  0.00    +0.010 A 
ATOM     19  C   UNL     1       0.130   3.074  -0.225  0.00  0.00    +0.020 A 
ATOM     20  C   UNL     1       0.396   1.742  -0.315  0.00  0.00    +0.093 A 
ATOM     21  N   UNL     1      -0.763   1.034  -0.199  0.00  0.00    -0.360 N 
ATOM     22  H   UNL     1      -0.828   0.067  -0.232  0.00  0.00    +0.165 HD
ENDBRANCH  11  19
ENDBRANCH   7  12
ENDBRANCH   1   8
BRANCH   6  23
ATOM     23  N   UNL     1       0.427  10.450   0.054  0.00  0.00    -0.216 N 
ATOM     24  H   UNL     1      -0.127   9.864   0.593  0.00  0.00    +0.174 HD
BRANCH  23  25
ATOM     25  S   UNL     1      -0.233  11.797  -0.649  0.00  0.00    +0.072 S 
ATOM     26  O   UNL     1      -1.630  11.745  -0.394  0.00  0.00    -0.150 OA
ATOM     27  O   UNL     1       0.573  12.898  -0.255  0.00  0.00    -0.150 OA
BRANCH  25  28
ATOM     28  C   UNL     1      -0.034  11.625  -2.392  0.00  0.00    +0.109 A 
ATOM     29  C   UNL     1       1.101  12.117  -3.009  0.00  0.00    +0.030 A 
ATOM     30  C   UNL     1       1.261  11.978  -4.375  0.00  0.00    +0.022 A 
ATOM     31  C   UNL     1       0.279  11.356  -5.126  0.00  0.00    +0.041 A 
ATOM     32  C   UNL     1      -0.859  10.869  -4.508  0.00  0.00    +0.022 A 
ATOM     33  C   UNL     1      -1.015  11.004  -3.142  0.00  0.00    +0.030 A 
ATOM     34 CL   UNL     1       0.476  11.187  -6.842  0.00  0.00    -0.084 Cl
ENDBRANCH  25  28
ENDBRANCH  23  25
ENDBRANCH   6  23
TORSDOF 6
