REMARK  Name = ZINC08836304
REMARK  6 active torsions:
REMARK  status: ('A' for Active; 'I' for Inactive)
REMARK    1  A    between atoms: C_1  and  O_2
REMARK    2  A    between atoms: O_2  and  C_3
REMARK    3  A    between atoms: C_6  and  C_9
REMARK    4  A    between atoms: C_10  and  O_11
REMARK    5  A    between atoms: C_24  and  C_26
REMARK    6  A    between atoms: C_29  and  N_32
REMARK                            x       y       z     vdW  Elec       q    Type
REMARK                         _______ _______ _______ _____ _____    ______ ____
ROOT
ATOM      1  C   UNL     1      -0.660   8.135   0.057  0.00  0.00    +0.082 A 
ATOM      2  C   UNL     1      -1.770   7.241   0.062  0.00  0.00    +0.147 A 
ATOM      3  C   UNL     1      -1.480   5.817   0.050  0.00  0.00    +0.098 A 
ATOM      4  C   UNL     1      -0.182   5.345   0.034  0.00  0.00    +0.155 A 
ATOM      5  C   UNL     1      -0.022   3.883   0.024  0.00  0.00    +0.032 A 
ATOM      6  C   UNL     1       1.189   3.151   0.008  0.00  0.00    +0.013 A 
ATOM      7  C   UNL     1       1.178   1.791   0.000  0.00  0.00    +0.001 A 
ATOM      8  C   UNL     1      -0.013   1.076   0.008  0.00  0.00    +0.001 A 
ATOM      9  C   UNL     1      -1.215   1.754   0.017  0.00  0.00    +0.016 A 
ATOM     10  C   UNL     1      -1.215   3.135   0.031  0.00  0.00    +0.024 A 
ATOM     11  S   UNL     1      -2.495   4.363   0.051  0.00  0.00    -0.081 S 
ATOM     12  O   UNL     1       0.821   6.272   0.030  0.00  0.00    -0.439 OA
ATOM     13  C   UNL     1       0.609   7.586   0.041  0.00  0.00    +0.205 A 
ATOM     14  N   UNL     1       1.696   8.432   0.036  0.00  0.00    -0.252 N 
ATOM     15  C   UNL     1       2.944   7.926   0.020  0.00  0.00    +0.250 C 
ATOM     16  O   UNL     1       3.111   6.722   0.011  0.00  0.00    -0.270 OA
ATOM     17  H   UNL     1       1.544   9.522   0.044  0.00  0.00    +0.158 HD
ENDROOT
BRANCH   1  21
ATOM     18  C   UNL     1      -1.232  12.348   0.088  0.00  0.00    +0.120 A 
ATOM     19  C   UNL     1      -1.633  11.587   1.177  0.00  0.00    +0.046 A 
ATOM     20  C   UNL     1      -1.449  10.220   1.171  0.00  0.00    +0.012 A 
ATOM     21  C   UNL     1      -0.860   9.603   0.067  0.00  0.00    -0.009 A 
ATOM     22  C   UNL     1      -0.454  10.371  -1.023  0.00  0.00    +0.012 A 
ATOM     23  C   UNL     1      -0.645  11.738  -1.011  0.00  0.00    +0.046 A 
BRANCH  18  25
ATOM     24  C   UNL     1      -0.979  14.418  -1.055  0.00  0.00    +0.277 C 
ATOM     25  O   UNL     1      -1.414  13.695   0.098  0.00  0.00    -0.495 OA
ENDBRANCH  18  25
ENDBRANCH   1  21
BRANCH  15  26
ATOM     26  C   UNL     1       4.110   8.833   0.015  0.00  0.00    +0.037 A 
ATOM     27  C   UNL     1       3.922  10.217   0.020  0.00  0.00    +0.015 A 
ATOM     28  C   UNL     1       5.015  11.059   0.020  0.00  0.00    +0.033 A 
ATOM     29  C   UNL     1       6.295  10.535   0.004  0.00  0.00    +0.126 A 
ATOM     30  C   UNL     1       6.489   9.165  -0.006  0.00  0.00    +0.033 A 
ATOM     31  C   UNL     1       5.405   8.312  -0.001  0.00  0.00    +0.015 A 
BRANCH  29  32
ATOM     32  N   UNL     1       7.463  11.444  -0.001  0.00  0.00    +0.056 N 
ATOM     33  O   UNL     1       8.592  10.986  -0.014  0.00  0.00    -0.126 OA
ATOM     34  O   UNL     1       7.296  12.651   0.008  0.00  0.00    -0.126 OA
ENDBRANCH  29  32
ENDBRANCH  15  26
BRANCH   2  35
ATOM     35  O   UNL     1      -2.919   7.655   0.076  0.00  0.00    -0.505 OA
ATOM     36  H   UNL     1      -3.760   6.946   0.080  0.00  0.00    +0.292 HD
ENDBRANCH   2  35
TORSDOF 5
