REMARK  Name = ZINC08644617
REMARK  7 active torsions:
REMARK  status: ('A' for Active; 'I' for Inactive)
REMARK    1  A    between atoms: C_1  and  C_2
REMARK    2  A    between atoms: C_2  and  C_3
REMARK    3  A    between atoms: C_3  and  C_26
REMARK    4  A    between atoms: N_6  and  C_10
REMARK    5  A    between atoms: C_10  and  C_11
REMARK    6  A    between atoms: N_16  and  C_17
REMARK    7  A    between atoms: C_23  and  C_25
REMARK                            x       y       z     vdW  Elec       q    Type
REMARK                         _______ _______ _______ _____ _____    ______ ____
ROOT
ATOM      1  C   UNL     1       0.002  -0.004   0.002  0.00  0.00    +0.138 C 
ATOM      2  C   UNL     1       0.150  -0.543   1.411  0.00  0.00    +0.251 C 
ATOM      3  O   UNL     1      -0.613  -0.384   2.340  0.00  0.00    -0.272 OA
ATOM      4  N   UNL     1       1.306  -1.236   1.417  0.00  0.00    -0.215 N 
ATOM      5  C   UNL     1       1.903  -1.210   0.220  0.00  0.00    +0.310 C 
ATOM      6  O   UNL     1       2.958  -1.763  -0.021  0.00  0.00    -0.252 OA
ATOM      7  N   UNL     1       1.205  -0.502  -0.687  0.00  0.00    -0.281 N 
ATOM      8  H   UNL     1       1.447  -0.350  -1.614  0.00  0.00    +0.152 HD
ENDROOT
BRANCH   1   9
ATOM      9  C   UNL     1      -0.018   1.503   0.010  0.00  0.00    -0.015 A 
ATOM     10  C   UNL     1      -1.225   2.178   0.020  0.00  0.00    +0.006 A 
ATOM     11  C   UNL     1      -1.244   3.560   0.032  0.00  0.00    +0.000 A 
ATOM     12  C   UNL     1      -0.056   4.267   0.025  0.00  0.00    +0.000 A 
ATOM     13  C   UNL     1       1.151   3.592   0.010  0.00  0.00    +0.000 A 
ATOM     14  C   UNL     1       1.169   2.210   0.003  0.00  0.00    +0.006 A 
ENDBRANCH   1   9
BRANCH   1  16
ATOM     15  C   UNL     1      -1.218  -2.084  -0.654  0.00  0.00    +0.007 C 
ATOM     16  C   UNL     1      -1.264  -0.554  -0.659  0.00  0.00    +0.037 C 
ENDBRANCH   1  16
BRANCH   4  17
ATOM     17  C   UNL     1       1.842  -1.932   2.589  0.00  0.00    +0.214 C 
BRANCH  17  18
ATOM     18  C   UNL     1       2.728  -0.995   3.368  0.00  0.00    +0.238 C 
ATOM     19  O   UNL     1       2.896   0.142   2.982  0.00  0.00    -0.274 OA
ATOM     20  N   UNL     1       3.335  -1.421   4.494  0.00  0.00    -0.239 N 
ATOM     21  C   UNL     1       4.128  -0.583   5.190  0.00  0.00    +0.306 C 
ATOM     22  O   UNL     1       4.296   0.556   4.803  0.00  0.00    -0.252 OA
ATOM     23  N   UNL     1       4.735  -1.010   6.316  0.00  0.00    -0.296 N 
ATOM     24  H   UNL     1       3.201  -2.331   4.802  0.00  0.00    +0.159 HD
ATOM     25  H   UNL     1       4.601  -1.919   6.624  0.00  0.00    +0.151 HD
BRANCH  23  26
ATOM     26  C   UNL     1       5.597  -0.099   7.073  0.00  0.00    +0.077 C 
ATOM     27  C   UNL     1       7.007  -0.120   6.480  0.00  0.00    +0.022 C 
ATOM     28  C   UNL     1       7.572  -1.539   6.558  0.00  0.00    +0.002 C 
ATOM     29  C   UNL     1       7.627  -1.987   8.020  0.00  0.00    +0.000 C 
ATOM     30  C   UNL     1       6.217  -1.966   8.613  0.00  0.00    +0.005 C 
ATOM     31  C   UNL     1       5.652  -0.546   8.535  0.00  0.00    +0.006 C 
ATOM     32  C   UNL     1       4.242  -0.525   9.128  0.00  0.00    +0.009 C 
ENDBRANCH  23  26
ENDBRANCH  17  18
ENDBRANCH   4  17
TORSDOF 5
