REMARK  Name = ZINC01402174
REMARK  9 active torsions:
REMARK  status: ('A' for Active; 'I' for Inactive)
REMARK    1  A    between atoms: C_1  and  C_2
REMARK    2  A    between atoms: C_2  and  O_3
REMARK    3  A    between atoms: O_3  and  C_4
REMARK    4  A    between atoms: C_6  and  C_11
REMARK    5  A    between atoms: C_9  and  O_10
REMARK    6  A    between atoms: C_13  and  C_26
REMARK    7  A    between atoms: C_14  and  C_25
REMARK    8  A    between atoms: C_21  and  C_23
REMARK    9  A    between atoms: C_21  and  C_24
REMARK                            x       y       z     vdW  Elec       q    Type
REMARK                         _______ _______ _______ _____ _____    ______ ____
ROOT
ATOM      1  C   UNL     1       2.447   4.220   0.001  0.00  0.00    +0.096 C 
ATOM      2  C   UNL     1       2.538   5.045   1.251  0.00  0.00    +0.058 C 
ATOM      3  C   UNL     1       2.296   6.365   1.233  0.00  0.00    +0.019 C 
ATOM      4  N   UNL     1       1.963   6.995   0.062  0.00  0.00    -0.320 N 
ATOM      5  C   UNL     1       2.248   6.417  -1.145  0.00  0.00    +0.016 C 
ATOM      6  C   UNL     1       2.496   5.092  -1.228  0.00  0.00    +0.024 C 
ATOM      7  C   UNL     1       2.807   4.488  -2.459  0.00  0.00    +0.162 C 
ATOM      8  O   UNL     1       3.014   3.292  -2.501  0.00  0.00    -0.292 OA
ATOM      9  C   UNL     1       2.886   5.297  -3.725  0.00  0.00    +0.086 C 
ATOM     10  C   UNL     1       3.293   6.732  -3.376  0.00  0.00    -0.023 C 
ATOM     11  C   UNL     1       2.283   7.293  -2.373  0.00  0.00    +0.058 C 
ATOM     12  C   UNL     1       4.691   6.733  -2.752  0.00  0.00    +0.011 C 
ATOM     13  C   UNL     1       3.296   7.589  -4.643  0.00  0.00    +0.011 C 
ATOM     14  C   UNL     1       2.392   7.161   2.510  0.00  0.00    +0.061 C 
ATOM     15  H   UNL     1       1.461   7.973   0.087  0.00  0.00    +0.152 HD
ENDROOT
BRANCH   1  18
ATOM     16  C   UNL     1      -0.016   1.356   0.009  0.00  0.00    +0.162 A 
ATOM     17  C   UNL     1       1.173   2.066   0.002  0.00  0.00    +0.054 A 
ATOM     18  C   UNL     1       1.153   3.449   0.010  0.00  0.00    -0.031 A 
ATOM     19  C   UNL     1      -0.053   4.125   0.025  0.00  0.00    +0.008 A 
ATOM     20  C   UNL     1      -1.243   3.422   0.032  0.00  0.00    +0.049 A 
ATOM     21  C   UNL     1      -1.230   2.037   0.019  0.00  0.00    +0.158 A 
BRANCH  21  22
ATOM     22  O   UNL     1      -2.400   1.344   0.021  0.00  0.00    -0.503 OA
ATOM     23  H   UNL     1      -3.359   1.883   0.028  0.00  0.00    +0.292 HD
ENDBRANCH  21  22
BRANCH  16  24
ATOM     24  O   UNL     1       0.002  -0.004   0.002  0.00  0.00    -0.489 OA
BRANCH  24  26
ATOM     25  C   UNL     1       1.104  -2.155  -0.020  0.00  0.00    +0.048 C 
ATOM     26  C   UNL     1       1.284  -0.635  -0.014  0.00  0.00    +0.226 C 
ENDBRANCH  24  26
ENDBRANCH  16  24
ENDBRANCH   1  18
BRANCH   2  27
ATOM     27  C   UNL     1       2.888   4.412   2.486  0.00  0.00    +0.097 C 
ATOM     28  N   UNL     1       3.166   3.909   3.467  0.00  0.00    -0.191 NA
ENDBRANCH   2  27
TORSDOF 5
