REMARK  Name = ZINC09545857
REMARK  12 active torsions:
REMARK  status: ('A' for Active; 'I' for Inactive)
REMARK    1  A    between atoms: C_1  and  C_2
REMARK    2  A    between atoms: C_2  and  C_3
REMARK    3  A    between atoms: C_3  and  C_4
REMARK    4  A    between atoms: C_4  and  N_5
REMARK    5  A    between atoms: C_9  and  S_27
REMARK    6  A    between atoms: C_13  and  S_14
REMARK    7  A    between atoms: S_14  and  C_15
REMARK    8  A    between atoms: C_15  and  C_16
REMARK    9  A    between atoms: N_18  and  C_19
REMARK   10  A    between atoms: C_21  and  C_26
REMARK   11  A    between atoms: C_24  and  C_25
REMARK   12  A    between atoms: S_27  and  N_30
REMARK                            x       y       z     vdW  Elec       q    Type
REMARK                         _______ _______ _______ _____ _____    ______ ____
ROOT
ATOM      1  N   UNL     1      -5.692  -2.306  -0.277  0.00  0.00    -0.319 N 
ATOM      2  C   UNL     1      -4.707  -1.386   0.042  0.00  0.00    +0.070 A 
ATOM      3  C   UNL     1      -4.184  -0.913   1.237  0.00  0.00    +0.030 A 
ATOM      4  C   UNL     1      -3.178   0.031   1.220  0.00  0.00    +0.030 A 
ATOM      5  C   UNL     1      -2.685   0.512   0.016  0.00  0.00    +0.107 A 
ATOM      6  C   UNL     1      -3.196   0.058  -1.179  0.00  0.00    +0.058 A 
ATOM      7  C   UNL     1      -4.212  -0.902  -1.180  0.00  0.00    +0.092 A 
ATOM      8  N   UNL     1      -4.899  -1.533  -2.168  0.00  0.00    -0.222 NA
ATOM      9  C   UNL     1      -5.769  -2.358  -1.641  0.00  0.00    +0.170 A 
ENDROOT
BRANCH   5  10
ATOM     10  S   UNL     1      -1.400   1.717   0.016  0.00  0.00    +0.056 S 
ATOM     11  O   UNL     1      -1.472   2.387   1.268  0.00  0.00    -0.153 OA
ATOM     12  O   UNL     1      -1.490   2.407  -1.223  0.00  0.00    -0.153 OA
BRANCH  10  13
ATOM     13  N   UNL     1       0.039   0.899  -0.001  0.00  0.00    -0.204 NA
ATOM     14  H   UNL     1       0.045  -0.071  -0.009  0.00  0.00    +0.144 HD
ATOM     15  H   UNL     1       0.876   1.389  -0.008  0.00  0.00    +0.144 HD
ENDBRANCH  10  13
ENDBRANCH   5  10
BRANCH   1  16
ATOM     16  C   UNL     1      -6.499  -3.079   0.669  0.00  0.00    +0.124 C 
BRANCH  16  17
ATOM     17  C   UNL     1      -7.768  -2.297   1.016  0.00  0.00    +0.021 C 
BRANCH  17  19
ATOM     18  C   UNL     1      -9.880  -2.323   2.350  0.00  0.00    +0.004 C 
ATOM     19  C   UNL     1      -8.611  -3.105   2.004  0.00  0.00    -0.002 C 
ENDBRANCH  17  19
ENDBRANCH  16  17
ENDBRANCH   1  16
BRANCH   9  20
ATOM     20  S   UNL     1      -6.875  -3.383  -2.553  0.00  0.00    -0.078 S 
BRANCH  20  21
ATOM     21  C   UNL     1      -6.410  -2.922  -4.241  0.00  0.00    +0.173 C 
BRANCH  21  22
ATOM     22  C   UNL     1      -7.251  -3.697  -5.223  0.00  0.00    +0.227 C 
ATOM     23  O   UNL     1      -8.082  -4.484  -4.821  0.00  0.00    -0.275 OA
ATOM     24  N   UNL     1      -7.079  -3.515  -6.547  0.00  0.00    -0.285 N 
ATOM     25  H   UNL     1      -6.473  -2.829  -6.868  0.00  0.00    +0.155 HD
BRANCH  24  26
ATOM     26  C   UNL     1      -7.775  -4.316  -7.459  0.00  0.00    +0.037 A 
ATOM     27  C   UNL     1      -8.217  -5.578  -7.082  0.00  0.00    +0.027 A 
ATOM     28  C   UNL     1      -8.908  -6.363  -7.983  0.00  0.00    -0.049 A 
ATOM     29  C   UNL     1      -9.152  -5.899  -9.263  0.00  0.00    +0.004 A 
ATOM     30  C   UNL     1      -8.710  -4.646  -9.643  0.00  0.00    +0.005 A 
ATOM     31  C   UNL     1      -8.022  -3.853  -8.745  0.00  0.00    -0.029 A 
ATOM     32  C   UNL     1      -7.540  -2.487  -9.160  0.00  0.00    +0.045 C 
ATOM     33  C   UNL     1      -9.392  -7.731  -7.573  0.00  0.00    +0.044 C 
ENDBRANCH  24  26
ENDBRANCH  21  22
ENDBRANCH  20  21
ENDBRANCH   9  20
TORSDOF 9
