REMARK  Name = ZINC08635772
REMARK  5 active torsions:
REMARK  status: ('A' for Active; 'I' for Inactive)
REMARK    1  A    between atoms: C_2  and  C_28
REMARK    2  A    between atoms: N_5  and  C_6
REMARK    3  A    between atoms: C_6  and  C_7
REMARK    4  A    between atoms: C_15  and  C_17
REMARK    5  A    between atoms: C_22  and  C_25
REMARK                            x       y       z     vdW  Elec       q    Type
REMARK                         _______ _______ _______ _____ _____    ______ ____
ROOT
ATOM      1  C   UNL     1      -0.781   1.976   1.157  0.00  0.00    -0.046 C 
ATOM      2  C   UNL     1      -0.106   1.527   2.456  0.00  0.00    -0.010 C 
ATOM      3  C   UNL     1       1.136   0.697   2.108  0.00  0.00    -0.004 C 
ATOM      4  C   UNL     1       2.082   1.563   1.266  0.00  0.00    -0.015 C 
ATOM      5  C   UNL     1       1.346   2.011   0.000  0.00  0.00    -0.078 C 
ATOM      6  C   UNL     1       0.002  -0.004   0.002  0.00  0.00    -0.065 C 
ATOM      7  C   UNL     1       0.699  -0.509   1.268  0.00  0.00    +0.062 C 
ATOM      8  N   UNL     1      -0.031   1.474  -0.014  0.00  0.00    +0.383 N 
ATOM      9  H   UNL     1      -0.502   1.788  -0.871  0.00  0.00    -0.081 HD
ENDROOT
BRANCH   7  10
ATOM     10  C   UNL     1      -0.256  -1.360   2.065  0.00  0.00    +0.217 C 
ATOM     11  O   UNL     1      -0.550  -1.043   3.198  0.00  0.00    -0.275 OA
ATOM     12  N   UNL     1      -0.783  -2.474   1.519  0.00  0.00    -0.301 N 
ATOM     13  C   UNL     1      -0.441  -2.868   0.146  0.00  0.00    +0.108 C 
ATOM     14  C   UNL     1       0.066  -4.318   0.166  0.00  0.00    +0.032 C 
ATOM     15  C   UNL     1      -0.984  -5.210   0.832  0.00  0.00    +0.078 C 
ATOM     16  C   UNL     1      -1.199  -4.756   2.278  0.00  0.00    +0.032 C 
ATOM     17  C   UNL     1      -1.715  -3.313   2.284  0.00  0.00    +0.108 C 
BRANCH  15  18
ATOM     18  C   UNL     1      -0.508  -6.640   0.821  0.00  0.00    +0.214 C 
ATOM     19  O   UNL     1      -0.356  -7.237   1.866  0.00  0.00    -0.276 OA
ATOM     20  N   UNL     1      -0.252  -7.256  -0.350  0.00  0.00    -0.329 N 
ATOM     21  H   UNL     1      -0.374  -6.779  -1.186  0.00  0.00    +0.145 HD
ATOM     22  H   UNL     1       0.054  -8.177  -0.357  0.00  0.00    +0.145 HD
ENDBRANCH  15  18
ENDBRANCH   7  10
BRANCH   1  23
ATOM     23  C   UNL     1      -2.208   1.427   1.106  0.00  0.00    +0.130 C 
BRANCH  23  28
ATOM     24  C   UNL     1      -3.486   1.211  -1.040  0.00  0.00    +0.138 A 
ATOM     25  C   UNL     1      -3.994   2.103  -1.943  0.00  0.00    +0.108 A 
ATOM     26  N   UNL     1      -3.671   3.326  -1.483  0.00  0.00    -0.130 NA
ATOM     27  N   UNL     1      -3.022   3.196  -0.381  0.00  0.00    -0.065 NA
ATOM     28  N   UNL     1      -2.891   1.952  -0.078  0.00  0.00    -0.253 N 
BRANCH  25  29
ATOM     29  C   UNL     1      -4.742   1.787  -3.179  0.00  0.00    -0.023 C 
ATOM     30  C   UNL     1      -5.034   0.564  -3.587  0.00  0.00    -0.021 C 
ATOM     31  C   UNL     1      -5.806   0.601  -4.886  0.00  0.00    +0.028 C 
ATOM     32  C   UNL     1      -5.581   2.027  -5.439  0.00  0.00    +0.009 C 
ATOM     33  C   UNL     1      -5.280   2.818  -4.144  0.00  0.00    +0.037 C 
ENDBRANCH  25  29
ENDBRANCH  23  28
ENDBRANCH   1  23
TORSDOF 5
