REMARK  Name = ZINC09601324
REMARK  7 active torsions:
REMARK  status: ('A' for Active; 'I' for Inactive)
REMARK    1  A    between atoms: C_1  and  C_2
REMARK    2  A    between atoms: C_2  and  C_3
REMARK    3  A    between atoms: C_3  and  C_4
REMARK    4  A    between atoms: C_4  and  S_5
REMARK    5  A    between atoms: S_5  and  C_6
REMARK    6  A    between atoms: C_19  and  C_22
REMARK    7  A    between atoms: C_27  and  C_28
REMARK                            x       y       z     vdW  Elec       q    Type
REMARK                         _______ _______ _______ _____ _____    ______ ____
ROOT
ATOM      1  C   UNL     1      -0.497   3.063   6.504  0.00  0.00    +0.212 A 
ATOM      2  N   UNL     1      -0.313   2.551   7.718  0.00  0.00    -0.184 NA
ATOM      3  C   UNL     1      -1.034   3.007   8.727  0.00  0.00    +0.248 A 
ATOM      4  C   UNL     1      -1.985   4.023   8.479  0.00  0.00    +0.156 A 
ATOM      5  N   UNL     1      -2.125   4.483   7.246  0.00  0.00    -0.141 NA
ATOM      6  N   UNL     1      -1.400   4.012   6.291  0.00  0.00    -0.122 NA
ATOM      7  C   UNL     1      -2.797   4.550   9.595  0.00  0.00    +0.029 A 
ATOM      8  C   UNL     1      -4.175   4.698   9.486  0.00  0.00    +0.027 A 
ATOM      9  C   UNL     1      -4.897   5.208  10.548  0.00  0.00    +0.019 A 
ATOM     10  C   UNL     1      -4.256   5.574  11.720  0.00  0.00    +0.017 A 
ATOM     11  C   UNL     1      -2.886   5.427  11.844  0.00  0.00    +0.025 A 
ATOM     12  C   UNL     1      -2.151   4.912  10.792  0.00  0.00    +0.040 A 
ATOM     13  N   UNL     1      -0.770   4.716  10.895  0.00  0.00    -0.305 N 
ATOM     14  C   UNL     1      -0.254   3.351  10.942  0.00  0.00    +0.297 C 
ATOM     15  O   UNL     1      -0.886   2.514   9.980  0.00  0.00    -0.449 OA
ATOM     16 BR   UNL     1      -6.771   5.407  10.401  0.00  0.00    -0.050 Br
ATOM     17  H   UNL     1      -0.166   5.474  10.935  0.00  0.00    +0.150 HD
ENDROOT
BRANCH  14  18
ATOM     18  C   UNL     1      -0.494   2.783  12.317  0.00  0.00    +0.056 A 
ATOM     19  C   UNL     1      -1.567   3.022  13.101  0.00  0.00    +0.114 A 
ATOM     20  N   UNL     1      -1.407   2.330  14.250  0.00  0.00    -0.284 N 
ATOM     21  H   UNL     1      -2.046   2.315  15.020  0.00  0.00    +0.188 HD
ATOM     22  N   UNL     1      -0.192   1.638  14.176  0.00  0.00    -0.173 NA
ATOM     23  C   UNL     1       0.360   1.903  13.011  0.00  0.00    +0.101 A 
BRANCH  23  24
ATOM     24  C   UNL     1       1.655   1.372  12.517  0.00  0.00    +0.003 A 
ATOM     25  C   UNL     1       1.774   0.935  11.200  0.00  0.00    +0.010 A 
ATOM     26  C   UNL     1       2.982   0.447  10.744  0.00  0.00    +0.001 A 
ATOM     27  C   UNL     1       4.070   0.381  11.596  0.00  0.00    +0.000 A 
ATOM     28  C   UNL     1       3.955   0.808  12.907  0.00  0.00    +0.001 A 
ATOM     29  C   UNL     1       2.753   1.303  13.371  0.00  0.00    +0.010 A 
ENDBRANCH  23  24
ENDBRANCH  14  18
BRANCH   1  30
ATOM     30  S   UNL     1       0.466   2.465   5.155  0.00  0.00    -0.084 S 
BRANCH  30  31
ATOM     31  C   UNL     1      -0.203   3.481   3.815  0.00  0.00    +0.077 C 
BRANCH  31  32
ATOM     32  C   UNL     1       0.504   3.127   2.505  0.00  0.00    +0.011 C 
BRANCH  32  34
ATOM     33  C   UNL     1       0.644   3.632   0.062  0.00  0.00    +0.004 C 
ATOM     34  C   UNL     1      -0.062   3.986   1.373  0.00  0.00    -0.003 C 
ENDBRANCH  32  34
ENDBRANCH  31  32
ENDBRANCH  30  31
ENDBRANCH   1  30
TORSDOF 6
