REMARK  Name = ZINC39971137
REMARK  10 active torsions:
REMARK  status: ('A' for Active; 'I' for Inactive)
REMARK    1  A    between atoms: C_1  and  C_2
REMARK    2  A    between atoms: N_12  and  S_13
REMARK    3  A    between atoms: S_13  and  C_16
REMARK    4  A    between atoms: C_19  and  N_22
REMARK    5  A    between atoms: N_22  and  C_23
REMARK    6  A    between atoms: C_23  and  N_25
REMARK    7  A    between atoms: N_25  and  C_26
REMARK    8  A    between atoms: C_29  and  N_32
REMARK    9  A    between atoms: N_32  and  C_33
REMARK   10  A    between atoms: C_34  and  C_36
REMARK                            x       y       z     vdW  Elec       q    Type
REMARK                         _______ _______ _______ _____ _____    ______ ____
ROOT
ATOM      1  C   UNL     1      -2.546  -2.851   2.227  0.00  0.00    +0.109 A 
ATOM      2  C   UNL     1      -3.265  -3.506   1.243  0.00  0.00    +0.030 A 
ATOM      3  C   UNL     1      -2.957  -4.812   0.916  0.00  0.00    +0.025 A 
ATOM      4  C   UNL     1      -1.926  -5.468   1.575  0.00  0.00    +0.033 A 
ATOM      5  C   UNL     1      -1.206  -4.807   2.562  0.00  0.00    +0.025 A 
ATOM      6  C   UNL     1      -1.515  -3.499   2.881  0.00  0.00    +0.030 A 
ENDROOT
BRANCH   1   7
ATOM      7  S   UNL     1      -2.941  -1.185   2.642  0.00  0.00    +0.075 S 
ATOM      8  O   UNL     1      -2.476  -0.976   3.968  0.00  0.00    -0.150 OA
ATOM      9  O   UNL     1      -4.298  -0.985   2.270  0.00  0.00    -0.150 OA
BRANCH   7  20
ATOM     10  C   UNL     1       0.402  -0.427   1.448  0.00  0.00    +0.030 C 
ATOM     11  C   UNL     1      -0.745   0.326   2.126  0.00  0.00    +0.095 C 
ATOM     12  C   UNL     1      -0.687   1.811   1.746  0.00  0.00    +0.029 C 
ATOM     13  C   UNL     1      -0.723   1.933   0.223  0.00  0.00    +0.039 C 
ATOM     14  C   UNL     1      -1.879   1.150  -0.342  0.00  0.00    -0.022 A 
ATOM     15  C   UNL     1      -2.346   1.464  -1.607  0.00  0.00    +0.043 A 
ATOM     16  C   UNL     1      -3.404   0.761  -2.154  0.00  0.00    +0.124 A 
ATOM     17  C   UNL     1      -4.002  -0.263  -1.439  0.00  0.00    +0.040 A 
ATOM     18  C   UNL     1      -3.541  -0.581  -0.177  0.00  0.00    +0.028 A 
ATOM     19  C   UNL     1      -2.479   0.127   0.375  0.00  0.00    +0.055 A 
ATOM     20  N   UNL     1      -2.033  -0.207   1.661  0.00  0.00    -0.200 N 
ATOM     21  F   UNL     1      -3.855   1.074  -3.389  0.00  0.00    -0.205 F 
ENDBRANCH   7  20
ENDBRANCH   1   7
BRANCH   4  22
ATOM     22  N   UNL     1      -1.612  -6.791   1.246  0.00  0.00    -0.297 N 
ATOM     23  H   UNL     1      -1.391  -7.425   1.946  0.00  0.00    +0.154 HD
BRANCH  22  24
ATOM     24  C   UNL     1      -1.618  -7.184  -0.043  0.00  0.00    +0.139 C 
ATOM     25  S   UNL     1      -1.861  -6.034  -1.288  0.00  0.00    -0.018 S 
BRANCH  24  26
ATOM     26  N   UNL     1      -1.433  -8.482  -0.352  0.00  0.00    -0.297 N 
ATOM     27  H   UNL     1      -1.218  -9.121   0.345  0.00  0.00    +0.154 HD
BRANCH  26  28
ATOM     28  C   UNL     1      -1.552  -8.910  -1.681  0.00  0.00    +0.033 A 
ATOM     29  C   UNL     1      -0.688  -9.876  -2.180  0.00  0.00    +0.025 A 
ATOM     30  C   UNL     1      -0.806 -10.297  -3.489  0.00  0.00    +0.025 A 
ATOM     31  C   UNL     1      -1.788  -9.755  -4.307  0.00  0.00    +0.036 A 
ATOM     32  C   UNL     1      -2.652  -8.789  -3.808  0.00  0.00    +0.025 A 
ATOM     33  C   UNL     1      -2.538  -8.372  -2.498  0.00  0.00    +0.025 A 
BRANCH  31  34
ATOM     34  N   UNL     1      -1.907 -10.182  -5.636  0.00  0.00    -0.275 N 
ATOM     35  C   UNL     1      -1.220 -11.398  -6.079  0.00  0.00    +0.138 C 
ATOM     36  C   UNL     1      -2.654  -9.475  -6.507  0.00  0.00    +0.216 C 
ATOM     37  O   UNL     1      -3.164  -8.431  -6.160  0.00  0.00    -0.276 OA
ATOM     38  C   UNL     1      -2.856  -9.982  -7.912  0.00  0.00    +0.109 C 
ENDBRANCH  31  34
ENDBRANCH  26  28
ENDBRANCH  24  26
ENDBRANCH  22  24
ENDBRANCH   4  22
TORSDOF 7
