REMARK  Name = ZINC38742582
REMARK  9 active torsions:
REMARK  status: ('A' for Active; 'I' for Inactive)
REMARK    1  A    between atoms: C_1  and  C_2
REMARK    2  A    between atoms: C_5  and  O_9
REMARK    3  A    between atoms: C_7  and  C_8
REMARK    4  A    between atoms: O_9  and  C_10
REMARK    5  A    between atoms: C_10  and  C_11
REMARK    6  A    between atoms: C_14  and  C_21
REMARK    7  A    between atoms: C_24  and  C_27
REMARK    8  A    between atoms: C_27  and  C_28
REMARK    9  A    between atoms: C_27  and  C_29
REMARK                            x       y       z     vdW  Elec       q    Type
REMARK                         _______ _______ _______ _____ _____    ______ ____
ROOT
ATOM      1  C   UNL     1       0.079  -6.266  -1.108  0.00  0.00    +0.132 C 
ATOM      2  N   UNL     1       0.087  -6.927   0.002  0.00  0.00    -0.175 NA
ATOM      3  N   UNL     1       0.156  -8.302   0.061  0.00  0.00    -0.206 N 
ATOM      4  C   UNL     1       0.505  -9.455   0.924  0.00  0.00    +0.206 C 
ATOM      5  N   UNL     1       1.172 -10.431   0.028  0.00  0.00    -0.231 NA
ATOM      6  N   UNL     1       1.092  -9.873  -1.333  0.00  0.00    -0.224 NA
ATOM      7  C   UNL     1      -0.080  -8.978  -1.255  0.00  0.00    +0.240 C 
ATOM      8  S   UNL     1       0.089  -7.535  -2.367  0.00  0.00    -0.064 S 
ATOM      9  H   UNL     1       2.131 -10.577   0.303  0.00  0.00    +0.143 HD
ATOM     10  H   UNL     1       0.945 -10.603  -2.015  0.00  0.00    +0.144 HD
ENDROOT
BRANCH   4  11
ATOM     11  C   UNL     1       1.459  -9.015   2.036  0.00  0.00    +0.190 C 
ATOM     12  C   UNL     1       1.873 -10.202   2.888  0.00  0.00    +0.030 C 
ATOM     13  C   UNL     1       1.420  -9.896   4.106  0.00  0.00    +0.064 C 
ATOM     14  N   UNL     1       0.795  -8.698   4.099  0.00  0.00    -0.158 NA
ATOM     15  N   UNL     1       0.771  -8.137   2.996  0.00  0.00    -0.177 NA
BRANCH  13  16
ATOM     16  C   UNL     1       1.582 -10.769   5.324  0.00  0.00    +0.033 C 
ATOM     17  C   UNL     1       2.368 -10.010   6.394  0.00  0.00    +0.014 C 
ATOM     18  C   UNL     1       0.203 -11.142   5.871  0.00  0.00    +0.014 C 
ENDBRANCH  13  16
ENDBRANCH   4  11
BRANCH   1  19
ATOM     19  C   UNL     1       0.058  -4.771  -1.298  0.00  0.00    +0.293 C 
BRANCH  19  20
ATOM     20  O   UNL     1       0.057  -4.129  -0.021  0.00  0.00    -0.485 OA
BRANCH  20  25
ATOM     21  C   UNL     1      -0.018   1.503   0.010  0.00  0.00    +0.044 C 
ATOM     22  C   UNL     1       0.002  -0.004   0.002  0.00  0.00    -0.047 A 
ATOM     23  C   UNL     1       0.006  -0.688  -1.200  0.00  0.00    +0.007 A 
ATOM     24  C   UNL     1       0.024  -2.069  -1.210  0.00  0.00    +0.046 A 
ATOM     25  C   UNL     1       0.039  -2.770  -0.013  0.00  0.00    +0.121 A 
ATOM     26  C   UNL     1       0.036  -2.082   1.191  0.00  0.00    +0.049 A 
ATOM     27  C   UNL     1       0.023  -0.701   1.196  0.00  0.00    -0.044 A 
ATOM     28  C   UNL     1       0.025   0.048   2.504  0.00  0.00    +0.044 C 
ENDBRANCH  20  25
ENDBRANCH  19  20
ENDBRANCH   1  19
TORSDOF 5
