REMARK  Name = ZINC06198141
REMARK  13 active torsions:
REMARK  status: ('A' for Active; 'I' for Inactive)
REMARK    1  A    between atoms: C_1  and  C_2
REMARK    2  A    between atoms: C_2  and  C_3
REMARK    3  A    between atoms: C_10  and  C_15
REMARK    4  A    between atoms: C_15  and  C_17
REMARK    5  A    between atoms: C_15  and  N_69
REMARK    6  A    between atoms: N_21  and  C_22
REMARK    7  A    between atoms: C_22  and  C_23
REMARK    8  A    between atoms: C_22  and  C_24
REMARK    9  A    between atoms: C_22  and  C_25
REMARK   10  A    between atoms: C_26  and  C_27
REMARK   11  A    between atoms: C_26  and  N_69
REMARK   12  A    between atoms: C_33  and  C_34
REMARK   13  A    between atoms: C_33  and  N_69
REMARK                            x       y       z     vdW  Elec       q    Type
REMARK                         _______ _______ _______ _____ _____    ______ ____
ROOT
ATOM      1  C   UNL     1       6.559  -0.129  -0.615  0.00  0.00    +0.040 C 
ENDROOT
BRANCH   1   9
ATOM      2  C   UNL     1       0.529  -1.313   0.104  0.00  0.00    -0.047 A 
ATOM      3  C   UNL     1       0.068  -0.187  -0.565  0.00  0.00    +0.005 A 
ATOM      4  C   UNL     1       0.953   0.720  -1.107  0.00  0.00    +0.026 A 
ATOM      5  C   UNL     1       2.322   0.507  -0.984  0.00  0.00    +0.049 A 
ATOM      6  C   UNL     1       2.785  -0.636  -0.305  0.00  0.00    -0.001 A 
ATOM      7  C   UNL     1       1.869  -1.543   0.237  0.00  0.00    +0.013 A 
ATOM      8  C   UNL     1       4.228  -0.851  -0.180  0.00  0.00    +0.017 A 
ATOM      9  C   UNL     1       5.069   0.062  -0.725  0.00  0.00    +0.011 A 
ATOM     10  C   UNL     1       4.553   1.192  -1.396  0.00  0.00    +0.251 A 
ATOM     11  O   UNL     1       5.326   2.001  -1.879  0.00  0.00    -0.268 OA
ATOM     12  N   UNL     1       3.229   1.398  -1.516  0.00  0.00    -0.322 N 
ATOM     13  H   UNL     1       2.899   2.210  -1.998  0.00  0.00    +0.169 HD
BRANCH   2  15
ATOM     14  C   UNL     1      -0.796  -3.359  -0.353  0.00  0.00    +0.009 C 
ATOM     15  C   UNL     1      -0.459  -2.290   0.689  0.00  0.00    +0.032 C 
ENDBRANCH   2  15
ENDBRANCH   1   9
BRANCH   1  16
ATOM     16  C   UNL     1       7.131   0.910   0.316  0.00  0.00    +0.143 A 
ATOM     17  N   UNL     1       7.128   2.208   0.136  0.00  0.00    -0.115 NA
ATOM     18  N   UNL     1       7.709   2.752   1.149  0.00  0.00    -0.023 NA
ATOM     19  N   UNL     1       8.083   1.834   1.971  0.00  0.00    -0.043 NA
ATOM     20  N   UNL     1       7.740   0.685   1.495  0.00  0.00    -0.225 N 
BRANCH  20  21
ATOM     21  C   UNL     1       7.973  -0.620   2.119  0.00  0.00    +0.059 C 
ATOM     22  C   UNL     1       8.832  -1.483   1.192  0.00  0.00    +0.036 C 
ATOM     23  C   UNL     1       8.699  -0.426   3.451  0.00  0.00    +0.036 C 
ATOM     24  C   UNL     1       6.632  -1.314   2.365  0.00  0.00    +0.036 C 
ENDBRANCH  20  21
ENDBRANCH   1  16
BRANCH   1  25
ATOM     25  N   UNL     1       7.160   0.036  -1.955  0.00  0.00    +0.395 N 
ATOM     26  H   UNL     1       6.758   0.870  -2.400  0.00  0.00    -0.079 HD
BRANCH  25  27
ATOM     27  C   UNL     1       8.622   0.213  -1.835  0.00  0.00    -0.041 C 
BRANCH  27  28
ATOM     28  C   UNL     1       9.178   0.597  -3.182  0.00  0.00    -0.064 A 
ATOM     29  C   UNL     1       9.617  -0.382  -4.053  0.00  0.00    +0.002 A 
ATOM     30  C   UNL     1      10.121  -0.031  -5.291  0.00  0.00    +0.000 A 
ATOM     31  C   UNL     1      10.197   1.301  -5.654  0.00  0.00    +0.000 A 
ATOM     32  C   UNL     1       9.764   2.281  -4.780  0.00  0.00    +0.000 A 
ATOM     33  C   UNL     1       9.254   1.929  -3.545  0.00  0.00    +0.002 A 
ENDBRANCH  27  28
ENDBRANCH  25  27
BRANCH  25  34
ATOM     34  C   UNL     1       6.861  -1.146  -2.791  0.00  0.00    -0.034 C 
BRANCH  34  35
ATOM     35  C   UNL     1       5.459  -1.015  -3.327  0.00  0.00    -0.027 A 
ATOM     36  C   UNL     1       4.992  -0.204  -4.307  0.00  0.00    +0.009 A 
ATOM     37  C   UNL     1       3.651  -0.255  -4.637  0.00  0.00    +0.008 A 
ATOM     38  C   UNL     1       2.842  -1.115  -3.971  0.00  0.00    +0.045 A 
ATOM     39  S   UNL     1       3.983  -1.895  -2.841  0.00  0.00    -0.103 S 
ENDBRANCH  34  35
ENDBRANCH  25  34
ENDBRANCH   1  25
TORSDOF 9
