REMARK  Name = ZINC03416615
REMARK  10 active torsions:
REMARK  status: ('A' for Active; 'I' for Inactive)
REMARK    1  A    between atoms: C_1  and  C_2
REMARK    2  A    between atoms: C_5  and  N_9
REMARK    3  A    between atoms: C_7  and  C_8
REMARK    4  A    between atoms: C_19  and  N_20
REMARK    5  A    between atoms: N_20  and  N_21
REMARK    6  A    between atoms: C_22  and  C_24
REMARK    7  A    between atoms: C_24  and  N_25
REMARK    8  A    between atoms: N_25  and  C_26
REMARK    9  A    between atoms: C_31  and  O_32
REMARK   10  A    between atoms: O_32  and  C_33
REMARK                            x       y       z     vdW  Elec       q    Type
REMARK                         _______ _______ _______ _____ _____    ______ ____
ROOT
ATOM      1  N   UNL     1       2.474  -2.728  -0.300  0.00  0.00    -0.202 N 
ATOM      2  C   UNL     1       1.391  -2.021  -0.662  0.00  0.00    +0.258 C 
ATOM      3  O   UNL     1       0.430  -2.597  -1.135  0.00  0.00    -0.269 OA
ATOM      4  C   UNL     1       1.348  -0.562  -0.496  0.00  0.00    +0.046 A 
ATOM      5  C   UNL     1       0.227   0.179  -0.870  0.00  0.00    +0.014 A 
ATOM      6  C   UNL     1       0.225   1.547  -0.698  0.00  0.00    +0.001 A 
ATOM      7  C   UNL     1       1.327   2.195  -0.158  0.00  0.00    +0.001 A 
ATOM      8  C   UNL     1       2.446   1.480   0.218  0.00  0.00    +0.009 A 
ATOM      9  C   UNL     1       2.466   0.100   0.052  0.00  0.00    +0.000 A 
ATOM     10  C   UNL     1       3.639  -0.713   0.438  0.00  0.00    +0.060 C 
ATOM     11  C   UNL     1       4.761  -0.126   0.980  0.00  0.00    +0.101 C 
ATOM     12  C   UNL     1       3.571  -2.163   0.228  0.00  0.00    +0.259 C 
ATOM     13  O   UNL     1       4.520  -2.861   0.536  0.00  0.00    -0.269 OA
ENDROOT
BRANCH   1  18
ATOM     14  C   UNL     1       2.404  -8.355  -1.032  0.00  0.00    +0.044 C 
ATOM     15  C   UNL     1       2.423  -6.861  -0.837  0.00  0.00    -0.047 A 
ATOM     16  C   UNL     1       1.970  -6.314   0.349  0.00  0.00    +0.005 A 
ATOM     17  C   UNL     1       1.986  -4.945   0.531  0.00  0.00    +0.024 A 
ATOM     18  C   UNL     1       2.456  -4.118  -0.480  0.00  0.00    +0.045 A 
ATOM     19  C   UNL     1       2.905  -4.670  -1.673  0.00  0.00    +0.027 A 
ATOM     20  C   UNL     1       2.892  -6.040  -1.846  0.00  0.00    -0.046 A 
ATOM     21  C   UNL     1       3.384  -6.640  -3.138  0.00  0.00    +0.044 C 
ENDBRANCH   1  18
BRANCH  11  22
ATOM     22  N   UNL     1       4.653   1.040   1.669  0.00  0.00    -0.271 N 
ATOM     23  H   UNL     1       3.777   1.407   1.867  0.00  0.00    +0.169 HD
BRANCH  22  24
ATOM     24  N   UNL     1       5.806   1.713   2.092  0.00  0.00    -0.236 N 
ATOM     25  C   UNL     1       5.699   2.870   2.775  0.00  0.00    +0.246 C 
ATOM     26  O   UNL     1       4.604   3.329   3.023  0.00  0.00    -0.273 OA
ATOM     27  H   UNL     1       6.682   1.347   1.894  0.00  0.00    +0.173 HD
BRANCH  25  28
ATOM     28  C   UNL     1       6.940   3.594   3.231  0.00  0.00    +0.199 C 
BRANCH  28  29
ATOM     29  N   UNL     1       6.558   4.815   3.946  0.00  0.00    -0.333 N 
ATOM     30  H   UNL     1       5.621   5.038   4.058  0.00  0.00    +0.147 HD
BRANCH  29  31
ATOM     31  C   UNL     1       7.546   5.658   4.467  0.00  0.00    +0.070 A 
ATOM     32  C   UNL     1       8.887   5.338   4.312  0.00  0.00    +0.026 A 
ATOM     33  C   UNL     1       9.861   6.175   4.823  0.00  0.00    +0.002 A 
ATOM     34  C   UNL     1       9.502   7.327   5.498  0.00  0.00    +0.004 A 
ATOM     35  C   UNL     1       8.167   7.651   5.660  0.00  0.00    +0.047 A 
ATOM     36  C   UNL     1       7.185   6.819   5.147  0.00  0.00    +0.141 A 
BRANCH  36  37
ATOM     37  O   UNL     1       5.872   7.136   5.306  0.00  0.00    -0.493 OA
ATOM     38  C   UNL     1       5.577   8.342   6.014  0.00  0.00    +0.277 C 
ENDBRANCH  36  37
ENDBRANCH  29  31
ENDBRANCH  28  29
ENDBRANCH  25  28
ENDBRANCH  22  24
ENDBRANCH  11  22
TORSDOF 7
