REMARK  Name = ZINC01873879
REMARK  7 active torsions:
REMARK  status: ('A' for Active; 'I' for Inactive)
REMARK    1  A    between atoms: C_3  and  C_6
REMARK    2  A    between atoms: C_6  and  N_7
REMARK    3  A    between atoms: C_15  and  C_19
REMARK    4  A    between atoms: C_15  and  N_23
REMARK    5  A    between atoms: C_24  and  C_26
REMARK    6  A    between atoms: C_26  and  C_27
REMARK    7  A    between atoms: C_27  and  C_28
REMARK                            x       y       z     vdW  Elec       q    Type
REMARK                         _______ _______ _______ _____ _____    ______ ____
ROOT
ATOM      1  N   UNL     1       3.904   0.678   1.492  0.00  0.00    -0.274 N 
ATOM      2  C   UNL     1       4.177  -0.545   2.068  0.00  0.00    +0.121 A 
ATOM      3  C   UNL     1       4.704  -0.565   3.326  0.00  0.00    +0.096 A 
ATOM      4  C   UNL     1       4.955   0.634   4.003  0.00  0.00    +0.262 A 
ATOM      5  N   UNL     1       4.672   1.807   3.399  0.00  0.00    -0.275 N 
ATOM      6  C   UNL     1       4.158   1.819   2.155  0.00  0.00    +0.331 A 
ATOM      7  O   UNL     1       3.913   2.884   1.622  0.00  0.00    -0.246 OA
ATOM      8  O   UNL     1       5.426   0.619   5.128  0.00  0.00    -0.267 OA
ATOM      9  C   UNL     1       4.894  -2.018   3.691  0.00  0.00    +0.240 C 
ATOM     10  C   UNL     1       4.400  -2.759   2.465  0.00  0.00    +0.256 C 
ATOM     11  O   UNL     1       4.365  -3.961   2.308  0.00  0.00    -0.272 OA
ATOM     12  N   UNL     1       4.008  -1.820   1.586  0.00  0.00    -0.269 N 
ATOM     13  H   UNL     1       4.843   2.643   3.860  0.00  0.00    +0.173 HD
ATOM     14  H   UNL     1       3.646  -2.021   0.709  0.00  0.00    +0.156 HD
ENDROOT
BRANCH   9  15
ATOM     15  C   UNL     1       4.051  -2.381   4.916  0.00  0.00    +0.424 C 
ATOM     16  F   UNL     1       2.715  -2.037   4.681  0.00  0.00    -0.167 F 
ATOM     17  F   UNL     1       4.143  -3.756   5.155  0.00  0.00    -0.167 F 
ATOM     18  F   UNL     1       4.524  -1.681   6.031  0.00  0.00    -0.167 F 
ENDBRANCH   9  15
BRANCH   9  19
ATOM     19  N   UNL     1       6.309  -2.308   3.934  0.00  0.00    -0.291 N 
ATOM     20  C   UNL     1       7.222  -2.058   2.974  0.00  0.00    +0.214 C 
ATOM     21  O   UNL     1       6.886  -1.515   1.944  0.00  0.00    -0.276 OA
ATOM     22  H   UNL     1       6.590  -2.679   4.785  0.00  0.00    +0.150 HD
BRANCH  20  23
ATOM     23  C   UNL     1       8.661  -2.454   3.182  0.00  0.00    +0.096 C 
BRANCH  23  24
ATOM     24  C   UNL     1       9.481  -2.061   1.952  0.00  0.00    +0.013 C 
BRANCH  24  25
ATOM     25  C   UNL     1      10.942  -2.463   2.163  0.00  0.00    -0.011 C 
ATOM     26  C   UNL     1      11.533  -1.653   3.318  0.00  0.00    +0.003 C 
ATOM     27  C   UNL     1      12.994  -2.055   3.530  0.00  0.00    +0.000 C 
ATOM     28  C   UNL     1      13.789  -1.776   2.253  0.00  0.00    +0.000 C 
ATOM     29  C   UNL     1      13.199  -2.586   1.097  0.00  0.00    +0.000 C 
ATOM     30  C   UNL     1      11.738  -2.184   0.886  0.00  0.00    +0.003 C 
ENDBRANCH  24  25
ENDBRANCH  23  24
ENDBRANCH  20  23
ENDBRANCH   9  19
BRANCH   1  31
ATOM     31  C   UNL     1       3.338   0.734   0.141  0.00  0.00    +0.202 C 
BRANCH  31  34
ATOM     32  C   UNL     1      -0.291   1.329   0.373  0.00  0.00    +0.041 A 
ATOM     33  C   UNL     1       1.040   1.801   0.319  0.00  0.00    +0.046 A 
ATOM     34  C   UNL     1       1.834   0.719   0.226  0.00  0.00    +0.125 A 
ATOM     35  O   UNL     1       1.058  -0.377   0.221  0.00  0.00    -0.466 OA
ATOM     36  C   UNL     1      -0.232  -0.013   0.310  0.00  0.00    +0.195 A 
ENDBRANCH  31  34
ENDBRANCH   1  31
TORSDOF 7
