REMARK  Name = ZINC14608993
REMARK  4 active torsions:
REMARK  status: ('A' for Active; 'I' for Inactive)
REMARK    1  A    between atoms: C_1  and  C_2
REMARK    2  A    between atoms: N_8  and  C_9
REMARK    3  A    between atoms: C_9  and  C_10
REMARK    4  A    between atoms: C_18  and  C_20
REMARK                            x       y       z     vdW  Elec       q    Type
REMARK                         _______ _______ _______ _____ _____    ______ ____
ROOT
ATOM      1  C   UNL     1       0.865  -0.347   3.613  0.00  0.00    +0.034 A 
ATOM      2  C   UNL     1       1.477   0.615   4.367  0.00  0.00    +0.093 A 
ATOM      3  C   UNL     1       2.217   0.222   5.497  0.00  0.00    +0.276 A 
ATOM      4  O   UNL     1       2.776   1.053   6.194  0.00  0.00    -0.266 OA
ATOM      5  N   UNL     1       2.295  -1.089   5.795  0.00  0.00    -0.159 N 
ATOM      6  C   UNL     1       1.663  -2.014   5.008  0.00  0.00    +0.257 A 
ATOM      7  N   UNL     1       0.965  -1.628   3.948  0.00  0.00    -0.217 NA
ATOM      8  N   UNL     1       1.902  -3.230   5.527  0.00  0.00    -0.189 NA
ATOM      9  C   UNL     1       2.653  -3.124   6.603  0.00  0.00    +0.184 A 
ATOM     10  N   UNL     1       2.931  -1.800   6.821  0.00  0.00    -0.140 NA
ENDROOT
BRANCH   9  11
ATOM     11  C   UNL     1       3.119  -4.248   7.438  0.00  0.00    +0.021 A 
ATOM     12  C   UNL     1       3.910  -4.005   8.564  0.00  0.00    +0.013 A 
ATOM     13  C   UNL     1       4.342  -5.059   9.340  0.00  0.00    +0.021 A 
ATOM     14  C   UNL     1       3.994  -6.358   9.006  0.00  0.00    +0.041 A 
ATOM     15  C   UNL     1       3.210  -6.606   7.891  0.00  0.00    +0.021 A 
ATOM     16  C   UNL     1       2.767  -5.560   7.109  0.00  0.00    +0.013 A 
ATOM     17 CL   UNL     1       4.543  -7.680   9.988  0.00  0.00    -0.084 Cl
ENDBRANCH   9  11
BRANCH   1  18
ATOM     18  C   UNL     1       0.067   0.050   2.397  0.00  0.00    -0.022 C 
BRANCH  18  25
ATOM     19  C   UNL     1      -0.019   1.526   0.010  0.00  0.00    -0.013 C 
ATOM     20  C   UNL     1       0.002  -0.004   0.002  0.00  0.00    -0.071 C 
ATOM     21  C   UNL     1       0.717  -0.497  -1.258  0.00  0.00    -0.016 C 
ATOM     22  C   UNL     1       0.735  -2.028  -1.262  0.00  0.00    -0.003 C 
ATOM     23  C   UNL     1       1.410  -2.524   0.020  0.00  0.00    -0.019 C 
ATOM     24  C   UNL     1       0.669  -1.956   1.232  0.00  0.00    -0.078 C 
ATOM     25  N   UNL     1       0.711  -0.490   1.192  0.00  0.00    +0.385 N 
ATOM     26  H   UNL     1       1.671  -0.182   1.159  0.00  0.00    -0.081 HD
ENDBRANCH  18  25
ENDBRANCH   1  18
TORSDOF 3
