REMARK  Name = ZINC66977437
REMARK  6 active torsions:
REMARK  status: ('A' for Active; 'I' for Inactive)
REMARK    1  A    between atoms: C_1  and  C_2
REMARK    2  A    between atoms: C_2  and  N_3
REMARK    3  A    between atoms: C_7  and  N_10
REMARK    4  A    between atoms: C_16  and  N_19
REMARK    5  A    between atoms: C_20  and  C_22
REMARK    6  A    between atoms: C_22  and  C_23
REMARK                            x       y       z     vdW  Elec       q    Type
REMARK                         _______ _______ _______ _____ _____    ______ ____
ROOT
ATOM      1  N   UNL     1      -2.766  -3.965   0.328  0.00  0.00    -0.298 N 
ATOM      2  C   UNL     1      -3.796  -4.613   0.907  0.00  0.00    +0.302 C 
ATOM      3  O   UNL     1      -4.700  -3.982   1.419  0.00  0.00    -0.253 OA
ATOM      4  N   UNL     1      -3.823  -5.961   0.919  0.00  0.00    -0.286 N 
ATOM      5  C   UNL     1      -2.684  -6.737   0.409  0.00  0.00    +0.111 C 
ATOM      6  C   UNL     1      -3.194  -7.728  -0.642  0.00  0.00    +0.041 C 
ATOM      7  C   UNL     1      -4.313  -8.578  -0.035  0.00  0.00    +0.076 C 
ATOM      8  C   UNL     1      -5.476  -7.673   0.380  0.00  0.00    +0.041 C 
ATOM      9  C   UNL     1      -4.989  -6.681   1.447  0.00  0.00    +0.111 C 
ATOM     10  H   UNL     1      -2.009  -4.466  -0.015  0.00  0.00    +0.150 HD
ENDROOT
BRANCH   1  15
ATOM     11  N   UNL     1      -1.379  -0.512   0.008  0.00  0.00    +0.381 N 
ATOM     12  C   UNL     1      -2.054  -0.119  -1.235  0.00  0.00    -0.079 C 
ATOM     13  C   UNL     1      -3.513  -0.577  -1.193  0.00  0.00    -0.017 C 
ATOM     14  C   UNL     1      -3.561  -2.101  -1.044  0.00  0.00    +0.018 C 
ATOM     15  C   UNL     1      -2.790  -2.505   0.216  0.00  0.00    +0.058 C 
ATOM     16  C   UNL     1      -1.357  -1.975   0.122  0.00  0.00    -0.056 C 
ATOM     17  H   UNL     1      -1.874  -0.122   0.795  0.00  0.00    -0.082 HD
BRANCH  11  19
ATOM     18  C   UNL     1      -0.022   1.527   0.004  0.00  0.00    -0.017 C 
ATOM     19  C   UNL     1      -0.001  -0.003  -0.003  0.00  0.00    -0.082 C 
ENDBRANCH  11  19
ENDBRANCH   1  15
BRANCH   7  20
ATOM     20  N   UNL     1      -4.781  -9.550  -1.027  0.00  0.00    -0.312 N 
ATOM     21  C   UNL     1      -5.362 -10.697  -0.624  0.00  0.00    +0.214 C 
ATOM     22  O   UNL     1      -5.499 -10.925   0.559  0.00  0.00    -0.276 OA
ATOM     23  H   UNL     1      -4.672  -9.367  -1.973  0.00  0.00    +0.149 HD
BRANCH  21  24
ATOM     24  C   UNL     1      -5.843 -11.696  -1.644  0.00  0.00    +0.099 C 
BRANCH  24  25
ATOM     25  C   UNL     1      -6.459 -12.900  -0.928  0.00  0.00    -0.002 C 
ATOM     26  C   UNL     1      -5.365 -13.684  -0.175  0.00  0.00    +0.004 C 
ATOM     27  C   UNL     1      -5.777 -15.167  -0.342  0.00  0.00    +0.000 C 
ATOM     28  C   UNL     1      -6.320 -15.210  -1.792  0.00  0.00    +0.000 C 
ATOM     29  C   UNL     1      -7.067 -13.871  -1.956  0.00  0.00    +0.004 C 
ENDBRANCH  24  25
ENDBRANCH  21  24
ENDBRANCH   7  20
TORSDOF 5
