REMARK  Name = ZINC08026391
REMARK  5 active torsions:
REMARK  status: ('A' for Active; 'I' for Inactive)
REMARK    1  A    between atoms: C_1  and  C_2
REMARK    2  A    between atoms: C_4  and  C_8
REMARK    3  A    between atoms: N_10  and  N_11
REMARK    4  A    between atoms: C_12  and  C_13
REMARK    5  A    between atoms: C_16  and  C_18
REMARK                            x       y       z     vdW  Elec       q    Type
REMARK                         _______ _______ _______ _____ _____    ______ ____
ROOT
ATOM      1  N   UNL     1       6.529   3.682  -0.037  0.00  0.00    -0.184 NA
ATOM      2  C   UNL     1       6.015   4.878  -0.027  0.00  0.00    +0.176 C 
ENDROOT
BRANCH   2   3
ATOM      3  C   UNL     1       4.561   5.051  -0.012  0.00  0.00    +0.148 A 
ATOM      4  C   UNL     1       3.889   6.254   0.000  0.00  0.00    +0.051 A 
ATOM      5  C   UNL     1       2.521   5.952   0.011  0.00  0.00    +0.050 A 
ATOM      6  C   UNL     1       2.410   4.593   0.004  0.00  0.00    +0.136 A 
ATOM      7  O   UNL     1       3.647   4.060  -0.004  0.00  0.00    -0.454 OA
BRANCH   6   8
ATOM      8  C   UNL     1       1.145   3.833   0.012  0.00  0.00    +0.020 A 
ATOM      9  C   UNL     1      -0.078   4.508   0.027  0.00  0.00    +0.031 A 
ATOM     10  C   UNL     1      -1.258   3.791   0.034  0.00  0.00    +0.043 A 
ATOM     11  C   UNL     1      -1.231   2.406   0.021  0.00  0.00    +0.040 A 
ATOM     12  C   UNL     1      -0.021   1.732   0.012  0.00  0.00    +0.043 A 
ATOM     13  C   UNL     1       1.165   2.437   0.004  0.00  0.00    +0.031 A 
ATOM     14 CL   UNL     1       0.002  -0.004   0.002  0.00  0.00    -0.083 Cl
ATOM     15 CL   UNL     1      -2.780   4.627   0.053  0.00  0.00    -0.083 Cl
ENDBRANCH   6   8
ENDBRANCH   2   3
BRANCH   1  18
ATOM     16  C   UNL     1       8.451   2.279  -0.063  0.00  0.00    +0.281 C 
ATOM     17  O   UNL     1       7.723   1.304  -0.061  0.00  0.00    -0.267 OA
ATOM     18  N   UNL     1       7.920   3.517  -0.051  0.00  0.00    -0.202 N 
ATOM     19  H   UNL     1       8.500   4.294  -0.053  0.00  0.00    +0.178 HD
BRANCH  16  23
ATOM     20  C   UNL     1      13.126   0.312  -0.117  0.00  0.00    +0.067 C 
ATOM     21  C   UNL     1      11.957   1.264  -0.101  0.00  0.00    +0.060 A 
ATOM     22  C   UNL     1      10.607   0.908  -0.084  0.00  0.00    +0.057 A 
ATOM     23  C   UNL     1       9.912   2.105  -0.077  0.00  0.00    +0.122 A 
ATOM     24  N   UNL     1      10.855   3.094  -0.081  0.00  0.00    -0.272 N 
ATOM     25  H   UNL     1      10.662   4.075  -0.073  0.00  0.00    +0.189 HD
ATOM     26  N   UNL     1      12.028   2.571  -0.094  0.00  0.00    -0.178 NA
ENDBRANCH  16  23
ENDBRANCH   1  18
TORSDOF 4
