REMARK  Name = ZINC21232099
REMARK  11 active torsions:
REMARK  status: ('A' for Active; 'I' for Inactive)
REMARK    1  A    between atoms: C_1  and  C_2
REMARK    2  A    between atoms: C_6  and  N_9
REMARK    3  A    between atoms: C_7  and  C_8
REMARK    4  A    between atoms: C_13  and  C_32
REMARK    5  A    between atoms: C_14  and  C_31
REMARK    6  A    between atoms: C_18  and  S_19
REMARK    7  A    between atoms: S_19  and  C_20
REMARK    8  A    between atoms: C_20  and  C_22
REMARK    9  A    between atoms: C_20  and  C_25
REMARK   10  A    between atoms: C_22  and  C_23
REMARK   11  A    between atoms: C_22  and  C_24
REMARK                            x       y       z     vdW  Elec       q    Type
REMARK                         _______ _______ _______ _____ _____    ______ ____
ROOT
ATOM      1  N   UNL     1      -1.518  -0.582  -0.079  0.00  0.00    -0.255 N 
ATOM      2  C   UNL     1      -1.663  -1.892  -0.351  0.00  0.00    +0.268 A 
ATOM      3  O   UNL     1      -2.747  -2.433  -0.220  0.00  0.00    -0.267 OA
ATOM      4  C   UNL     1      -0.527  -2.642  -0.789  0.00  0.00    +0.076 A 
ATOM      5  C   UNL     1      -0.433  -4.050  -1.134  0.00  0.00    -0.026 A 
ATOM      6  C   UNL     1       0.748  -4.551  -1.526  0.00  0.00    -0.008 A 
ATOM      7  S   UNL     1       1.838  -3.142  -1.460  0.00  0.00    -0.073 S 
ATOM      8  C   UNL     1       0.676  -1.921  -0.906  0.00  0.00    +0.117 A 
ATOM      9  N   UNL     1       0.751  -0.625  -0.628  0.00  0.00    -0.215 NA
ATOM     10  C   UNL     1      -0.311   0.043  -0.225  0.00  0.00    +0.178 A 
ATOM     11  C   UNL     1       1.075  -5.966  -1.928  0.00  0.00    +0.052 C 
ATOM     12  C   UNL     1      -1.648  -4.938  -1.052  0.00  0.00    +0.045 C 
ENDROOT
BRANCH   1  18
ATOM     13  C   UNL     1      -4.297   1.104   3.611  0.00  0.00    +0.044 C 
ATOM     14  C   UNL     1      -3.996   0.990   2.139  0.00  0.00    -0.046 A 
ATOM     15  C   UNL     1      -4.814   1.615   1.216  0.00  0.00    +0.004 A 
ATOM     16  C   UNL     1      -4.541   1.513  -0.136  0.00  0.00    +0.002 A 
ATOM     17  C   UNL     1      -3.450   0.786  -0.568  0.00  0.00    +0.026 A 
ATOM     18  C   UNL     1      -2.626   0.157   0.356  0.00  0.00    +0.055 A 
ATOM     19  C   UNL     1      -2.906   0.257   1.713  0.00  0.00    -0.024 A 
ATOM     20  C   UNL     1      -2.018  -0.429   2.719  0.00  0.00    +0.046 C 
ENDBRANCH   1  18
BRANCH  10  21
ATOM     21  S   UNL     1      -0.172   1.762   0.136  0.00  0.00    -0.074 S 
BRANCH  21  22
ATOM     22  C   UNL     1       1.614   1.982  -0.065  0.00  0.00    +0.143 C 
BRANCH  22  23
ATOM     23  C   UNL     1       2.337   1.247   1.033  0.00  0.00    +0.234 C 
ATOM     24  O   UNL     1       1.751   0.948   2.051  0.00  0.00    -0.274 OA
ATOM     25  N   UNL     1       3.637   0.922   0.884  0.00  0.00    -0.239 N 
ATOM     26  C   UNL     1       4.284   0.264   1.866  0.00  0.00    +0.303 C 
ATOM     27  O   UNL     1       3.696  -0.036   2.886  0.00  0.00    -0.253 OA
ATOM     28  N   UNL     1       5.584  -0.061   1.716  0.00  0.00    -0.313 N 
ATOM     29  H   UNL     1       4.169   1.193  -0.040  0.00  0.00    +0.159 HD
ATOM     30  H   UNL     1       6.112  -0.598   2.518  0.00  0.00    +0.146 HD
ATOM     31  H   UNL     1       6.116   0.210   0.793  0.00  0.00    +0.146 HD
ENDBRANCH  22  23
BRANCH  22  32
ATOM     32  C   UNL     1       1.955   3.472   0.007  0.00  0.00    +0.005 C 
ATOM     33  C   UNL     1       3.468   3.655  -0.129  0.00  0.00    +0.009 C 
ATOM     34  C   UNL     1       1.247   4.213  -1.129  0.00  0.00    +0.009 C 
ENDBRANCH  22  32
ENDBRANCH  21  22
ENDBRANCH  10  21
TORSDOF 5
