REMARK  Name = ZINC39553980
REMARK  10 active torsions:
REMARK  status: ('A' for Active; 'I' for Inactive)
REMARK    1  A    between atoms: C_1  and  C_2
REMARK    2  A    between atoms: C_3  and  C_37
REMARK    3  A    between atoms: C_7  and  N_28
REMARK    4  A    between atoms: C_9  and  S_11
REMARK    5  A    between atoms: S_11  and  C_12
REMARK    6  A    between atoms: C_12  and  C_13
REMARK    7  A    between atoms: N_15  and  C_16
REMARK    8  A    between atoms: C_16  and  C_17
REMARK    9  A    between atoms: C_17  and  C_18
REMARK   10  A    between atoms: C_29  and  C_31
REMARK                            x       y       z     vdW  Elec       q    Type
REMARK                         _______ _______ _______ _____ _____    ______ ____
ROOT
ATOM      1  C   UNL     1      -0.018   1.503   0.010  0.00  0.00    +0.048 C 
ATOM      2  C   UNL     1       0.002  -0.004   0.002  0.00  0.00    +0.003 A 
ATOM      3  C   UNL     1       0.009  -0.804  -1.073  0.00  0.00    +0.108 A 
ATOM      4  O   UNL     1       0.028  -2.095  -0.690  0.00  0.00    -0.442 OA
ATOM      5  C   UNL     1       0.034  -2.198   0.650  0.00  0.00    +0.233 A 
ATOM      6  C   UNL     1       0.025  -0.891   1.168  0.00  0.00    +0.083 A 
ATOM      7  C   UNL     1       0.035  -0.711   2.557  0.00  0.00    +0.141 A 
ATOM      8  N   UNL     1       0.057  -1.789   3.334  0.00  0.00    -0.206 NA
ATOM      9  C   UNL     1       0.068  -3.008   2.808  0.00  0.00    +0.194 A 
ATOM     10  N   UNL     1       0.051  -3.219   1.501  0.00  0.00    -0.186 NA
ATOM     11  C   UNL     1      -0.004  -0.328  -2.503  0.00  0.00    +0.086 C 
ENDROOT
BRANCH   7  12
ATOM     12  N   UNL     1       0.024   0.562   3.109  0.00  0.00    -0.266 N 
ATOM     13  C   UNL     1       0.034   0.716   4.448  0.00  0.00    +0.249 C 
ATOM     14  O   UNL     1       0.053  -0.260   5.172  0.00  0.00    -0.270 OA
ATOM     15  H   UNL     1       0.008   1.341   2.531  0.00  0.00    +0.157 HD
BRANCH  13  16
ATOM     16  C   UNL     1       0.021   2.072   5.035  0.00  0.00    +0.037 A 
ATOM     17  C   UNL     1      -0.007   3.195   4.207  0.00  0.00    +0.013 A 
ATOM     18  C   UNL     1      -0.018   4.458   4.761  0.00  0.00    +0.001 A 
ATOM     19  C   UNL     1      -0.002   4.613   6.136  0.00  0.00    +0.000 A 
ATOM     20  C   UNL     1       0.026   3.504   6.964  0.00  0.00    +0.001 A 
ATOM     21  C   UNL     1       0.031   2.235   6.422  0.00  0.00    +0.013 A 
ENDBRANCH  13  16
ENDBRANCH   7  12
BRANCH   9  22
ATOM     22  S   UNL     1       0.097  -4.398   3.890  0.00  0.00    -0.077 S 
BRANCH  22  23
ATOM     23  C   UNL     1       0.106  -5.825   2.771  0.00  0.00    +0.173 C 
BRANCH  23  24
ATOM     24  C   UNL     1       0.130  -7.097   3.579  0.00  0.00    +0.223 C 
ATOM     25  O   UNL     1       0.140  -7.045   4.791  0.00  0.00    -0.275 OA
ATOM     26  N   UNL     1       0.140  -8.292   2.956  0.00  0.00    -0.314 N 
ATOM     27  H   UNL     1       0.132  -8.333   1.986  0.00  0.00    +0.149 HD
BRANCH  26  28
ATOM     28  C   UNL     1       0.164  -9.528   3.741  0.00  0.00    +0.109 C 
BRANCH  28  29
ATOM     29  C   UNL     1       0.172 -10.732   2.797  0.00  0.00    +0.056 C 
BRANCH  29  30
ATOM     30  C   UNL     1       0.196 -12.004   3.605  0.00  0.00    -0.021 A 
ATOM     31  C   UNL     1       1.284 -12.711   3.950  0.00  0.00    +0.087 A 
ATOM     32  N   UNL     1       0.917 -13.806   4.683  0.00  0.00    -0.360 N 
ATOM     33  H   UNL     1       1.529 -14.466   5.044  0.00  0.00    +0.165 HD
ATOM     34  C   UNL     1      -0.452 -13.831   4.833  0.00  0.00    +0.047 A 
ATOM     35  C   UNL     1      -0.963 -12.700   4.170  0.00  0.00    +0.003 A 
ATOM     36  C   UNL     1      -2.338 -12.460   4.160  0.00  0.00    +0.010 A 
ATOM     37  C   UNL     1      -3.182 -13.325   4.799  0.00  0.00    +0.001 A 
ATOM     38  C   UNL     1      -2.683 -14.440   5.458  0.00  0.00    +0.002 A 
ATOM     39  C   UNL     1      -1.329 -14.700   5.472  0.00  0.00    +0.026 A 
ENDBRANCH  29  30
ENDBRANCH  28  29
ENDBRANCH  26  28
ENDBRANCH  23  24
ENDBRANCH  22  23
ENDBRANCH   9  22
TORSDOF 8
