REMARK  Name = ZINC14469836
REMARK  7 active torsions:
REMARK  status: ('A' for Active; 'I' for Inactive)
REMARK    1  A    between atoms: C_1  and  N_2
REMARK    2  A    between atoms: N_5  and  S_8
REMARK    3  A    between atoms: S_8  and  C_11
REMARK    4  A    between atoms: C_24  and  C_27
REMARK    5  A    between atoms: C_30  and  O_33
REMARK    6  A    between atoms: O_33  and  C_34
REMARK    7  A    between atoms: C_34  and  C_35
REMARK                            x       y       z     vdW  Elec       q    Type
REMARK                         _______ _______ _______ _____ _____    ______ ____
ROOT
ATOM      1  C   UNL     1       3.693  -3.114  -0.187  0.00  0.00    +0.106 A 
ATOM      2  C   UNL     1       4.261  -2.816  -1.412  0.00  0.00    +0.030 A 
ATOM      3  C   UNL     1       5.519  -2.250  -1.465  0.00  0.00    +0.025 A 
ATOM      4  C   UNL     1       6.212  -1.977  -0.290  0.00  0.00    +0.031 A 
ATOM      5  C   UNL     1       5.638  -2.262   0.939  0.00  0.00    -0.018 A 
ATOM      6  C   UNL     1       4.375  -2.834   0.980  0.00  0.00    +0.034 A 
ATOM      7  C   UNL     1       6.333  -1.947   2.221  0.00  0.00    +0.049 C 
ATOM      8  C   UNL     1       6.914  -3.178   2.869  0.00  0.00    -0.023 C 
ATOM      9  C   UNL     1       8.051  -2.889   3.451  0.00  0.00    -0.030 C 
ATOM     10  C   UNL     1       8.395  -1.427   3.270  0.00  0.00    +0.033 C 
ATOM     11  C   UNL     1       7.510  -0.983   2.083  0.00  0.00    +0.029 C 
ATOM     12  C   UNL     1       8.304  -1.168   0.806  0.00  0.00    +0.105 C 
ATOM     13  N   UNL     1       7.485  -1.424  -0.360  0.00  0.00    -0.336 N 
ATOM     14  H   UNL     1       7.851  -1.220  -1.235  0.00  0.00    +0.147 HD
ENDROOT
BRANCH  12  15
ATOM     15  C   UNL     1       9.091   0.090   0.545  0.00  0.00    -0.027 A 
ATOM     16  C   UNL     1       8.470   1.188  -0.021  0.00  0.00    +0.009 A 
ATOM     17  C   UNL     1       9.189   2.342  -0.262  0.00  0.00    +0.046 A 
ATOM     18  C   UNL     1      10.536   2.400   0.065  0.00  0.00    +0.121 A 
ATOM     19  C   UNL     1      11.157   1.298   0.633  0.00  0.00    +0.046 A 
ATOM     20  C   UNL     1      10.432   0.147   0.877  0.00  0.00    +0.009 A 
BRANCH  18  21
ATOM     21  O   UNL     1      11.245   3.535  -0.172  0.00  0.00    -0.487 OA
BRANCH  21  22
ATOM     22  C   UNL     1      12.628   3.522   0.191  0.00  0.00    +0.264 C 
BRANCH  22  23
ATOM     23  C   UNL     1      13.246   4.856  -0.143  0.00  0.00    -0.010 A 
ATOM     24  C   UNL     1      13.807   5.065  -1.389  0.00  0.00    +0.007 A 
ATOM     25  C   UNL     1      14.374   6.288  -1.695  0.00  0.00    +0.000 A 
ATOM     26  C   UNL     1      14.380   7.301  -0.755  0.00  0.00    +0.000 A 
ATOM     27  C   UNL     1      13.819   7.092   0.490  0.00  0.00    +0.000 A 
ATOM     28  C   UNL     1      13.248   5.871   0.795  0.00  0.00    +0.007 A 
ENDBRANCH  22  23
ENDBRANCH  21  22
ENDBRANCH  18  21
ENDBRANCH  12  15
BRANCH   1  29
ATOM     29  S   UNL     1       2.092  -3.845  -0.115  0.00  0.00    +0.061 S 
ATOM     30  O   UNL     1       2.009  -4.521   1.132  0.00  0.00    -0.153 OA
ATOM     31  O   UNL     1       1.892  -4.508  -1.356  0.00  0.00    -0.153 OA
BRANCH  29  36
ATOM     32  C   UNL     1      -0.018   1.465   0.010  0.00  0.00    +0.105 C 
ATOM     33  N   UNL     1       0.002  -0.004   0.002  0.00  0.00    -0.303 NA
ATOM     34  C   UNL     1       0.592  -0.516  -1.242  0.00  0.00    +0.101 C 
ATOM     35  C   UNL     1       0.430  -2.039  -1.292  0.00  0.00    +0.125 C 
ATOM     36  N   UNL     1       0.991  -2.608  -0.057  0.00  0.00    -0.174 NA
ATOM     37  C   UNL     1       0.549  -2.051   1.230  0.00  0.00    +0.125 C 
ATOM     38  C   UNL     1       0.706  -0.527   1.180  0.00  0.00    +0.101 C 
ENDBRANCH  29  36
ENDBRANCH   1  29
TORSDOF 6
