REMARK  Name = ZINC40650524
REMARK  7 active torsions:
REMARK  status: ('A' for Active; 'I' for Inactive)
REMARK    1  A    between atoms: C_1  and  C_2
REMARK    2  A    between atoms: C_13  and  N_35
REMARK    3  A    between atoms: C_14  and  N_18
REMARK    4  A    between atoms: N_18  and  N_19
REMARK    5  A    between atoms: C_20  and  C_22
REMARK    6  A    between atoms: C_22  and  C_23
REMARK    7  A    between atoms: C_22  and  C_29
REMARK                            x       y       z     vdW  Elec       q    Type
REMARK                         _______ _______ _______ _____ _____    ______ ____
ROOT
ATOM      1  C   UNL     1      -2.848   0.732  -6.286  0.00  0.00    +0.044 C 
ATOM      2  C   UNL     1      -2.571  -0.626  -5.692  0.00  0.00    -0.049 A 
ATOM      3  C   UNL     1      -2.314  -1.712  -6.516  0.00  0.00    +0.005 A 
ATOM      4  C   UNL     1      -2.059  -2.956  -6.001  0.00  0.00    +0.029 A 
ATOM      5  C   UNL     1      -2.051  -3.172  -4.604  0.00  0.00    +0.080 A 
ATOM      6  C   UNL     1      -2.317  -2.043  -3.796  0.00  0.00    +0.041 A 
ATOM      7  C   UNL     1      -2.566  -0.800  -4.320  0.00  0.00    +0.020 A 
ATOM      8  S   UNL     1      -2.216  -2.719  -2.156  0.00  0.00    -0.052 S 
ATOM      9  C   UNL     1      -1.839  -4.401  -2.629  0.00  0.00    +0.165 A 
ATOM     10  N   UNL     1      -1.820  -4.326  -3.940  0.00  0.00    -0.225 NA
ATOM     11  N   UNL     1      -1.623  -5.501  -1.820  0.00  0.00    -0.277 N 
ATOM     12  C   UNL     1      -1.341  -6.736  -2.389  0.00  0.00    +0.160 A 
ATOM     13  C   UNL     1      -1.128  -7.851  -1.585  0.00  0.00    +0.207 A 
ATOM     14  C   UNL     1      -0.849  -9.066  -2.203  0.00  0.00    +0.171 A 
ATOM     15  N   UNL     1      -0.796  -9.117  -3.533  0.00  0.00    -0.217 NA
ATOM     16  C   UNL     1      -1.004  -8.039  -4.260  0.00  0.00    +0.225 A 
ATOM     17  N   UNL     1      -1.276  -6.872  -3.712  0.00  0.00    -0.218 NA
ATOM     18  H   UNL     1      -1.669  -5.411  -0.855  0.00  0.00    +0.156 HD
ENDROOT
BRANCH  13  19
ATOM     19  N   UNL     1      -1.196  -7.748  -0.109  0.00  0.00    +0.063 N 
ATOM     20  O   UNL     1      -2.247  -7.924   0.461  0.00  0.00    -0.126 OA
ATOM     21  O   UNL     1      -0.200  -7.487   0.525  0.00  0.00    -0.126 OA
ENDBRANCH  13  19
BRANCH  14  22
ATOM     22  N   UNL     1      -0.628 -10.207  -1.446  0.00  0.00    -0.246 N 
ATOM     23  H   UNL     1      -0.668 -10.161  -0.478  0.00  0.00    +0.172 HD
BRANCH  22  24
ATOM     24  N   UNL     1      -0.348 -11.425  -2.079  0.00  0.00    -0.235 N 
ATOM     25  C   UNL     1      -0.134 -12.533  -1.343  0.00  0.00    +0.241 C 
ATOM     26  O   UNL     1      -0.184 -12.476  -0.133  0.00  0.00    -0.273 OA
ATOM     27  H   UNL     1      -0.308 -11.470  -3.047  0.00  0.00    +0.173 HD
BRANCH  25  28
ATOM     28  C   UNL     1       0.168 -13.843  -2.025  0.00  0.00    +0.136 C 
BRANCH  28  29
ATOM     29  C   UNL     1       1.422 -13.704  -2.848  0.00  0.00    -0.031 A 
ATOM     30  C   UNL     1       2.570 -13.189  -2.276  0.00  0.00    +0.005 A 
ATOM     31  C   UNL     1       3.721 -13.062  -3.031  0.00  0.00    +0.000 A 
ATOM     32  C   UNL     1       3.724 -13.450  -4.358  0.00  0.00    +0.000 A 
ATOM     33  C   UNL     1       2.576 -13.966  -4.929  0.00  0.00    +0.000 A 
ATOM     34  C   UNL     1       1.427 -14.098  -4.173  0.00  0.00    +0.005 A 
ENDBRANCH  28  29
BRANCH  28  35
ATOM     35  C   UNL     1       0.365 -14.916  -0.985  0.00  0.00    -0.031 A 
ATOM     36  C   UNL     1       1.269 -14.725   0.043  0.00  0.00    +0.005 A 
ATOM     37  C   UNL     1       1.450 -15.709   0.996  0.00  0.00    +0.000 A 
ATOM     38  C   UNL     1       0.726 -16.885   0.922  0.00  0.00    +0.000 A 
ATOM     39  C   UNL     1      -0.178 -17.076  -0.105  0.00  0.00    +0.000 A 
ATOM     40  C   UNL     1      -0.362 -16.090  -1.056  0.00  0.00    +0.005 A 
ENDBRANCH  28  35
ENDBRANCH  25  28
ENDBRANCH  22  24
ENDBRANCH  14  22
TORSDOF 6
