REMARK  Name = ZINC42014670
REMARK  3 active torsions:
REMARK  status: ('A' for Active; 'I' for Inactive)
REMARK    1  A    between atoms: C_3  and  N_8
REMARK    2  A    between atoms: C_9  and  C_13
REMARK    3  A    between atoms: C_15  and  N_21
REMARK                            x       y       z     vdW  Elec       q    Type
REMARK                         _______ _______ _______ _____ _____    ______ ____
ROOT
ATOM      1  N   UNL     1       3.538   2.248   0.145  0.00  0.00    -0.193 N 
ATOM      2  C   UNL     1       4.731   1.831   0.658  0.00  0.00    +0.187 A 
ATOM      3  N   UNL     1       5.653   2.651   0.197  0.00  0.00    -0.108 NA
ATOM      4  N   UNL     1       5.124   3.543  -0.560  0.00  0.00    -0.022 NA
ATOM      5  N   UNL     1       3.850   3.365  -0.648  0.00  0.00    -0.039 NA
ENDROOT
BRANCH   2   6
ATOM      6  C   UNL     1       4.949   0.678   1.560  0.00  0.00    +0.024 A 
ATOM      7  C   UNL     1       5.978   0.711   2.500  0.00  0.00    +0.036 A 
ATOM      8  C   UNL     1       6.177  -0.372   3.342  0.00  0.00    +0.045 A 
ATOM      9  C   UNL     1       5.351  -1.487   3.247  0.00  0.00    +0.080 A 
ATOM     10  C   UNL     1       4.330  -1.520   2.314  0.00  0.00    +0.062 A 
ATOM     11  C   UNL     1       4.121  -0.442   1.476  0.00  0.00    +0.033 A 
ATOM     12 CL   UNL     1       3.303  -2.915   2.202  0.00  0.00    -0.082 Cl
ATOM     13 CL   UNL     1       5.602  -2.842   4.303  0.00  0.00    -0.080 Cl
BRANCH   8  14
ATOM     14  N   UNL     1       7.208  -0.344   4.285  0.00  0.00    -0.357 N 
ATOM     15  H   UNL     1       7.785   0.433   4.350  0.00  0.00    +0.142 HD
ATOM     16  H   UNL     1       7.348  -1.102   4.874  0.00  0.00    +0.142 HD
ENDBRANCH   8  14
ENDBRANCH   2   6
BRANCH   1  19
ATOM     17  C   UNL     1       0.647   0.730   1.843  0.00  0.00    +0.003 A 
ATOM     18  C   UNL     1       1.894   1.288   1.635  0.00  0.00    +0.028 A 
ATOM     19  C   UNL     1       2.274   1.680   0.358  0.00  0.00    +0.070 A 
ATOM     20  C   UNL     1       1.400   1.509  -0.707  0.00  0.00    +0.043 A 
ATOM     21  C   UNL     1       0.154   0.950  -0.493  0.00  0.00    +0.020 A 
ATOM     22  C   UNL     1      -0.221   0.560   0.781  0.00  0.00    +0.015 A 
ATOM     23 BR   UNL     1      -1.038   0.717  -1.942  0.00  0.00    -0.050 Br
ENDBRANCH   1  19
TORSDOF 3
