REMARK  Name = ZINC03347080
REMARK  10 active torsions:
REMARK  status: ('A' for Active; 'I' for Inactive)
REMARK    1  A    between atoms: C_1  and  C_2
REMARK    2  A    between atoms: C_2  and  C_3
REMARK    3  A    between atoms: C_6  and  C_15
REMARK    4  A    between atoms: C_13  and  O_14
REMARK    5  A    between atoms: C_15  and  S_16
REMARK    6  A    between atoms: S_16  and  C_17
REMARK    7  A    between atoms: C_20  and  C_21
REMARK    8  A    between atoms: N_28  and  C_29
REMARK    9  A    between atoms: C_32  and  O_35
REMARK   10  A    between atoms: O_35  and  C_36
REMARK                            x       y       z     vdW  Elec       q    Type
REMARK                         _______ _______ _______ _____ _____    ______ ____
ROOT
ATOM      1  C   UNL     1      -2.286  -0.281  -5.829  0.00  0.00    +0.169 C 
ATOM      2  N   UNL     1      -1.851  -1.414  -6.316  0.00  0.00    -0.220 NA
ATOM      3  C   UNL     1      -1.177  -1.173  -7.481  0.00  0.00    +0.132 C 
ATOM      4  C   UNL     1      -0.567  -2.106  -8.298  0.00  0.00    +0.079 C 
ATOM      5  C   UNL     1      -1.232   0.283  -7.687  0.00  0.00    +0.275 C 
ATOM      6  O   UNL     1      -0.752   0.915  -8.611  0.00  0.00    -0.268 OA
ATOM      7  N   UNL     1      -1.932   0.770  -6.639  0.00  0.00    -0.214 N 
ENDROOT
BRANCH   7   8
ATOM      8  C   UNL     1      -2.242   2.120  -6.415  0.00  0.00    +0.044 A 
ATOM      9  C   UNL     1      -1.699   2.785  -5.324  0.00  0.00    +0.027 A 
ATOM     10  C   UNL     1      -2.005   4.114  -5.104  0.00  0.00    +0.048 A 
ATOM     11  C   UNL     1      -2.854   4.784  -5.972  0.00  0.00    +0.127 A 
ATOM     12  C   UNL     1      -3.397   4.120  -7.062  0.00  0.00    +0.048 A 
ATOM     13  C   UNL     1      -3.087   2.793  -7.287  0.00  0.00    +0.027 A 
BRANCH  11  14
ATOM     14  O   UNL     1      -3.155   6.092  -5.755  0.00  0.00    -0.434 OA
BRANCH  14  15
ATOM     15  C   UNL     1      -4.036   6.719  -6.689  0.00  0.00    +0.541 C 
ATOM     16  F   UNL     1      -3.471   6.671  -7.968  0.00  0.00    -0.166 F 
ATOM     17  F   UNL     1      -5.263   6.047  -6.696  0.00  0.00    -0.166 F 
ENDBRANCH  14  15
ENDBRANCH  11  14
ENDBRANCH   7   8
BRANCH   4  18
ATOM     18  C   UNL     1      -0.034  -1.712  -9.543  0.00  0.00    +0.130 A 
ATOM     19  C   UNL     1       0.508  -2.551 -10.499  0.00  0.00    +0.049 A 
ATOM     20  C   UNL     1       0.909  -1.732 -11.566  0.00  0.00    +0.042 A 
ATOM     21  C   UNL     1       0.605  -0.459 -11.229  0.00  0.00    +0.195 A 
ATOM     22  O   UNL     1       0.033  -0.450 -10.016  0.00  0.00    -0.463 OA
ENDBRANCH   4  18
BRANCH   1  23
ATOM     23  S   UNL     1      -3.209  -0.125  -4.336  0.00  0.00    -0.085 S 
BRANCH  23  24
ATOM     24  C   UNL     1      -3.354  -1.829  -3.730  0.00  0.00    +0.113 C 
BRANCH  24  28
ATOM     25  C   UNL     1      -1.652  -0.518   0.024  0.00  0.00    -0.005 A 
ATOM     26  C   UNL     1      -2.197  -0.934  -1.156  0.00  0.00    +0.019 A 
ATOM     27  C   UNL     1      -3.521  -1.386  -1.189  0.00  0.00    +0.022 A 
ATOM     28  C   UNL     1      -4.133  -1.839  -2.440  0.00  0.00    -0.020 A 
ATOM     29  C   UNL     1      -5.422  -2.267  -2.406  0.00  0.00    +0.097 A 
ATOM     30  C   UNL     1      -6.129  -2.266  -1.187  0.00  0.00    +0.338 A 
ATOM     31  O   UNL     1      -7.284  -2.652  -1.171  0.00  0.00    -0.245 OA
ATOM     32  O   UNL     1      -5.563  -1.850  -0.043  0.00  0.00    -0.422 OA
ATOM     33  C   UNL     1      -4.286  -1.412  -0.008  0.00  0.00    +0.143 A 
ATOM     34  C   UNL     1      -3.716  -0.986   1.182  0.00  0.00    +0.092 A 
ATOM     35  C   UNL     1      -2.402  -0.547   1.197  0.00  0.00    +0.124 A 
BRANCH  25  37
ATOM     36  C   UNL     1      -0.210   1.499   0.064  0.00  0.00    +0.009 C 
ATOM     37  C   UNL     1      -0.226  -0.031   0.059  0.00  0.00    +0.035 C 
ENDBRANCH  25  37
BRANCH  35  38
ATOM     38  O   UNL     1      -1.843  -0.135   2.364  0.00  0.00    -0.506 OA
ATOM     39  H   UNL     1      -1.959   0.807   2.545  0.00  0.00    +0.292 HD
ENDBRANCH  35  38
ENDBRANCH  24  28
ENDBRANCH  23  24
ENDBRANCH   1  23
TORSDOF 9
