REMARK  Name = ZINC39862492
REMARK  6 active torsions:
REMARK  status: ('A' for Active; 'I' for Inactive)
REMARK    1  A    between atoms: C_1  and  C_2
REMARK    2  A    between atoms: C_2  and  N_3
REMARK    3  A    between atoms: C_7  and  C_8
REMARK    4  A    between atoms: C_7  and  C_9
REMARK    5  A    between atoms: C_13  and  N_15
REMARK    6  A    between atoms: N_18  and  C_19
REMARK                            x       y       z     vdW  Elec       q    Type
REMARK                         _______ _______ _______ _____ _____    ______ ____
ROOT
ATOM      1  N   UNL     1       0.688  -0.476  -1.203  0.00  0.00    -0.246 N 
ATOM      2  C   UNL     1      -0.006  -0.693  -2.308  0.00  0.00    +0.259 C 
ATOM      3  O   UNL     1      -1.208  -0.508  -2.352  0.00  0.00    -0.269 OA
ATOM      4  C   UNL     1       0.746  -1.168  -3.487  0.00  0.00    +0.081 C 
ATOM      5  C   UNL     1       0.297  -1.466  -4.732  0.00  0.00    -0.024 C 
ATOM      6  C   UNL     1      -1.167  -1.324  -5.059  0.00  0.00    +0.045 C 
ATOM      7  S   UNL     1       2.407  -1.245  -2.832  0.00  0.00    -0.048 S 
ATOM      8  C   UNL     1       2.048  -0.685  -1.175  0.00  0.00    +0.170 C 
ATOM      9  N   UNL     1       2.881  -0.516  -0.171  0.00  0.00    -0.206 NA
ENDROOT
BRANCH   5  10
ATOM     10  C   UNL     1       1.239  -1.929  -5.762  0.00  0.00    -0.019 A 
ATOM     11  C   UNL     1       2.248  -1.076  -6.225  0.00  0.00    +0.008 A 
ATOM     12  C   UNL     1       3.129  -1.513  -7.191  0.00  0.00    +0.002 A 
ATOM     13  C   UNL     1       3.021  -2.792  -7.706  0.00  0.00    +0.023 A 
ATOM     14  C   UNL     1       2.023  -3.648  -7.254  0.00  0.00    +0.025 A 
ATOM     15  C   UNL     1       1.135  -3.223  -6.279  0.00  0.00    +0.031 A 
BRANCH  14  16
ATOM     16  N   UNL     1       1.919  -4.939  -7.778  0.00  0.00    -0.358 N 
ATOM     17  H   UNL     1       2.543  -5.238  -8.458  0.00  0.00    +0.142 HD
ATOM     18  H   UNL     1       1.223  -5.536  -7.463  0.00  0.00    +0.142 HD
ENDBRANCH  14  16
ENDBRANCH   5  10
BRANCH   9  19
ATOM     19  C   UNL     1       4.210  -0.777  -0.335  0.00  0.00    +0.155 A 
ATOM     20  C   UNL     1       5.090  -0.601   0.738  0.00  0.00    +0.048 A 
ATOM     21  C   UNL     1       6.432  -0.871   0.555  0.00  0.00    +0.005 A 
ATOM     22  C   UNL     1       6.858  -1.309  -0.694  0.00  0.00    +0.020 A 
ATOM     23  C   UNL     1       5.936  -1.462  -1.710  0.00  0.00    +0.113 A 
ATOM     24  N   UNL     1       4.658  -1.203  -1.512  0.00  0.00    -0.236 NA
ENDBRANCH   9  19
BRANCH   1  26
ATOM     25  C   UNL     1      -0.019   1.526   0.010  0.00  0.00    +0.025 C 
ATOM     26  C   UNL     1       0.002  -0.004   0.002  0.00  0.00    +0.112 C 
ENDBRANCH   1  26
TORSDOF 4
