REMARK  Name = ZINC36494072
REMARK  18 active torsions:
REMARK  status: ('A' for Active; 'I' for Inactive)
REMARK    1  A    between atoms: C_1  and  C_2
REMARK    2  A    between atoms: C_3  and  C_4
REMARK    3  A    between atoms: C_4  and  C_6
REMARK    4  A    between atoms: C_4  and  N_17
REMARK    5  A    between atoms: N_8  and  C_9
REMARK    6  A    between atoms: C_9  and  C_10
REMARK    7  A    between atoms: C_9  and  C_11
REMARK    8  A    between atoms: C_9  and  C_12
REMARK    9  A    between atoms: C_12  and  C_13
REMARK   10  A    between atoms: C_13  and  C_14
REMARK   11  A    between atoms: C_13  and  C_15
REMARK   12  A    between atoms: C_13  and  C_16
REMARK   13  A    between atoms: N_17  and  C_18
REMARK   14  A    between atoms: C_18  and  C_19
REMARK   15  A    between atoms: C_24  and  C_26
REMARK   16  A    between atoms: C_32  and  O_34
REMARK   17  A    between atoms: O_34  and  C_35
REMARK   18  A    between atoms: C_35  and  C_36
REMARK                            x       y       z     vdW  Elec       q    Type
REMARK                         _______ _______ _______ _____ _____    ______ ____
ROOT
ATOM      1  N   UNL     1       1.942  -1.666   0.581  0.00  0.00    -0.278 N 
ATOM      2  C   UNL     1       1.070  -1.156  -0.311  0.00  0.00    +0.237 C 
ATOM      3  O   UNL     1      -0.022  -0.777   0.057  0.00  0.00    -0.274 OA
ENDROOT
BRANCH   2   4
ATOM      4  C   UNL     1       1.451  -1.056  -1.765  0.00  0.00    +0.165 C 
ATOM      5  C   UNL     1       2.333   0.190  -1.992  0.00  0.00    +0.033 C 
ATOM      6  C   UNL     1       1.837   0.722  -3.363  0.00  0.00    +0.021 C 
ATOM      7  C   UNL     1       0.323   0.401  -3.292  0.00  0.00    +0.112 C 
ATOM      8  N   UNL     1       0.244  -0.896  -2.589  0.00  0.00    -0.256 N 
ATOM      9  C   UNL     1      -0.765  -1.784  -2.685  0.00  0.00    +0.404 C 
ATOM     10  O   UNL     1      -0.721  -2.824  -2.057  0.00  0.00    -0.226 OA
BRANCH   9  11
ATOM     11  O   UNL     1      -1.821  -1.521  -3.478  0.00  0.00    -0.445 OA
BRANCH  11  12
ATOM     12  C   UNL     1      -2.853  -2.507  -3.532  0.00  0.00    +0.269 C 
BRANCH  12  13
ATOM     13  C   UNL     1      -3.944  -2.042  -4.462  0.00  0.00    -0.010 A 
ATOM     14  C   UNL     1      -4.997  -1.293  -3.972  0.00  0.00    +0.007 A 
ATOM     15  C   UNL     1      -5.998  -0.866  -4.825  0.00  0.00    +0.000 A 
ATOM     16  C   UNL     1      -5.945  -1.189  -6.168  0.00  0.00    +0.000 A 
ATOM     17  C   UNL     1      -4.891  -1.937  -6.658  0.00  0.00    +0.000 A 
ATOM     18  C   UNL     1      -3.889  -2.360  -5.806  0.00  0.00    +0.007 A 
ENDBRANCH  12  13
ENDBRANCH  11  12
ENDBRANCH   9  11
ENDBRANCH   2   4
BRANCH   1  19
ATOM     19  C   UNL     1       1.571  -1.763   1.995  0.00  0.00    +0.185 C 
BRANCH  19  20
ATOM     20  C   UNL     1       1.181  -0.400   2.507  0.00  0.00    +0.238 C 
ATOM     21  O   UNL     1       1.185   0.553   1.757  0.00  0.00    -0.273 OA
ATOM     22  N   UNL     1       0.828  -0.241   3.798  0.00  0.00    -0.308 N 
ATOM     23  H   UNL     1       0.825  -1.003   4.398  0.00  0.00    +0.149 HD
BRANCH  22  24
ATOM     24  C   UNL     1       0.449   1.084   4.296  0.00  0.00    +0.030 C 
ATOM     25  C   UNL     1       1.566   2.083   3.987  0.00  0.00    +0.031 C 
ATOM     26  C   UNL     1      -0.842   1.536   3.611  0.00  0.00    +0.031 C 
BRANCH  24  27
ATOM     27  C   UNL     1       0.228   1.017   5.808  0.00  0.00    +0.031 C 
BRANCH  27  28
ATOM     28  C   UNL     1      -0.182  -0.404   6.201  0.00  0.00    -0.036 C 
ATOM     29  C   UNL     1       1.052  -1.308   6.208  0.00  0.00    +0.010 C 
ATOM     30  C   UNL     1      -0.810  -0.386   7.596  0.00  0.00    +0.010 C 
ATOM     31  C   UNL     1      -1.199  -0.939   5.191  0.00  0.00    +0.010 C 
ENDBRANCH  27  28
ENDBRANCH  24  27
ENDBRANCH  22  24
ENDBRANCH  19  20
BRANCH  19  34
ATOM     32  C   UNL     1      -1.206  -4.310   1.255  0.00  0.00    +0.035 C 
ATOM     33  C   UNL     1      -0.042  -3.365   1.105  0.00  0.00    -0.032 C 
ATOM     34  C   UNL     1       0.407  -2.708   2.145  0.00  0.00    +0.000 C 
ENDBRANCH  19  34
ENDBRANCH   1  19
BRANCH   1  35
ATOM     35  C   UNL     1       3.261  -2.123   0.137  0.00  0.00    +0.183 C 
BRANCH  35  36
ATOM     36  C   UNL     1       3.219  -3.608  -0.116  0.00  0.00    +0.122 A 
ATOM     37  C   UNL     1       3.064  -4.197  -1.315  0.00  0.00    +0.046 A 
ATOM     38  C   UNL     1       3.083  -5.593  -1.091  0.00  0.00    +0.041 A 
ATOM     39  C   UNL     1       3.247  -5.773   0.232  0.00  0.00    +0.195 A 
ATOM     40  O   UNL     1       3.335  -4.567   0.817  0.00  0.00    -0.466 OA
ENDBRANCH  35  36
ENDBRANCH   1  35
TORSDOF 12
