REMARK  Name = ZINC59305367
REMARK  6 active torsions:
REMARK  status: ('A' for Active; 'I' for Inactive)
REMARK    1  A    between atoms: C_2  and  C_3
REMARK    2  A    between atoms: C_3  and  O_4
REMARK    3  A    between atoms: O_4  and  C_5
REMARK    4  A    between atoms: C_8  and  C_12
REMARK    5  A    between atoms: N_13  and  N_14
REMARK    6  A    between atoms: C_15  and  C_17
REMARK                            x       y       z     vdW  Elec       q    Type
REMARK                         _______ _______ _______ _____ _____    ______ ____
ROOT
ATOM      1  N   UNL     1       3.337   9.432   0.015  0.00  0.00    -0.200 N 
ATOM      2  C   UNL     1       4.575   9.965   0.000  0.00  0.00    +0.299 C 
ATOM      3  O   UNL     1       5.551   9.238  -0.018  0.00  0.00    -0.265 OA
ATOM      4  H   UNL     1       2.560  10.012   0.029  0.00  0.00    +0.178 HD
ENDROOT
BRANCH   2   5
ATOM      5  C   UNL     1       4.747  11.424   0.006  0.00  0.00    +0.192 A 
ATOM      6  C   UNL     1       5.942  12.071  -0.013  0.00  0.00    +0.063 A 
ATOM      7  C   UNL     1       5.630  13.499   0.001  0.00  0.00    +0.022 A 
ATOM      8  C   UNL     1       6.400  14.665  -0.007  0.00  0.00    +0.027 A 
ATOM      9  C   UNL     1       5.784  15.884   0.011  0.00  0.00    +0.019 A 
ATOM     10  C   UNL     1       4.398  15.972   0.038  0.00  0.00    +0.019 A 
ATOM     11  C   UNL     1       3.621  14.834   0.046  0.00  0.00    +0.048 A 
ATOM     12  C   UNL     1       4.225  13.582   0.028  0.00  0.00    +0.136 A 
ATOM     13  O   UNL     1       3.742  12.325   0.025  0.00  0.00    -0.450 OA
ATOM     14 BR   UNL     1       6.825  17.463   0.001  0.00  0.00    -0.050 Br
ENDBRANCH   2   5
BRANCH   1  16
ATOM     15  C   UNL     1       1.981   7.528   0.023  0.00  0.00    +0.138 C 
ATOM     16  N   UNL     1       3.173   8.041   0.009  0.00  0.00    -0.187 NA
BRANCH  15  20
ATOM     17  C   UNL     1       1.482   3.312   0.006  0.00  0.00    +0.136 A 
ATOM     18  C   UNL     1       0.368   4.141   0.026  0.00  0.00    +0.047 A 
ATOM     19  C   UNL     1       0.525   5.510   0.032  0.00  0.00    +0.013 A 
ATOM     20  C   UNL     1       1.808   6.064   0.017  0.00  0.00    -0.004 A 
ATOM     21  C   UNL     1       2.926   5.227  -0.004  0.00  0.00    +0.028 A 
ATOM     22  C   UNL     1       2.760   3.858  -0.004  0.00  0.00    +0.060 A 
ATOM     23 BR   UNL     1       4.272   2.723  -0.024  0.00  0.00    -0.046 Br
BRANCH  17  24
ATOM     24  O   UNL     1       1.323   1.962   0.000  0.00  0.00    -0.478 OA
BRANCH  24  25
ATOM     25  C   UNL     1      -0.018   1.468   0.010  0.00  0.00    +0.317 C 
BRANCH  25  27
ATOM     26  C   UNL     1       0.018  -1.178  -0.004  0.00  0.00    +0.007 C 
ATOM     27  C   UNL     1       0.002  -0.004   0.002  0.00  0.00    -0.065 C 
ENDBRANCH  25  27
ENDBRANCH  24  25
ENDBRANCH  17  24
ENDBRANCH  15  20
ENDBRANCH   1  16
TORSDOF 6
