REMARK  Name = ZINC20853135
REMARK  11 active torsions:
REMARK  status: ('A' for Active; 'I' for Inactive)
REMARK    1  A    between atoms: C_1  and  C_2
REMARK    2  A    between atoms: C_2  and  C_4
REMARK    3  A    between atoms: C_2  and  N_14
REMARK    4  A    between atoms: C_15  and  C_17
REMARK    5  A    between atoms: C_17  and  O_18
REMARK    6  A    between atoms: O_18  and  C_19
REMARK    7  A    between atoms: C_19  and  C_21
REMARK    8  A    between atoms: C_23  and  N_31
REMARK    9  A    between atoms: C_25  and  N_27
REMARK   10  A    between atoms: C_28  and  C_30
REMARK   11  A    between atoms: C_32  and  C_34
REMARK                            x       y       z     vdW  Elec       q    Type
REMARK                         _______ _______ _______ _____ _____    ______ ____
ROOT
ATOM      1  O   UNL     1       3.783  -4.366  -5.189  0.00  0.00    -0.452 OA
ENDROOT
BRANCH   1   2
ATOM      2  C   UNL     1       3.792  -5.710  -5.277  0.00  0.00    +0.340 C 
ATOM      3  O   UNL     1       3.949  -6.383  -4.277  0.00  0.00    -0.245 OA
BRANCH   2   4
ATOM      4  C   UNL     1       3.612  -6.367  -6.588  0.00  0.00    +0.063 A 
ATOM      5  C   UNL     1       3.427  -5.596  -7.737  0.00  0.00    +0.038 A 
ATOM      6  C   UNL     1       3.264  -6.216  -8.966  0.00  0.00    +0.036 A 
ATOM      7  C   UNL     1       3.275  -7.601  -9.054  0.00  0.00    +0.046 A 
ATOM      8  C   UNL     1       3.453  -8.372  -7.913  0.00  0.00    +0.036 A 
ATOM      9  C   UNL     1       3.622  -7.759  -6.681  0.00  0.00    +0.038 A 
BRANCH   8  10
ATOM     10  N   UNL     1       3.463  -9.768  -8.007  0.00  0.00    -0.286 N 
ATOM     11  C   UNL     1       2.922 -10.513  -7.022  0.00  0.00    +0.214 C 
ATOM     12  O   UNL     1       2.502  -9.979  -6.018  0.00  0.00    -0.276 OA
ATOM     13  C   UNL     1       2.838 -12.011  -7.170  0.00  0.00    +0.109 C 
ATOM     14  H   UNL     1       3.912 -10.257  -8.884  0.00  0.00    +0.155 HD
ENDBRANCH   8  10
BRANCH   6  15
ATOM     15  N   UNL     1       3.084  -5.444 -10.120  0.00  0.00    -0.286 N 
ATOM     16  C   UNL     1       3.693  -4.246 -10.231  0.00  0.00    +0.214 C 
ATOM     17  O   UNL     1       4.470  -3.879  -9.375  0.00  0.00    -0.276 OA
ATOM     18  C   UNL     1       3.408  -3.363 -11.418  0.00  0.00    +0.109 C 
ATOM     19  H   UNL     1       2.446  -5.814 -10.935  0.00  0.00    +0.155 HD
ENDBRANCH   6  15
ENDBRANCH   2   4
ENDBRANCH   1   2
BRANCH   1  20
ATOM     20  C   UNL     1       3.965  -3.790  -3.869  0.00  0.00    +0.328 C 
BRANCH  20  22
ATOM     21  N   UNL     1       4.075  -1.535  -2.859  0.00  0.00    -0.309 N 
ATOM     22  C   UNL     1       3.926  -2.287  -3.967  0.00  0.00    +0.251 C 
ATOM     23  O   UNL     1       3.760  -1.753  -5.044  0.00  0.00    -0.272 OA
ATOM     24  H   UNL     1       4.225  -2.019  -1.882  0.00  0.00    +0.149 HD
BRANCH  21  26
ATOM     25  C   UNL     1       5.427   0.450  -3.319  0.00  0.00    +0.028 C 
ATOM     26  C   UNL     1       4.037  -0.073  -2.954  0.00  0.00    +0.076 C 
BRANCH  26  27
ATOM     27  C   UNL     1       3.607   0.514  -1.609  0.00  0.00    -0.010 C 
ATOM     28  C   UNL     1       2.216  -0.009  -1.245  0.00  0.00    +0.012 C 
ATOM     29  C   UNL     1       1.786   0.579   0.101  0.00  0.00    -0.010 C 
ATOM     30  C   UNL     1       1.746   2.105   0.001  0.00  0.00    +0.007 C 
ATOM     31  C   UNL     1       3.137   2.629  -0.363  0.00  0.00    -0.010 C 
ATOM     32  C   UNL     1       3.567   2.041  -1.709  0.00  0.00    +0.012 C 
ATOM     33  C   UNL     1       4.137   2.214   0.718  0.00  0.00    +0.007 C 
ATOM     34  C   UNL     1       4.177   0.688   0.818  0.00  0.00    -0.010 C 
ATOM     35  C   UNL     1       2.786   0.164   1.182  0.00  0.00    +0.007 C 
ATOM     36  C   UNL     1       4.607   0.100  -0.528  0.00  0.00    +0.012 C 
ENDBRANCH  26  27
ENDBRANCH  21  26
ENDBRANCH  20  22
ENDBRANCH   1  20
TORSDOF 8
