REMARK  Name = ZINC19370277
REMARK  13 active torsions:
REMARK  status: ('A' for Active; 'I' for Inactive)
REMARK    1  A    between atoms: C_1  and  N_2
REMARK    2  A    between atoms: N_2  and  C_3
REMARK    3  A    between atoms: C_9  and  O_36
REMARK    4  A    between atoms: C_10  and  O_34
REMARK    5  A    between atoms: C_11  and  O_32
REMARK    6  A    between atoms: N_18  and  C_19
REMARK    7  A    between atoms: C_19  and  C_20
REMARK    8  A    between atoms: C_20  and  C_21
REMARK    9  A    between atoms: C_21  and  N_22
REMARK   10  A    between atoms: N_25  and  C_28
REMARK   11  A    between atoms: O_32  and  C_33
REMARK   12  A    between atoms: O_34  and  C_35
REMARK   13  A    between atoms: O_36  and  C_37
REMARK                            x       y       z     vdW  Elec       q    Type
REMARK                         _______ _______ _______ _____ _____    ______ ____
ROOT
ATOM      1  C   UNL     1      -1.403  -0.012   1.904  0.00  0.00    -0.040 C 
ATOM      2  C   UNL     1      -2.124   0.991   2.784  0.00  0.00    -0.007 C 
ATOM      3  C   UNL     1      -3.544   0.528   3.093  0.00  0.00    +0.035 C 
ATOM      4  C   UNL     1      -4.187   0.004   1.834  0.00  0.00    -0.033 A 
ATOM      5  C   UNL     1      -5.120   0.766   1.161  0.00  0.00    +0.054 A 
ATOM      6  C   UNL     1      -5.718   0.272   0.009  0.00  0.00    +0.165 A 
ATOM      7  C   UNL     1      -5.382  -0.989  -0.472  0.00  0.00    +0.204 A 
ATOM      8  C   UNL     1      -4.440  -1.758   0.199  0.00  0.00    +0.173 A 
ATOM      9  C   UNL     1      -3.838  -1.252   1.355  0.00  0.00    +0.031 A 
ATOM     10  C   UNL     1      -2.803  -2.061   2.064  0.00  0.00    -0.012 A 
ATOM     11  C   UNL     1      -1.612  -1.438   2.375  0.00  0.00    -0.050 A 
ATOM     12  C   UNL     1      -0.582  -1.998   3.091  0.00  0.00    +0.055 A 
ATOM     13  C   UNL     1      -0.396  -3.201   3.642  0.00  0.00    +0.204 A 
ATOM     14  C   UNL     1      -1.285  -4.339   3.617  0.00  0.00    +0.105 A 
ATOM     15  N   UNL     1      -0.895  -5.442   4.238  0.00  0.00    -0.280 NA
ATOM     16  C   UNL     1      -2.526  -4.353   2.982  0.00  0.00    +0.032 A 
ATOM     17  C   UNL     1      -3.133  -3.381   2.341  0.00  0.00    +0.011 A 
ATOM     18  O   UNL     1       0.772  -3.375   4.306  0.00  0.00    -0.286 OA
ENDROOT
BRANCH   1  20
ATOM     19  C   UNL     1       0.342   1.428   1.041  0.00  0.00    -0.100 C 
ATOM     20  N   UNL     1       0.034   0.289   1.917  0.00  0.00    +0.382 N 
ATOM     21  H   UNL     1       0.584  -0.599   1.570  0.00  0.00    -0.085 HD
ATOM     22  H   UNL     1       0.336   0.527   2.947  0.00  0.00    -0.085 HD
ENDBRANCH   1  20
BRANCH   8  23
ATOM     23  O   UNL     1      -4.106  -2.992  -0.265  0.00  0.00    -0.491 OA
ATOM     24  C   UNL     1      -2.963  -3.076  -1.120  0.00  0.00    +0.277 C 
ENDBRANCH   8  23
BRANCH   7  25
ATOM     25  O   UNL     1      -5.976  -1.469  -1.599  0.00  0.00    -0.488 OA
ATOM     26  C   UNL     1      -5.412  -1.069  -2.849  0.00  0.00    +0.277 C 
ENDBRANCH   7  25
BRANCH   6  27
ATOM     27  O   UNL     1      -6.637   1.024  -0.652  0.00  0.00    -0.491 OA
ATOM     28  C   UNL     1      -6.937   2.310  -0.106  0.00  0.00    +0.277 C 
ENDBRANCH   6  27
BRANCH  15  29
ATOM     29  C   UNL     1      -1.708  -6.658   4.152  0.00  0.00    +0.140 C 
BRANCH  29  30
ATOM     30  C   UNL     1      -1.078  -7.755   5.013  0.00  0.00    +0.005 C 
BRANCH  30  31
ATOM     31  C   UNL     1      -1.928  -9.024   4.923  0.00  0.00    -0.077 C 
BRANCH  31  32
ATOM     32  N   UNL     1      -1.323 -10.077   5.750  0.00  0.00    +0.381 N 
ATOM     33  C   UNL     1      -0.022 -10.492   5.206  0.00  0.00    -0.063 C 
ATOM     34  C   UNL     1       0.609 -11.530   6.136  0.00  0.00    +0.065 C 
ATOM     35  N   UNL     1      -0.295 -12.681   6.267  0.00  0.00    -0.309 NA
ATOM     36  C   UNL     1      -1.596 -12.267   6.811  0.00  0.00    +0.065 C 
ATOM     37  C   UNL     1      -2.227 -11.228   5.880  0.00  0.00    -0.063 C 
ATOM     38  C   UNL     1       0.310 -13.735   7.093  0.00  0.00    +0.104 C 
ATOM     39  H   UNL     1      -1.154  -9.662   6.754  0.00  0.00    -0.082 HD
ENDBRANCH  31  32
ENDBRANCH  30  31
ENDBRANCH  29  30
ENDBRANCH  15  29
TORSDOF 8
