REMARK  Name = ZINC08428690
REMARK  9 active torsions:
REMARK  status: ('A' for Active; 'I' for Inactive)
REMARK    1  A    between atoms: C_1  and  C_2
REMARK    2  A    between atoms: C_4  and  C_31
REMARK    3  A    between atoms: C_6  and  N_8
REMARK    4  A    between atoms: C_9  and  C_11
REMARK    5  A    between atoms: C_11  and  C_13
REMARK    6  A    between atoms: C_11  and  S_19
REMARK    7  A    between atoms: S_19  and  C_20
REMARK    8  A    between atoms: C_23  and  C_26
REMARK    9  A    between atoms: N_24  and  N_25
REMARK                            x       y       z     vdW  Elec       q    Type
REMARK                         _______ _______ _______ _____ _____    ______ ____
ROOT
ATOM      1  C   UNL     1      -0.090  -1.910   3.571  0.00  0.00    +0.170 C 
ENDROOT
BRANCH   1   2
ATOM      2  C   UNL     1       1.289  -2.413   3.229  0.00  0.00    -0.025 A 
ATOM      3  C   UNL     1       2.401  -1.669   3.574  0.00  0.00    +0.005 A 
ATOM      4  C   UNL     1       3.666  -2.132   3.265  0.00  0.00    +0.000 A 
ATOM      5  C   UNL     1       3.818  -3.336   2.602  0.00  0.00    +0.000 A 
ATOM      6  C   UNL     1       2.706  -4.078   2.252  0.00  0.00    +0.000 A 
ATOM      7  C   UNL     1       1.441  -3.616   2.566  0.00  0.00    +0.005 A 
ENDBRANCH   1   2
BRANCH   1   9
ATOM      8  N   UNL     1      -0.450  -2.832   5.838  0.00  0.00    -0.284 N 
ATOM      9  C   UNL     1      -0.212  -1.754   5.065  0.00  0.00    +0.235 C 
ATOM     10  O   UNL     1      -0.096  -0.658   5.571  0.00  0.00    -0.274 OA
ATOM     11  H   UNL     1      -0.620  -3.695   5.428  0.00  0.00    +0.155 HD
BRANCH   8  17
ATOM     12  C   UNL     1      -2.228  -4.218  10.207  0.00  0.00    +0.044 C 
ATOM     13  C   UNL     1      -1.306  -3.365   9.374  0.00  0.00    -0.048 A 
ATOM     14  C   UNL     1      -0.461  -2.459   9.987  0.00  0.00    +0.006 A 
ATOM     15  C   UNL     1       0.388  -1.676   9.226  0.00  0.00    -0.048 A 
ATOM     16  C   UNL     1       0.394  -1.797   7.850  0.00  0.00    +0.026 A 
ATOM     17  C   UNL     1      -0.454  -2.707   7.231  0.00  0.00    +0.034 A 
ATOM     18  C   UNL     1      -1.309  -3.487   7.998  0.00  0.00    +0.026 A 
ATOM     19  C   UNL     1       1.307  -0.690   9.899  0.00  0.00    +0.044 C 
ENDBRANCH   8  17
ENDBRANCH   1   9
BRANCH   1  20
ATOM     20  S   UNL     1      -0.363  -0.309   2.772  0.00  0.00    -0.067 S 
BRANCH  20  21
ATOM     21  C   UNL     1      -0.317  -0.799   1.081  0.00  0.00    +0.210 A 
ATOM     22  N   UNL     1      -0.129  -2.018   0.627  0.00  0.00    -0.120 NA
ATOM     23  N   UNL     1      -0.153  -2.021  -0.658  0.00  0.00    -0.123 NA
ATOM     24  C   UNL     1      -0.363  -0.802  -1.105  0.00  0.00    +0.217 A 
ATOM     25  N   UNL     1      -0.469   0.019  -0.004  0.00  0.00    -0.221 N 
BRANCH  24  26
ATOM     26  C   UNL     1      -0.463  -0.393  -2.515  0.00  0.00    +0.173 A 
ATOM     27  C   UNL     1      -0.075  -1.132  -3.592  0.00  0.00    +0.053 A 
ATOM     28  C   UNL     1      -0.354  -0.358  -4.736  0.00  0.00    +0.042 A 
ATOM     29  C   UNL     1      -0.885   0.804  -4.307  0.00  0.00    +0.196 A 
ATOM     30  O   UNL     1      -0.950   0.780  -2.966  0.00  0.00    -0.460 OA
ENDBRANCH  24  26
BRANCH  25  31
ATOM     31  N   UNL     1      -0.687   1.367   0.002  0.00  0.00    -0.294 N 
ATOM     32  H   UNL     1       0.185   1.875  -0.014  0.00  0.00    +0.163 HD
ATOM     33  H   UNL     1      -1.279   1.642  -0.767  0.00  0.00    +0.163 HD
ENDBRANCH  25  31
ENDBRANCH  20  21
ENDBRANCH   1  20
TORSDOF 7
