REMARK  Name = ZINC38604846
REMARK  8 active torsions:
REMARK  status: ('A' for Active; 'I' for Inactive)
REMARK    1  A    between atoms: C_1  and  C_2
REMARK    2  A    between atoms: C_2  and  C_4
REMARK    3  A    between atoms: C_2  and  N_22
REMARK    4  A    between atoms: N_6  and  C_7
REMARK    5  A    between atoms: C_15  and  C_17
REMARK    6  A    between atoms: C_17  and  O_19
REMARK    7  A    between atoms: O_19  and  C_20
REMARK    8  A    between atoms: N_25  and  C_28
REMARK                            x       y       z     vdW  Elec       q    Type
REMARK                         _______ _______ _______ _____ _____    ______ ____
ROOT
ATOM      1  C   UNL     1       0.606  -0.081   1.654  0.00  0.00    +0.203 C 
ATOM      2  O   UNL     1       1.176  -1.042   1.185  0.00  0.00    -0.277 OA
ATOM      3  N   UNL     1       0.689   0.175   2.975  0.00  0.00    -0.288 N 
ATOM      4  H   UNL     1       0.172   0.898   3.362  0.00  0.00    +0.155 HD
ENDROOT
BRANCH   3   5
ATOM      5  C   UNL     1       1.498  -0.584   3.766  0.00  0.00    +0.053 C 
ATOM      6  C   UNL     1       1.605  -0.532   5.145  0.00  0.00    +0.019 A 
ATOM      7  C   UNL     1       0.962   0.263   6.123  0.00  0.00    +0.026 A 
ATOM      8  C   UNL     1       1.270   0.096   7.434  0.00  0.00    +0.019 A 
ATOM      9  C   UNL     1       2.214  -0.848   7.850  0.00  0.00    +0.017 A 
ATOM     10  C   UNL     1       2.868  -1.643   6.969  0.00  0.00    +0.027 A 
ATOM     11  C   UNL     1       2.600  -1.527   5.580  0.00  0.00    +0.045 A 
ATOM     12  N   UNL     1       3.093  -2.170   4.541  0.00  0.00    -0.367 N 
ATOM     13  C   UNL     1       2.462  -1.661   3.319  0.00  0.00    +0.234 C 
ATOM     14 BR   UNL     1       0.402   1.166   8.729  0.00  0.00    -0.050 Br
ATOM     15  H   UNL     1       3.763  -2.870   4.578  0.00  0.00    +0.161 HD
BRANCH  13  16
ATOM     16  C   UNL     1       3.507  -1.076   2.404  0.00  0.00    +0.335 C 
ATOM     17  O   UNL     1       4.518  -0.603   2.866  0.00  0.00    -0.248 OA
BRANCH  16  18
ATOM     18  O   UNL     1       3.314  -1.080   1.076  0.00  0.00    -0.466 OA
ATOM     19  C   UNL     1       4.345  -0.509   0.268  0.00  0.00    +0.280 C 
ENDBRANCH  16  18
ENDBRANCH  13  16
ENDBRANCH   3   5
BRANCH   1  21
ATOM     20  C   UNL     1       0.702   1.952   0.237  0.00  0.00    -0.004 C 
ATOM     21  C   UNL     1      -0.196   0.829   0.759  0.00  0.00    +0.017 C 
BRANCH  21  22
ATOM     22  N   UNL     1      -0.727   0.059  -0.373  0.00  0.00    +0.389 N 
ATOM     23  C   UNL     1      -1.434   0.963  -1.289  0.00  0.00    -0.059 C 
ATOM     24  C   UNL     1      -1.888   0.182  -2.526  0.00  0.00    +0.086 C 
ATOM     25  N   UNL     1      -2.681  -0.975  -2.083  0.00  0.00    -0.333 N 
ATOM     26  C   UNL     1      -2.113  -1.846  -1.042  0.00  0.00    +0.086 C 
ATOM     27  C   UNL     1      -1.648  -0.969   0.125  0.00  0.00    -0.059 C 
ATOM     28  H   UNL     1       0.036  -0.383  -0.864  0.00  0.00    -0.081 HD
BRANCH  25  29
ATOM     29  C   UNL     1      -3.939  -1.239  -2.634  0.00  0.00    +0.030 A 
ATOM     30  C   UNL     1      -4.401  -0.484  -3.704  0.00  0.00    +0.026 A 
ATOM     31  C   UNL     1      -5.643  -0.747  -4.248  0.00  0.00    +0.040 A 
ATOM     32  C   UNL     1      -6.427  -1.762  -3.727  0.00  0.00    +0.124 A 
ATOM     33  C   UNL     1      -5.968  -2.516  -2.660  0.00  0.00    +0.040 A 
ATOM     34  C   UNL     1      -4.724  -2.260  -2.117  0.00  0.00    +0.026 A 
ATOM     35  F   UNL     1      -7.642  -2.018  -4.260  0.00  0.00    -0.205 F 
ENDBRANCH  25  29
ENDBRANCH  21  22
ENDBRANCH   1  21
TORSDOF 6
