REMARK  Name = ZINC62553396
REMARK  5 active torsions:
REMARK  status: ('A' for Active; 'I' for Inactive)
REMARK    1  A    between atoms: C_1  and  O_2
REMARK    2  A    between atoms: O_2  and  C_3
REMARK    3  A    between atoms: N_9  and  S_15
REMARK    4  A    between atoms: C_12  and  O_14
REMARK    5  A    between atoms: S_15  and  C_18
REMARK                            x       y       z     vdW  Elec       q    Type
REMARK                         _______ _______ _______ _____ _____    ______ ____
ROOT
ATOM      1  C   UNL     1      -1.114  -0.729  -0.591  0.00  0.00    +0.122 A 
ATOM      2  C   UNL     1      -2.263   0.050  -0.584  0.00  0.00    +0.046 A 
ATOM      3  C   UNL     1      -3.495  -0.537  -0.380  0.00  0.00    +0.011 A 
ATOM      4  C   UNL     1      -3.596  -1.904  -0.180  0.00  0.00    +0.004 A 
ATOM      5  C   UNL     1      -2.450  -2.684  -0.183  0.00  0.00    +0.060 A 
ATOM      6  C   UNL     1      -1.208  -2.097  -0.397  0.00  0.00    +0.070 A 
ATOM      7  N   UNL     1      -2.522  -4.066   0.026  0.00  0.00    -0.202 N 
ATOM      8  C   UNL     1      -3.831  -4.729  -0.051  0.00  0.00    +0.134 C 
ATOM      9  C   UNL     1      -4.838  -3.869   0.723  0.00  0.00    +0.057 C 
ATOM     10  C   UNL     1      -4.958  -2.509   0.035  0.00  0.00    +0.148 C 
ENDROOT
BRANCH   7  11
ATOM     11  S   UNL     1      -1.154  -4.939   0.355  0.00  0.00    +0.075 S 
ATOM     12  O   UNL     1      -0.254  -4.054   1.007  0.00  0.00    -0.150 OA
ATOM     13  O   UNL     1      -1.583  -6.159   0.943  0.00  0.00    -0.150 OA
BRANCH  11  14
ATOM     14  C   UNL     1      -0.418  -5.357  -1.191  0.00  0.00    +0.109 A 
ATOM     15  C   UNL     1      -0.771  -6.530  -1.832  0.00  0.00    +0.030 A 
ATOM     16  C   UNL     1      -0.199  -6.863  -3.042  0.00  0.00    +0.025 A 
ATOM     17  C   UNL     1       0.741  -6.017  -3.628  0.00  0.00    +0.037 A 
ATOM     18  C   UNL     1       1.087  -4.841  -2.974  0.00  0.00    -0.016 A 
ATOM     19  C   UNL     1       0.511  -4.509  -1.768  0.00  0.00    +0.034 A 
ATOM     20  C   UNL     1       2.111  -4.154  -3.847  0.00  0.00    +0.133 C 
ATOM     21  C   UNL     1       2.271  -5.086  -5.030  0.00  0.00    +0.222 C 
ATOM     22  O   UNL     1       3.002  -4.922  -5.983  0.00  0.00    -0.275 OA
ATOM     23  N   UNL     1       1.450  -6.130  -4.825  0.00  0.00    -0.285 N 
ATOM     24  H   UNL     1       1.359  -6.876  -5.438  0.00  0.00    +0.155 HD
ENDBRANCH  11  14
ENDBRANCH   7  11
BRANCH   1  26
ATOM     25  C   UNL     1       0.120   1.264  -0.987  0.00  0.00    +0.277 C 
ATOM     26  O   UNL     1       0.100  -0.151  -0.794  0.00  0.00    -0.495 OA
ENDBRANCH   1  26
BRANCH  10  27
ATOM     27  O   UNL     1      -5.740  -1.635   0.852  0.00  0.00    -0.387 OA
ATOM     28  H   UNL     1      -5.873  -0.755   0.472  0.00  0.00    +0.210 HD
ENDBRANCH  10  27
TORSDOF 4
