REMARK  Name = ZINC64391966
REMARK  5 active torsions:
REMARK  status: ('A' for Active; 'I' for Inactive)
REMARK    1  A    between atoms: C_1  and  C_2
REMARK    2  A    between atoms: C_2  and  C_3
REMARK    3  A    between atoms: C_6  and  C_9
REMARK    4  A    between atoms: C_12  and  C_16
REMARK    5  A    between atoms: C_21  and  C_22
REMARK                            x       y       z     vdW  Elec       q    Type
REMARK                         _______ _______ _______ _____ _____    ______ ____
ROOT
ATOM      1  C   UNL     1      -5.419  -2.005   0.043  0.00  0.00    +0.180 C 
ATOM      2  N   UNL     1      -6.157  -1.507  -1.142  0.00  0.00    -0.268 NA
ATOM      3  C   UNL     1      -7.523  -1.231  -0.624  0.00  0.00    +0.225 C 
ATOM      4  O   UNL     1      -7.277  -0.695   0.696  0.00  0.00    -0.278 OA
ATOM      5  N   UNL     1      -6.146  -1.485   1.221  0.00  0.00    -0.178 NA
ATOM      6  H   UNL     1      -5.732  -0.667  -1.506  0.00  0.00    +0.126 HD
ATOM      7  H   UNL     1      -6.472  -2.239   1.806  0.00  0.00    +0.156 HD
ENDROOT
BRANCH   1  11
ATOM      8  C   UNL     1      -1.412  -0.526   0.013  0.00  0.00    -0.048 A 
ATOM      9  C   UNL     1      -2.051  -0.766   1.215  0.00  0.00    +0.004 A 
ATOM     10  C   UNL     1      -3.348  -1.244   1.225  0.00  0.00    +0.007 A 
ATOM     11  C   UNL     1      -4.006  -1.482   0.032  0.00  0.00    -0.014 A 
ATOM     12  C   UNL     1      -3.367  -1.241  -1.170  0.00  0.00    +0.007 A 
ATOM     13  C   UNL     1      -2.072  -0.758  -1.179  0.00  0.00    +0.004 A 
BRANCH   8  15
ATOM     14  C   UNL     1      -0.019   1.526   0.010  0.00  0.00    +0.009 C 
ATOM     15  C   UNL     1       0.002  -0.004   0.002  0.00  0.00    +0.032 C 
ENDBRANCH   8  15
ENDBRANCH   1  11
BRANCH   3  16
ATOM     16  C   UNL     1      -8.235  -0.201  -1.504  0.00  0.00    +0.128 C 
ATOM     17  C   UNL     1      -7.447   1.092  -1.558  0.00  0.00    +0.121 C 
ATOM     18  N   UNL     1      -8.216   2.002  -1.055  0.00  0.00    -0.161 NA
ATOM     19  N   UNL     1      -9.449   1.497  -0.655  0.00  0.00    -0.153 NA
ATOM     20  C   UNL     1      -9.554   0.212  -0.881  0.00  0.00    +0.083 C 
BRANCH  20  21
ATOM     21  C   UNL     1     -10.709  -0.652  -0.591  0.00  0.00    -0.001 A 
ATOM     22  C   UNL     1     -10.658  -2.017  -0.891  0.00  0.00    +0.010 A 
ATOM     23  C   UNL     1     -11.744  -2.821  -0.616  0.00  0.00    +0.001 A 
ATOM     24  C   UNL     1     -12.884  -2.280  -0.047  0.00  0.00    +0.000 A 
ATOM     25  C   UNL     1     -12.942  -0.929   0.252  0.00  0.00    +0.001 A 
ATOM     26  C   UNL     1     -11.862  -0.114  -0.010  0.00  0.00    +0.010 A 
ENDBRANCH  20  21
ENDBRANCH   3  16
TORSDOF 4
