REMARK  Name = ZINC12664957
REMARK  9 active torsions:
REMARK  status: ('A' for Active; 'I' for Inactive)
REMARK    1  A    between atoms: C_1  and  C_2
REMARK    2  A    between atoms: C_2  and  N_3
REMARK    3  A    between atoms: C_5  and  O_33
REMARK    4  A    between atoms: C_8  and  C_32
REMARK    5  A    between atoms: N_12  and  C_13
REMARK    6  A    between atoms: C_13  and  C_15
REMARK    7  A    between atoms: N_20  and  S_22
REMARK    8  A    between atoms: S_22  and  C_25
REMARK    9  A    between atoms: O_33  and  C_34
REMARK                            x       y       z     vdW  Elec       q    Type
REMARK                         _______ _______ _______ _____ _____    ______ ____
ROOT
ATOM      1  C   UNL     1      -0.018   1.053   2.488  0.00  0.00    +0.243 C 
ATOM      2  O   UNL     1       0.450   1.827   3.301  0.00  0.00    -0.273 OA
ENDROOT
BRANCH   1  12
ATOM      3  N   UNL     1       0.937  -2.015   4.114  0.00  0.00    -0.318 N 
ATOM      4  C   UNL     1       1.616  -2.307   5.284  0.00  0.00    +0.100 A 
ATOM      5  C   UNL     1       1.932  -3.571   5.819  0.00  0.00    +0.145 A 
ATOM      6  C   UNL     1       2.622  -3.679   7.008  0.00  0.00    +0.048 A 
ATOM      7  C   UNL     1       3.024  -2.553   7.708  0.00  0.00    +0.008 A 
ATOM      8  C   UNL     1       2.726  -1.300   7.203  0.00  0.00    -0.034 A 
ATOM      9  C   UNL     1       2.037  -1.190   6.017  0.00  0.00    +0.045 A 
ATOM     10  S   UNL     1       1.471   0.177   5.036  0.00  0.00    -0.052 S 
ATOM     11  C   UNL     1       0.724  -0.722   3.756  0.00  0.00    +0.167 A 
ATOM     12  N   UNL     1       0.096  -0.257   2.677  0.00  0.00    -0.156 NA
ATOM     13  C   UNL     1       3.154  -0.062   7.949  0.00  0.00    +0.045 C 
BRANCH   3  15
ATOM     14  C   UNL     1       1.525  -3.474   2.241  0.00  0.00    +0.027 C 
ATOM     15  C   UNL     1       0.447  -3.101   3.262  0.00  0.00    +0.121 C 
ENDBRANCH   3  15
BRANCH   5  16
ATOM     16  O   UNL     1       1.552  -4.696   5.157  0.00  0.00    -0.493 OA
ATOM     17  C   UNL     1       1.902  -5.948   5.751  0.00  0.00    +0.277 C 
ENDBRANCH   5  16
ENDBRANCH   1  12
BRANCH   1  18
ATOM     18  C   UNL     1      -0.729   1.579   1.268  0.00  0.00    +0.093 C 
ATOM     19  C   UNL     1      -0.013   1.086   0.008  0.00  0.00    +0.015 C 
ATOM     20  C   UNL     1      -0.752   1.593  -1.232  0.00  0.00    +0.018 C 
ATOM     21  C   UNL     1      -0.741   3.124  -1.238  0.00  0.00    +0.109 C 
ATOM     22  N   UNL     1      -1.296   3.606   0.034  0.00  0.00    -0.176 NA
ATOM     23  C   UNL     1      -0.717   3.111   1.290  0.00  0.00    +0.122 C 
BRANCH  22  24
ATOM     24  S   UNL     1      -2.550   4.688   0.052  0.00  0.00    +0.061 S 
ATOM     25  O   UNL     1      -2.485   5.364   1.300  0.00  0.00    -0.153 OA
ATOM     26  O   UNL     1      -2.509   5.377  -1.190  0.00  0.00    -0.153 OA
BRANCH  24  27
ATOM     27  C   UNL     1      -4.043   3.754   0.061  0.00  0.00    +0.106 A 
ATOM     28  C   UNL     1      -4.644   3.399  -1.133  0.00  0.00    +0.031 A 
ATOM     29  C   UNL     1      -5.812   2.662  -1.127  0.00  0.00    +0.040 A 
ATOM     30  C   UNL     1      -6.388   2.288   0.075  0.00  0.00    +0.124 A 
ATOM     31  C   UNL     1      -5.789   2.648   1.270  0.00  0.00    +0.040 A 
ATOM     32  C   UNL     1      -4.618   3.381   1.262  0.00  0.00    +0.031 A 
ATOM     33  F   UNL     1      -7.534   1.571   0.082  0.00  0.00    -0.205 F 
ENDBRANCH  24  27
ENDBRANCH  22  24
ENDBRANCH   1  18
TORSDOF 6
