REMARK  Name = ZINC63478477
REMARK  6 active torsions:
REMARK  status: ('A' for Active; 'I' for Inactive)
REMARK    1  A    between atoms: C_1  and  O_2
REMARK    2  A    between atoms: O_2  and  C_3
REMARK    3  A    between atoms: C_3  and  C_4
REMARK    4  A    between atoms: C_4  and  N_5
REMARK    5  A    between atoms: C_10  and  C_28
REMARK    6  A    between atoms: C_28  and  C_29
REMARK                            x       y       z     vdW  Elec       q    Type
REMARK                         _______ _______ _______ _____ _____    ______ ____
ROOT
ATOM      1  N   UNL     1      -0.515  -2.565   1.245  0.00  0.00    -0.239 N 
ATOM      2  C   UNL     1       0.811  -2.680   1.376  0.00  0.00    +0.227 C 
ATOM      3  O   UNL     1       1.624  -2.440   0.509  0.00  0.00    -0.275 OA
ATOM      4  C   UNL     1       1.139  -3.154   2.774  0.00  0.00    +0.107 C 
ATOM      5  C   UNL     1       1.702  -4.590   2.701  0.00  0.00    +0.072 C 
ATOM      6  N   UNL     1       0.987  -5.335   3.770  0.00  0.00    -0.295 NA
ATOM      7  C   UNL     1      -0.390  -4.810   3.718  0.00  0.00    +0.136 C 
ATOM      8  C   UNL     1      -0.258  -3.291   3.442  0.00  0.00    +0.122 C 
ATOM      9  C   UNL     1      -1.211  -2.879   2.344  0.00  0.00    +0.228 C 
ATOM     10  O   UNL     1      -2.419  -2.841   2.443  0.00  0.00    -0.275 OA
ATOM     11  C   UNL     1      -1.127  -5.069   5.002  0.00  0.00    +0.006 A 
ATOM     12  C   UNL     1      -0.900  -4.711   6.312  0.00  0.00    +0.046 A 
ATOM     13  C   UNL     1      -1.782  -5.112   7.302  0.00  0.00    +0.124 A 
ATOM     14  C   UNL     1      -2.890  -5.873   6.969  0.00  0.00    +0.040 A 
ATOM     15  C   UNL     1      -3.120  -6.232   5.657  0.00  0.00    +0.026 A 
ATOM     16  C   UNL     1      -2.237  -5.832   4.656  0.00  0.00    +0.039 A 
ATOM     17  N   UNL     1      -2.253  -6.066   3.278  0.00  0.00    -0.283 N 
ATOM     18  C   UNL     1      -1.202  -5.499   2.655  0.00  0.00    +0.243 C 
ATOM     19  O   UNL     1      -0.957  -5.537   1.468  0.00  0.00    -0.273 OA
ATOM     20  F   UNL     1      -1.562  -4.764   8.589  0.00  0.00    -0.205 F 
ATOM     21  H   UNL     1       1.002  -6.328   3.591  0.00  0.00    +0.124 HD
ATOM     22  H   UNL     1      -2.940  -6.578   2.824  0.00  0.00    +0.155 HD
ENDROOT
BRANCH   1  23
ATOM     23  C   UNL     1      -1.154  -2.126   0.002  0.00  0.00    +0.144 C 
BRANCH  23  24
ATOM     24  C   UNL     1      -1.295  -0.603   0.011  0.00  0.00    +0.179 C 
BRANCH  24  26
ATOM     25  C   UNL     1      -0.017   1.425   0.010  0.00  0.00    +0.194 C 
ATOM     26  O   UNL     1       0.002  -0.004   0.002  0.00  0.00    -0.381 OA
ENDBRANCH  24  26
ENDBRANCH  23  24
ENDBRANCH   1  23
BRANCH   5  27
ATOM     27  C   UNL     1       3.209  -4.585   2.969  0.00  0.00    +0.052 C 
BRANCH  27  28
ATOM     28  C   UNL     1       3.759  -5.974   2.773  0.00  0.00    -0.040 C 
ATOM     29  C   UNL     1       4.330  -6.471   1.653  0.00  0.00    -0.001 A 
ATOM     30  C   UNL     1       4.600  -5.891   0.332  0.00  0.00    +0.010 A 
ATOM     31  C   UNL     1       5.200  -6.654  -0.610  0.00  0.00    +0.001 A 
ATOM     32  C   UNL     1       5.569  -7.982  -0.357  0.00  0.00    +0.002 A 
ATOM     33  C   UNL     1       5.353  -8.585   0.831  0.00  0.00    +0.026 A 
ATOM     34  C   UNL     1       4.730  -7.876   1.895  0.00  0.00    +0.043 A 
ATOM     35  N   UNL     1       4.417  -8.233   3.116  0.00  0.00    -0.380 N 
ATOM     36  C   UNL     1       3.788  -7.092   3.791  0.00  0.00    +0.144 C 
ATOM     37  H   UNL     1       4.578  -9.105   3.510  0.00  0.00    +0.160 HD
ENDBRANCH  27  28
ENDBRANCH   5  27
TORSDOF 5
