REMARK  Name = ZINC18066947
REMARK  8 active torsions:
REMARK  status: ('A' for Active; 'I' for Inactive)
REMARK    1  A    between atoms: C_1  and  C_2
REMARK    2  A    between atoms: C_5  and  C_8
REMARK    3  A    between atoms: C_8  and  C_31
REMARK    4  A    between atoms: N_9  and  N_10
REMARK    5  A    between atoms: C_11  and  S_13
REMARK    6  A    between atoms: S_13  and  C_14
REMARK    7  A    between atoms: N_19  and  C_22
REMARK    8  A    between atoms: C_25  and  C_28
REMARK                            x       y       z     vdW  Elec       q    Type
REMARK                         _______ _______ _______ _____ _____    ______ ____
ROOT
ATOM      1  S   UNL     1      -0.040  -8.411  -2.621  0.00  0.00    -0.078 S 
ENDROOT
BRANCH   1   2
ATOM      2  C   UNL     1       0.026  -9.162  -4.271  0.00  0.00    +0.149 C 
ATOM      3  C   UNL     1       0.128 -10.697  -4.165  0.00  0.00    +0.120 C 
ATOM      4  C   UNL     1       1.451 -11.011  -4.829  0.00  0.00    +0.228 C 
ATOM      5  O   UNL     1       1.924 -12.119  -4.964  0.00  0.00    -0.275 OA
ATOM      6  N   UNL     1       2.016  -9.871  -5.246  0.00  0.00    -0.209 N 
ATOM      7  C   UNL     1       1.300  -8.767  -4.985  0.00  0.00    +0.240 C 
ATOM      8  O   UNL     1       1.620  -7.634  -5.274  0.00  0.00    -0.274 OA
BRANCH   6   9
ATOM      9  C   UNL     1       3.250  -9.834  -5.900  0.00  0.00    +0.044 A 
ATOM     10  C   UNL     1       3.376 -10.376  -7.175  0.00  0.00    +0.025 A 
ATOM     11  C   UNL     1       4.590 -10.342  -7.823  0.00  0.00    +0.017 A 
ATOM     12  C   UNL     1       5.698  -9.761  -7.197  0.00  0.00    +0.063 A 
ATOM     13  C   UNL     1       5.567  -9.217  -5.915  0.00  0.00    +0.017 A 
ATOM     14  C   UNL     1       4.348  -9.251  -5.277  0.00  0.00    +0.025 A 
BRANCH  12  15
ATOM     15  C   UNL     1       6.999  -9.722  -7.887  0.00  0.00    +0.387 C 
ATOM     16  O   UNL     1       7.111 -10.198  -9.008  0.00  0.00    -0.241 OA
ATOM     17  O   UNL     1       7.967  -9.214  -7.338  0.00  0.00    -0.241 OA
ENDBRANCH  12  15
ENDBRANCH   6   9
ENDBRANCH   1   2
BRANCH   1  19
ATOM     18  N   UNL     1      -0.326  -5.800  -1.896  0.00  0.00    -0.217 N 
ATOM     19  C   UNL     1      -0.238  -6.690  -2.943  0.00  0.00    +0.146 C 
ATOM     20  N   UNL     1      -0.301  -6.260  -4.173  0.00  0.00    -0.380 N 
ATOM     21  H   UNL     1      -0.280  -6.120  -0.982  0.00  0.00    +0.176 HD
ATOM     22  H   UNL     1      -0.238  -6.888  -4.910  0.00  0.00    +0.158 HD
ATOM     23  H   UNL     1      -0.410  -5.313  -4.350  0.00  0.00    +0.158 HD
BRANCH  18  25
ATOM     24  C   UNL     1      -0.567  -3.592  -1.166  0.00  0.00    +0.063 C 
ATOM     25  N   UNL     1      -0.484  -4.431  -2.152  0.00  0.00    -0.185 NA
ATOM     26  C   UNL     1      -0.495  -4.089   0.254  0.00  0.00    +0.068 C 
BRANCH  24  31
ATOM     27  C   UNL     1      -1.215   2.025  -2.218  0.00  0.00    +0.044 C 
ATOM     28  C   UNL     1      -1.046   0.553  -1.942  0.00  0.00    -0.050 A 
ATOM     29  C   UNL     1      -0.956  -0.339  -2.996  0.00  0.00    +0.004 A 
ATOM     30  C   UNL     1      -0.800  -1.687  -2.752  0.00  0.00    +0.010 A 
ATOM     31  C   UNL     1      -0.733  -2.152  -1.436  0.00  0.00    -0.003 A 
ATOM     32  C   UNL     1      -0.823  -1.245  -0.377  0.00  0.00    +0.010 A 
ATOM     33  C   UNL     1      -0.974   0.101  -0.637  0.00  0.00    +0.004 A 
ENDBRANCH  24  31
ENDBRANCH  18  25
ENDBRANCH   1  19
TORSDOF 6
