REMARK  Name = ZINC03647447
REMARK  5 active torsions:
REMARK  status: ('A' for Active; 'I' for Inactive)
REMARK    1  A    between atoms: C_1  and  C_2
REMARK    2  A    between atoms: C_14  and  C_17
REMARK    3  A    between atoms: C_20  and  C_23
REMARK    4  A    between atoms: C_23  and  O_25
REMARK    5  A    between atoms: O_25  and  C_26
REMARK                            x       y       z     vdW  Elec       q    Type
REMARK                         _______ _______ _______ _____ _____    ______ ____
ROOT
ATOM      1  C   UNL     1      -0.730   2.028   1.271  0.00  0.00    +0.008 C 
ATOM      2  C   UNL     1      -0.019   1.531   0.011  0.00  0.00    -0.009 C 
ATOM      3  C   UNL     1       1.425   2.043  -0.001  0.00  0.00    +0.008 C 
ATOM      4  C   UNL     1       2.065   1.764  -1.361  0.00  0.00    +0.037 C 
ATOM      5  C   UNL     1       1.886   0.288  -1.695  0.00  0.00    -0.023 A 
ATOM      6  C   UNL     1       0.954  -0.458  -1.060  0.00  0.00    -0.004 A 
ATOM      7  S   UNL     1       1.111  -2.080  -1.761  0.00  0.00    -0.078 S 
ATOM      8  C   UNL     1       2.380  -1.772  -2.869  0.00  0.00    +0.080 A 
ATOM      9  C   UNL     1       2.680  -0.413  -2.692  0.00  0.00    +0.068 A 
ATOM     10  C   UNL     1       3.761   0.164  -3.523  0.00  0.00    +0.248 C 
ATOM     11  O   UNL     1       4.004   1.357  -3.509  0.00  0.00    -0.270 OA
ATOM     12  N   UNL     1       4.467  -0.688  -4.296  0.00  0.00    -0.289 N 
ATOM     13  C   UNL     1       4.385  -2.140  -4.176  0.00  0.00    +0.190 C 
ATOM     14  N   UNL     1       3.034  -2.569  -3.772  0.00  0.00    -0.316 N 
ATOM     15  C   UNL     1       0.002  -0.004   0.002  0.00  0.00    +0.046 C 
ATOM     16  H   UNL     1       5.130  -0.234  -5.048  0.00  0.00    +0.151 HD
ATOM     17  H   UNL     1       2.600  -3.488  -4.193  0.00  0.00    +0.149 HD
ENDROOT
BRANCH  13  18
ATOM     18  C   UNL     1       5.380  -2.605  -3.144  0.00  0.00    -0.009 A 
ATOM     19  C   UNL     1       5.134  -3.760  -2.422  0.00  0.00    +0.008 A 
ATOM     20  C   UNL     1       6.043  -4.194  -1.480  0.00  0.00    +0.015 A 
ATOM     21  C   UNL     1       7.208  -3.460  -1.248  0.00  0.00    +0.059 A 
ATOM     22  C   UNL     1       7.447  -2.293  -1.976  0.00  0.00    +0.015 A 
ATOM     23  C   UNL     1       6.532  -1.873  -2.919  0.00  0.00    +0.008 A 
BRANCH  21  24
ATOM     24  C   UNL     1       8.182  -3.916  -0.235  0.00  0.00    +0.339 C 
ATOM     25  O   UNL     1       9.194  -3.275  -0.035  0.00  0.00    -0.245 OA
BRANCH  24  26
ATOM     26  O   UNL     1       7.949  -5.043   0.466  0.00  0.00    -0.464 OA
ATOM     27  C   UNL     1       8.949  -5.430   1.444  0.00  0.00    +0.280 C 
ENDBRANCH  24  26
ENDBRANCH  21  24
ENDBRANCH  13  18
TORSDOF 3
