REMARK  Name = ZINC05123347
REMARK  5 active torsions:
REMARK  status: ('A' for Active; 'I' for Inactive)
REMARK    1  A    between atoms: C_1  and  C_2
REMARK    2  A    between atoms: C_5  and  N_8
REMARK    3  A    between atoms: C_10  and  N_15
REMARK    4  A    between atoms: C_19  and  C_27
REMARK    5  A    between atoms: C_24  and  C_26
REMARK                            x       y       z     vdW  Elec       q    Type
REMARK                         _______ _______ _______ _____ _____    ______ ____
ROOT
ATOM      1  N   UNL     1      -0.131   4.373  -6.222  0.00  0.00    -0.270 N 
ATOM      2  C   UNL     1      -0.632   4.462  -4.845  0.00  0.00    +0.136 C 
ATOM      3  C   UNL     1       0.253   3.501  -4.021  0.00  0.00    +0.101 C 
ATOM      4  C   UNL     1       0.719   2.498  -5.102  0.00  0.00    +0.120 C 
ATOM      5  C   UNL     1       0.627   3.276  -6.396  0.00  0.00    +0.222 C 
ATOM      6  O   UNL     1       1.159   2.957  -7.438  0.00  0.00    -0.275 OA
ENDROOT
BRANCH   3   7
ATOM      7  N   UNL     1      -0.531   2.827  -2.983  0.00  0.00    -0.294 N 
ATOM      8  C   UNL     1       0.092   2.254  -1.934  0.00  0.00    +0.303 C 
ATOM      9  O   UNL     1       1.294   2.376  -1.800  0.00  0.00    -0.253 OA
ATOM     10  N   UNL     1      -0.618   1.545  -1.034  0.00  0.00    -0.280 N 
ATOM     11  C   UNL     1       0.021   1.025   0.182  0.00  0.00    +0.075 C 
ATOM     12  C   UNL     1      -0.780   1.492   1.402  0.00  0.00    +0.022 C 
ATOM     13  C   UNL     1      -2.243   1.073   1.237  0.00  0.00    +0.004 C 
ATOM     14  C   UNL     1      -2.828   1.740  -0.010  0.00  0.00    +0.022 C 
ATOM     15  C   UNL     1      -2.050   1.277  -1.246  0.00  0.00    +0.075 C 
ATOM     16  C   UNL     1      -2.268  -0.222  -1.456  0.00  0.00    +0.028 C 
ATOM     17  C   UNL     1       1.453   1.556   0.276  0.00  0.00    +0.028 C 
ATOM     18  H   UNL     1      -1.498   2.793  -3.051  0.00  0.00    +0.151 HD
ENDBRANCH   3   7
BRANCH   1  23
ATOM     19  C   UNL     1      -1.247   8.168 -10.288  0.00  0.00    +0.044 C 
ATOM     20  C   UNL     1      -0.950   7.160  -9.207  0.00  0.00    -0.050 A 
ATOM     21  C   UNL     1      -1.560   7.274  -7.972  0.00  0.00    +0.005 A 
ATOM     22  C   UNL     1      -1.291   6.351  -6.980  0.00  0.00    +0.024 A 
ATOM     23  C   UNL     1      -0.406   5.309  -7.225  0.00  0.00    +0.036 A 
ATOM     24  C   UNL     1       0.209   5.202  -8.465  0.00  0.00    +0.024 A 
ATOM     25  C   UNL     1      -0.069   6.124  -9.454  0.00  0.00    +0.005 A 
ENDBRANCH   1  23
TORSDOF 2
