REMARK  Name = ZINC50609149
REMARK  6 active torsions:
REMARK  status: ('A' for Active; 'I' for Inactive)
REMARK    1  A    between atoms: C_1  and  C_2
REMARK    2  A    between atoms: C_7  and  C_8
REMARK    3  A    between atoms: C_19  and  C_21
REMARK    4  A    between atoms: C_24  and  C_27
REMARK    5  A    between atoms: C_27  and  O_29
REMARK    6  A    between atoms: O_29  and  C_30
REMARK                            x       y       z     vdW  Elec       q    Type
REMARK                         _______ _______ _______ _____ _____    ______ ____
ROOT
ATOM      1  C   UNL     1       0.272  -0.173   3.308  0.00  0.00    +0.154 C 
ATOM      2  C   UNL     1      -1.118  -0.630   3.785  0.00  0.00    +0.113 C 
ATOM      3  C   UNL     1      -1.118  -1.652   4.911  0.00  0.00    +0.065 C 
ATOM      4  C   UNL     1      -2.382  -2.351   5.168  0.00  0.00    +0.040 A 
ATOM      5  C   UNL     1      -2.608  -3.034   6.362  0.00  0.00    +0.033 A 
ATOM      6  C   UNL     1      -3.809  -3.686   6.558  0.00  0.00    +0.042 A 
ATOM      7  C   UNL     1      -4.784  -3.659   5.571  0.00  0.00    +0.023 A 
ATOM      8  C   UNL     1      -4.571  -2.982   4.387  0.00  0.00    +0.048 A 
ATOM      9  C   UNL     1      -3.373  -2.317   4.170  0.00  0.00    +0.130 A 
ATOM     10  O   UNL     1      -3.171  -1.639   3.015  0.00  0.00    -0.483 OA
ATOM     11  C   UNL     1      -1.837  -1.310   2.620  0.00  0.00    +0.215 C 
ATOM     12 CL   UNL     1      -4.101  -4.539   8.041  0.00  0.00    -0.084 Cl
ATOM     13  N   UNL     1      -0.023  -1.914   5.543  0.00  0.00    -0.215 NA
ATOM     14  C   UNL     1       1.195  -1.414   5.215  0.00  0.00    +0.249 A 
ATOM     15  N   UNL     1       1.398  -0.606   4.149  0.00  0.00    -0.221 N 
ATOM     16  N   UNL     1       2.771  -0.337   4.101  0.00  0.00    -0.156 NA
ATOM     17  C   UNL     1       3.312  -0.948   5.123  0.00  0.00    +0.247 A 
ATOM     18  N   UNL     1       2.376  -1.587   5.799  0.00  0.00    -0.198 NA
ENDROOT
BRANCH   1  25
ATOM     19  C   UNL     1      -0.840   1.230   1.040  0.00  0.00    +0.044 C 
ATOM     20  C   UNL     1      -0.041  -0.030   0.829  0.00  0.00    -0.045 A 
ATOM     21  C   UNL     1       0.166  -0.512  -0.451  0.00  0.00    +0.004 A 
ATOM     22  C   UNL     1       0.898  -1.668  -0.644  0.00  0.00    +0.000 A 
ATOM     23  C   UNL     1       1.426  -2.342   0.442  0.00  0.00    +0.000 A 
ATOM     24  C   UNL     1       1.220  -1.860   1.721  0.00  0.00    +0.006 A 
ATOM     25  C   UNL     1       0.491  -0.702   1.914  0.00  0.00    -0.019 A 
ENDBRANCH   1  25
BRANCH  11  26
ATOM     26  C   UNL     1      -1.100  -2.569   2.240  0.00  0.00    -0.007 A 
ATOM     27  C   UNL     1      -0.166  -3.107   3.107  0.00  0.00    +0.008 A 
ATOM     28  C   UNL     1       0.513  -4.259   2.765  0.00  0.00    +0.015 A 
ATOM     29  C   UNL     1       0.254  -4.881   1.542  0.00  0.00    +0.059 A 
ATOM     30  C   UNL     1      -0.691  -4.332   0.673  0.00  0.00    +0.015 A 
ATOM     31  C   UNL     1      -1.366  -3.183   1.030  0.00  0.00    +0.008 A 
BRANCH  29  32
ATOM     32  C   UNL     1       0.976  -6.115   1.170  0.00  0.00    +0.339 C 
ATOM     33  O   UNL     1       1.798  -6.590   1.928  0.00  0.00    -0.245 OA
BRANCH  32  34
ATOM     34  O   UNL     1       0.724  -6.713  -0.011  0.00  0.00    -0.464 OA
ATOM     35  C   UNL     1       1.460  -7.902  -0.306  0.00  0.00    +0.280 C 
ENDBRANCH  32  34
ENDBRANCH  29  32
ENDBRANCH  11  26
TORSDOF 4
