REMARK  Name = ZINC35574484
REMARK  5 active torsions:
REMARK  status: ('A' for Active; 'I' for Inactive)
REMARK    1  A    between atoms: C_6  and  C_7
REMARK    2  A    between atoms: C_7  and  N_8
REMARK    3  A    between atoms: N_11  and  C_14
REMARK    4  A    between atoms: C_14  and  C_15
REMARK    5  A    between atoms: C_29  and  C_31
REMARK                            x       y       z     vdW  Elec       q    Type
REMARK                         _______ _______ _______ _____ _____    ______ ____
ROOT
ATOM      1  C   UNL     1      -4.415  -3.453  -4.347  0.00  0.00    +0.034 A 
ATOM      2  C   UNL     1      -5.530  -2.759  -4.719  0.00  0.00    +0.091 A 
ATOM      3  C   UNL     1      -6.770  -3.422  -4.729  0.00  0.00    +0.253 A 
ATOM      4  O   UNL     1      -7.787  -2.833  -5.057  0.00  0.00    -0.268 OA
ATOM      5  N   UNL     1      -6.814  -4.722  -4.369  0.00  0.00    -0.295 N 
ATOM      6  H   UNL     1      -7.659  -5.199  -4.369  0.00  0.00    +0.172 HD
ATOM      7  C   UNL     1      -5.670  -5.362  -4.007  0.00  0.00    +0.198 A 
ATOM      8  N   UNL     1      -4.510  -4.736  -4.005  0.00  0.00    -0.223 NA
ATOM      9  N   UNL     1      -5.723  -6.681  -3.643  0.00  0.00    -0.298 N 
ATOM     10  C   UNL     1      -7.014  -7.374  -3.527  0.00  0.00    +0.127 C 
ATOM     11  C   UNL     1      -6.982  -8.620  -4.420  0.00  0.00    +0.127 C 
ATOM     12  N   UNL     1      -5.749  -9.369  -4.139  0.00  0.00    -0.295 N 
ATOM     13  C   UNL     1      -4.458  -8.676  -4.255  0.00  0.00    +0.127 C 
ATOM     14  C   UNL     1      -4.489  -7.431  -3.367  0.00  0.00    +0.127 C 
ATOM     15  C   UNL     1      -5.801 -10.667  -3.780  0.00  0.00    +0.247 C 
ATOM     16  O   UNL     1      -4.785 -11.249  -3.455  0.00  0.00    -0.270 OA
ENDROOT
BRANCH  15  17
ATOM     17  C   UNL     1      -7.094 -11.383  -3.783  0.00  0.00    +0.037 A 
ATOM     18  C   UNL     1      -8.003 -11.184  -4.824  0.00  0.00    +0.016 A 
ATOM     19  C   UNL     1      -9.207 -11.854  -4.822  0.00  0.00    +0.039 A 
ATOM     20  C   UNL     1      -9.517 -12.724  -3.788  0.00  0.00    +0.123 A 
ATOM     21  C   UNL     1      -8.618 -12.926  -2.752  0.00  0.00    +0.039 A 
ATOM     22  C   UNL     1      -7.408 -12.265  -2.748  0.00  0.00    +0.016 A 
ATOM     23  F   UNL     1     -10.699 -13.378  -3.790  0.00  0.00    -0.205 F 
ENDBRANCH  15  17
BRANCH   1  24
ATOM     24  C   UNL     1      -3.074  -2.766  -4.328  0.00  0.00    -0.022 C 
BRANCH  24  28
ATOM     25  N   UNL     1      -1.577  -1.278  -0.685  0.00  0.00    -0.302 NA
ATOM     26  C   UNL     1      -0.684  -2.106  -1.510  0.00  0.00    +0.066 C 
ATOM     27  C   UNL     1      -1.214  -2.148  -2.945  0.00  0.00    -0.063 C 
ATOM     28  N   UNL     1      -2.572  -2.709  -2.949  0.00  0.00    +0.385 N 
ATOM     29  C   UNL     1      -3.457  -1.858  -2.142  0.00  0.00    -0.063 C 
ATOM     30  C   UNL     1      -2.946  -1.813  -0.700  0.00  0.00    +0.066 C 
ATOM     31  H   UNL     1      -2.553  -3.639  -2.559  0.00  0.00    -0.081 HD
BRANCH  25  32
ATOM     32  C   UNL     1      -1.070  -1.166   0.689  0.00  0.00    +0.119 C 
BRANCH  32  38
ATOM     33  C   UNL     1       0.209   0.982   0.825  0.00  0.00    +0.006 A 
ATOM     34  C   UNL     1       1.396   1.690   0.822  0.00  0.00    +0.020 A 
ATOM     35  C   UNL     1       2.599   1.022   0.680  0.00  0.00    +0.041 A 
ATOM     36  C   UNL     1       2.614  -0.354   0.541  0.00  0.00    +0.020 A 
ATOM     37  C   UNL     1       1.427  -1.062   0.543  0.00  0.00    +0.006 A 
ATOM     38  C   UNL     1       0.225  -0.394   0.685  0.00  0.00    -0.033 A 
ATOM     39 CL   UNL     1       4.090   1.911   0.676  0.00  0.00    -0.084 Cl
ENDBRANCH  32  38
ENDBRANCH  25  32
ENDBRANCH  24  28
ENDBRANCH   1  24
TORSDOF 5
