REMARK  Name = ZINC23546785
REMARK  8 active torsions:
REMARK  status: ('A' for Active; 'I' for Inactive)
REMARK    1  A    between atoms: C_1  and  O_2
REMARK    2  A    between atoms: O_2  and  C_3
REMARK    3  A    between atoms: C_6  and  C_9
REMARK    4  A    between atoms: C_12  and  S_21
REMARK    5  A    between atoms: N_13  and  C_14
REMARK    6  A    between atoms: C_14  and  C_15
REMARK    7  A    between atoms: S_21  and  C_22
REMARK    8  A    between atoms: C_22  and  C_23
REMARK                            x       y       z     vdW  Elec       q    Type
REMARK                         _______ _______ _______ _____ _____    ______ ____
ROOT
ATOM      1  C   UNL     1       2.445  -2.510  -4.381  0.00  0.00    +0.165 A 
ATOM      2  N   UNL     1       2.715  -1.960  -5.542  0.00  0.00    -0.128 NA
ATOM      3  N   UNL     1       3.352  -2.793  -6.285  0.00  0.00    -0.122 NA
ATOM      4  C   UNL     1       3.527  -3.927  -5.645  0.00  0.00    +0.192 A 
ATOM      5  N   UNL     1       2.962  -3.785  -4.409  0.00  0.00    -0.300 N 
ENDROOT
BRANCH   1   9
ATOM      6  C   UNL     1       0.379  -0.692  -1.145  0.00  0.00    +0.120 A 
ATOM      7  C   UNL     1       0.945   0.099  -2.137  0.00  0.00    +0.046 A 
ATOM      8  C   UNL     1       1.616  -0.487  -3.188  0.00  0.00    +0.015 A 
ATOM      9  C   UNL     1       1.727  -1.877  -3.255  0.00  0.00    +0.020 A 
ATOM     10  C   UNL     1       1.157  -2.668  -2.255  0.00  0.00    +0.015 A 
ATOM     11  C   UNL     1       0.492  -2.074  -1.204  0.00  0.00    +0.046 A 
BRANCH   6  13
ATOM     12  C   UNL     1      -0.360   1.317  -0.110  0.00  0.00    +0.277 C 
ATOM     13  O   UNL     1      -0.282  -0.110  -0.109  0.00  0.00    -0.495 OA
ENDBRANCH   6  13
ENDBRANCH   1   9
BRANCH   5  14
ATOM     14  C   UNL     1       2.913  -4.783  -3.338  0.00  0.00    +0.157 C 
BRANCH  14  15
ATOM     15  C   UNL     1       1.673  -5.661  -3.515  0.00  0.00    +0.138 C 
ATOM     16  C   UNL     1       1.548  -6.637  -2.325  0.00  0.00    +0.035 C 
ATOM     17  C   UNL     1       1.066  -7.941  -3.018  0.00  0.00    +0.031 C 
ATOM     18  C   UNL     1       1.806  -7.844  -4.375  0.00  0.00    +0.160 C 
ATOM     19  O   UNL     1       1.799  -6.444  -4.708  0.00  0.00    -0.375 OA
ENDBRANCH  14  15
ENDBRANCH   5  14
BRANCH   4  20
ATOM     20  S   UNL     1       4.346  -5.360  -6.261  0.00  0.00    -0.078 S 
BRANCH  20  21
ATOM     21  C   UNL     1       4.861  -4.886  -7.935  0.00  0.00    +0.151 C 
BRANCH  21  22
ATOM     22  C   UNL     1       5.583  -6.038  -8.584  0.00  0.00    +0.121 A 
ATOM     23  N   UNL     1       6.063  -5.897  -9.846  0.00  0.00    -0.310 N 
ATOM     24  H   UNL     1       5.934  -5.056 -10.313  0.00  0.00    +0.170 HD
ATOM     25  C   UNL     1       6.714  -6.902 -10.464  0.00  0.00    +0.260 A 
ATOM     26  O   UNL     1       7.139  -6.761 -11.597  0.00  0.00    -0.267 OA
ATOM     27  C   UNL     1       6.897  -8.138  -9.763  0.00  0.00    +0.075 A 
ATOM     28  C   UNL     1       7.570  -9.357 -10.236  0.00  0.00    -0.023 A 
ATOM     29  C   UNL     1       7.612 -10.396  -9.385  0.00  0.00    -0.004 A 
ATOM     30  S   UNL     1       6.775  -9.828  -7.923  0.00  0.00    -0.073 S 
ATOM     31  C   UNL     1       6.368  -8.189  -8.467  0.00  0.00    +0.116 A 
ATOM     32  N   UNL     1       5.740  -7.152  -7.920  0.00  0.00    -0.226 NA
ATOM     33  C   UNL     1       8.319 -11.586  -9.977  0.00  0.00    +0.043 C 
ATOM     34  C   UNL     1       8.348 -11.305 -11.495  0.00  0.00    +0.010 C 
ATOM     35  C   UNL     1       8.281  -9.765 -11.529  0.00  0.00    +0.037 C 
ENDBRANCH  21  22
ENDBRANCH  20  21
ENDBRANCH   4  20
TORSDOF 7
