REMARK  Name = ZINC43225230
REMARK  17 active torsions:
REMARK  status: ('A' for Active; 'I' for Inactive)
REMARK    1  A    between atoms: C_1  and  C_2
REMARK    2  A    between atoms: C_2  and  C_3
REMARK    3  A    between atoms: C_3  and  C_4
REMARK    4  A    between atoms: C_4  and  C_5
REMARK    5  A    between atoms: C_5  and  C_6
REMARK    6  A    between atoms: C_7  and  C_21
REMARK    7  A    between atoms: C_8  and  C_18
REMARK    8  A    between atoms: C_9  and  C_17
REMARK    9  A    between atoms: N_10  and  C_11
REMARK   10  A    between atoms: C_11  and  C_12
REMARK   11  A    between atoms: C_12  and  C_13
REMARK   12  A    between atoms: C_13  and  N_14
REMARK   13  A    between atoms: N_14  and  C_15
REMARK   14  A    between atoms: N_14  and  C_16
REMARK   15  A    between atoms: C_22  and  C_34
REMARK   16  A    between atoms: N_23  and  C_33
REMARK   17  A    between atoms: N_24  and  C_27
REMARK                            x       y       z     vdW  Elec       q    Type
REMARK                         _______ _______ _______ _____ _____    ______ ____
ROOT
ATOM      1  C   UNL     1       1.605  -4.371   2.627  0.00  0.00    +0.028 A 
ATOM      2  C   UNL     1       0.496  -5.057   3.003  0.00  0.00    +0.022 A 
ATOM      3  C   UNL     1       0.701  -6.443   2.549  0.00  0.00    +0.065 A 
ATOM      4  C   UNL     1       1.923  -6.465   1.937  0.00  0.00    +0.029 A 
ATOM      5  N   UNL     1       2.451  -5.228   1.983  0.00  0.00    -0.347 N 
ATOM      6  C   UNL     1       2.570  -7.673   1.309  0.00  0.00    +0.064 C 
ENDROOT
BRANCH   2   7
ATOM      7  C   UNL     1      -0.683  -4.519   3.726  0.00  0.00    +0.071 A 
ATOM      8  C   UNL     1      -1.802  -3.988   3.165  0.00  0.00    +0.046 A 
ATOM      9  N   UNL     1      -2.651  -3.610   4.163  0.00  0.00    -0.283 N 
ATOM     10  N   UNL     1      -2.071  -3.902   5.402  0.00  0.00    -0.217 N 
ATOM     11  C   UNL     1      -0.865  -4.466   5.181  0.00  0.00    +0.280 A 
ATOM     12  O   UNL     1      -0.079  -4.853   6.026  0.00  0.00    -0.265 OA
ATOM     13  C   UNL     1      -3.966  -2.994   3.969  0.00  0.00    +0.171 C 
ATOM     14  C   UNL     1      -2.061  -3.841   1.687  0.00  0.00    +0.066 C 
BRANCH  10  15
ATOM     15  C   UNL     1      -2.643  -3.656   6.654  0.00  0.00    +0.067 A 
ATOM     16  C   UNL     1      -3.957  -4.033   6.905  0.00  0.00    +0.028 A 
ATOM     17  C   UNL     1      -4.519  -3.790   8.143  0.00  0.00    +0.002 A 
ATOM     18  C   UNL     1      -3.776  -3.171   9.132  0.00  0.00    +0.000 A 
ATOM     19  C   UNL     1      -2.469  -2.795   8.885  0.00  0.00    +0.002 A 
ATOM     20  C   UNL     1      -1.899  -3.041   7.652  0.00  0.00    +0.028 A 
ENDBRANCH  10  15
ENDBRANCH   2   7
BRANCH   3  21
ATOM     21  C   UNL     1      -0.222  -7.575   2.721  0.00  0.00    +0.244 C 
ATOM     22  O   UNL     1      -1.062  -7.809   1.872  0.00  0.00    -0.270 OA
ATOM     23  N   UNL     1      -0.139  -8.353   3.818  0.00  0.00    -0.325 N 
ATOM     24  H   UNL     1       0.530  -8.166   4.495  0.00  0.00    +0.145 HD
ATOM     25  H   UNL     1      -0.748  -9.099   3.932  0.00  0.00    +0.145 HD
ENDBRANCH   3  21
BRANCH   1  26
ATOM     26  C   UNL     1       1.859  -2.906   2.874  0.00  0.00    +0.054 C 
BRANCH  26  27
ATOM     27  C   UNL     1       1.312  -2.089   1.701  0.00  0.00    +0.006 C 
BRANCH  27  28
ATOM     28  C   UNL     1       1.569  -0.602   1.952  0.00  0.00    +0.000 C 
BRANCH  28  30
ATOM     29  C   UNL     1       1.280   1.702   1.029  0.00  0.00    +0.004 C 
ATOM     30  C   UNL     1       1.022   0.215   0.779  0.00  0.00    -0.003 C 
ENDBRANCH  28  30
ENDBRANCH  27  28
ENDBRANCH  26  27
ENDBRANCH   1  26
BRANCH   5  31
ATOM     31  C   UNL     1       3.752  -4.853   1.423  0.00  0.00    +0.120 C 
BRANCH  31  32
ATOM     32  C   UNL     1       4.838  -5.043   2.485  0.00  0.00    +0.003 C 
BRANCH  32  33
ATOM     33  C   UNL     1       6.197  -4.652   1.900  0.00  0.00    -0.078 C 
BRANCH  33  34
ATOM     34  N   UNL     1       7.239  -4.835   2.919  0.00  0.00    +0.376 N 
ATOM     35  C   UNL     1       8.556  -4.575   2.324  0.00  0.00    -0.097 C 
ATOM     36  C   UNL     1       7.009  -3.899   4.028  0.00  0.00    -0.097 C 
ATOM     37  H   UNL     1       7.207  -5.782   3.266  0.00  0.00    -0.083 HD
ENDBRANCH  33  34
ENDBRANCH  32  33
ENDBRANCH  31  32
ENDBRANCH   5  31
TORSDOF 11
