REMARK  Name = ZINC55084397
REMARK  5 active torsions:
REMARK  status: ('A' for Active; 'I' for Inactive)
REMARK    1  A    between atoms: C_1  and  C_2
REMARK    2  A    between atoms: C_2  and  C_3
REMARK    3  A    between atoms: C_2  and  C_4
REMARK    4  A    between atoms: C_4  and  N_5
REMARK    5  A    between atoms: C_17  and  C_20
REMARK                            x       y       z     vdW  Elec       q    Type
REMARK                         _______ _______ _______ _____ _____    ______ ____
ROOT
ATOM      1  N   UNL     1      -1.404  -1.696   0.827  0.00  0.00    +0.382 N 
ATOM      2  C   UNL     1      -0.525  -2.625   1.547  0.00  0.00    -0.059 C 
ATOM      3  C   UNL     1      -0.425  -3.941   0.767  0.00  0.00    +0.091 C 
ATOM      4  N   UNL     1      -1.786  -4.449   0.534  0.00  0.00    -0.289 N 
ATOM      5  C   UNL     1      -2.782  -3.528  -0.036  0.00  0.00    +0.091 C 
ATOM      6  C   UNL     1      -2.770  -2.232   0.781  0.00  0.00    -0.059 C 
ATOM      7  C   UNL     1      -2.111  -5.722   0.835  0.00  0.00    +0.305 C 
ATOM      8  O   UNL     1      -1.336  -6.415   1.465  0.00  0.00    -0.252 OA
ATOM      9  N   UNL     1      -3.296  -6.227   0.437  0.00  0.00    -0.285 N 
ATOM     10  C   UNL     1      -3.879  -7.392   1.115  0.00  0.00    +0.109 C 
ATOM     11  C   UNL     1      -4.199  -8.463   0.067  0.00  0.00    +0.020 C 
ATOM     12  C   UNL     1      -5.090  -7.858  -1.020  0.00  0.00    +0.018 C 
ATOM     13  C   UNL     1      -4.347  -6.712  -1.711  0.00  0.00    +0.119 C 
ATOM     14  C   UNL     1      -4.032  -5.618  -0.680  0.00  0.00    +0.124 C 
ATOM     15  H   UNL     1      -1.061  -1.573  -0.114  0.00  0.00    -0.082 HD
ENDROOT
BRANCH  13  16
ATOM     16  C   UNL     1      -5.213  -6.138  -2.803  0.00  0.00    +0.361 C 
ATOM     17  O   UNL     1      -5.114  -4.961  -3.104  0.00  0.00    -0.246 OA
ATOM     18  O   UNL     1      -6.012  -6.851  -3.385  0.00  0.00    -0.246 OA
ENDBRANCH  13  16
BRANCH   1  19
ATOM     19  C   UNL     1      -1.412  -0.399   1.516  0.00  0.00    -0.076 C 
BRANCH  19  21
ATOM     20  C   UNL     1      -2.252   1.953   1.426  0.00  0.00    +0.005 C 
ATOM     21  C   UNL     1      -2.189   0.619   0.679  0.00  0.00    -0.034 C 
ATOM     22  C   UNL     1      -1.484   0.820  -0.664  0.00  0.00    +0.005 C 
ENDBRANCH  19  21
ENDBRANCH   1  19
TORSDOF 3
