REMARK  Name = ZINC06300225
REMARK  12 active torsions:
REMARK  status: ('A' for Active; 'I' for Inactive)
REMARK    1  A    between atoms: C_1  and  C_2
REMARK    2  A    between atoms: C_4  and  C_34
REMARK    3  A    between atoms: C_5  and  C_9
REMARK    4  A    between atoms: C_6  and  C_8
REMARK    5  A    between atoms: C_9  and  O_10
REMARK    6  A    between atoms: O_10  and  C_11
REMARK    7  A    between atoms: C_14  and  C_19
REMARK    8  A    between atoms: C_16  and  O_17
REMARK    9  A    between atoms: O_17  and  C_18
REMARK   10  A    between atoms: C_22  and  C_33
REMARK   11  A    between atoms: C_28  and  N_32
REMARK   12  A    between atoms: C_29  and  C_30
REMARK                            x       y       z     vdW  Elec       q    Type
REMARK                         _______ _______ _______ _____ _____    ______ ____
ROOT
ATOM      1  C   UNL     1       1.608  -6.080  -0.040  0.00  0.00    +0.162 A 
ATOM      2  C   UNL     1       0.521  -6.939  -0.044  0.00  0.00    +0.050 A 
ATOM      3  C   UNL     1       0.722  -8.307  -0.053  0.00  0.00    +0.008 A 
ATOM      4  C   UNL     1       2.006  -8.821  -0.058  0.00  0.00    -0.031 A 
ATOM      5  C   UNL     1       3.094  -7.969  -0.053  0.00  0.00    +0.054 A 
ATOM      6  C   UNL     1       2.900  -6.597  -0.050  0.00  0.00    +0.162 A 
ENDROOT
BRANCH   4   7
ATOM      7  C   UNL     1       2.219 -10.313  -0.067  0.00  0.00    +0.101 C 
ATOM      8  C   UNL     1       1.574 -10.911  -1.291  0.00  0.00    +0.049 A 
ATOM      9  C   UNL     1       1.972 -10.836  -2.619  0.00  0.00    +0.068 A 
ATOM     10  N   UNL     1       1.107 -11.507  -3.342  0.00  0.00    -0.176 NA
ATOM     11  N   UNL     1       0.126 -12.032  -2.485  0.00  0.00    -0.246 N 
ATOM     12  H   UNL     1      -0.635 -12.570  -2.751  0.00  0.00    +0.192 HD
ATOM     13  C   UNL     1       0.430 -11.656  -1.233  0.00  0.00    +0.222 A 
ATOM     14  O   UNL     1      -0.214 -11.920  -0.068  0.00  0.00    -0.423 OA
ATOM     15  C   UNL     1       0.443 -11.662   1.081  0.00  0.00    +0.200 C 
ATOM     16  C   UNL     1       1.576 -10.926   1.152  0.00  0.00    +0.098 C 
ATOM     17  C   UNL     1       3.186 -10.110  -3.140  0.00  0.00    +0.068 C 
BRANCH  15  18
ATOM     18  N   UNL     1      -0.069 -12.174   2.247  0.00  0.00    -0.328 N 
ATOM     19  H   UNL     1      -0.880 -12.705   2.228  0.00  0.00    +0.145 HD
ATOM     20  H   UNL     1       0.381 -12.005   3.089  0.00  0.00    +0.145 HD
ENDBRANCH  15  18
BRANCH  16  21
ATOM     21  C   UNL     1       2.188 -10.722   2.430  0.00  0.00    +0.101 C 
ATOM     22  N   UNL     1       2.673 -10.561   3.445  0.00  0.00    -0.191 NA
ENDBRANCH  16  21
ENDBRANCH   4   7
BRANCH   6  23
ATOM     23  O   UNL     1       3.970  -5.757  -0.051  0.00  0.00    -0.491 OA
ATOM     24  C   UNL     1       5.266  -6.358  -0.062  0.00  0.00    +0.277 C 
ENDBRANCH   6  23
BRANCH   1  25
ATOM     25  O   UNL     1       1.413  -4.734  -0.032  0.00  0.00    -0.484 OA
BRANCH  25  26
ATOM     26  C   UNL     1       0.059  -4.275  -0.021  0.00  0.00    +0.265 C 
BRANCH  26  31
ATOM     27  C   UNL     1      -0.018   1.503   0.010  0.00  0.00    +0.044 C 
ATOM     28  C   UNL     1       0.002  -0.004   0.002  0.00  0.00    -0.050 A 
ATOM     29  C   UNL     1       0.006  -0.689  -1.199  0.00  0.00    +0.007 A 
ATOM     30  C   UNL     1       0.025  -2.071  -1.206  0.00  0.00    -0.044 A 
ATOM     31  C   UNL     1       0.040  -2.768  -0.013  0.00  0.00    -0.005 A 
ATOM     32  C   UNL     1       0.037  -2.084   1.188  0.00  0.00    -0.044 A 
ATOM     33  C   UNL     1       0.023  -0.702   1.195  0.00  0.00    +0.007 A 
ATOM     34  C   UNL     1       0.054  -2.844   2.489  0.00  0.00    +0.044 C 
ATOM     35  C   UNL     1       0.027  -2.817  -2.516  0.00  0.00    +0.044 C 
ENDBRANCH  26  31
ENDBRANCH  25  26
ENDBRANCH   1  25
TORSDOF 7
