REMARK  Name = ZINC22843211
REMARK  9 active torsions:
REMARK  status: ('A' for Active; 'I' for Inactive)
REMARK    1  A    between atoms: C_1  and  C_2
REMARK    2  A    between atoms: C_6  and  C_41
REMARK    3  A    between atoms: C_7  and  O_8
REMARK    4  A    between atoms: O_8  and  C_9
REMARK    5  A    between atoms: C_9  and  C_10
REMARK    6  A    between atoms: C_13  and  C_16
REMARK    7  A    between atoms: C_28  and  C_32
REMARK    8  A    between atoms: C_33  and  C_35
REMARK    9  A    between atoms: N_38  and  C_40
REMARK                            x       y       z     vdW  Elec       q    Type
REMARK                         _______ _______ _______ _____ _____    ______ ____
ROOT
ATOM      1  C   UNL     1      -0.482   3.101   7.915  0.00  0.00    +0.182 A 
ATOM      2  N   UNL     1      -0.408   4.432   8.041  0.00  0.00    -0.206 NA
ATOM      3  C   UNL     1      -0.234   4.742   9.303  0.00  0.00    +0.167 A 
ATOM      4  C   UNL     1      -0.096   5.974   9.970  0.00  0.00    +0.071 A 
ATOM      5  C   UNL     1       0.074   5.921  11.326  0.00  0.00    +0.232 A 
ATOM      6  N   UNL     1       0.107   4.737  11.965  0.00  0.00    -0.201 NA
ATOM      7  C   UNL     1      -0.019   3.579  11.369  0.00  0.00    +0.229 A 
ATOM      8  N   UNL     1      -0.192   3.563  10.024  0.00  0.00    -0.201 N 
ATOM      9  N   UNL     1      -0.360   2.537   9.106  0.00  0.00    -0.143 NA
ATOM     10  O   UNL     1       0.214   7.039  12.089  0.00  0.00    -0.418 OA
ATOM     11  C   UNL     1      -0.118   8.236  11.543  0.00  0.00    +0.245 A 
ATOM     12  C   UNL     1      -0.301   8.402  10.153  0.00  0.00    +0.048 A 
ATOM     13  C   UNL     1      -0.620   9.684   9.922  0.00  0.00    +0.041 A 
ATOM     14  N   UNL     1      -0.641  10.322  11.115  0.00  0.00    -0.278 N 
ATOM     15  H   UNL     1      -0.842  11.260  11.256  0.00  0.00    +0.189 HD
ATOM     16  N   UNL     1      -0.322   9.389  12.114  0.00  0.00    -0.135 NA
ATOM     17  C   UNL     1      -0.902  10.302   8.577  0.00  0.00    +0.065 C 
ATOM     18  C   UNL     1      -0.141   7.257   9.187  0.00  0.00    +0.098 C 
ENDROOT
BRANCH   1  22
ATOM     19  C   UNL     1      -1.046   1.011   4.254  0.00  0.00    -0.010 A 
ATOM     20  C   UNL     1      -0.929   0.307   5.439  0.00  0.00    +0.007 A 
ATOM     21  C   UNL     1      -0.746   0.980   6.630  0.00  0.00    +0.012 A 
ATOM     22  C   UNL     1      -0.679   2.372   6.637  0.00  0.00    +0.021 A 
ATOM     23  C   UNL     1      -0.796   3.076   5.441  0.00  0.00    +0.012 A 
ATOM     24  C   UNL     1      -0.974   2.392   4.255  0.00  0.00    +0.007 A 
BRANCH  19  25
ATOM     25  C   UNL     1      -1.246   0.270   2.957  0.00  0.00    +0.264 C 
BRANCH  25  26
ATOM     26  O   UNL     1       0.025  -0.033   2.381  0.00  0.00    -0.487 OA
BRANCH  26  33
ATOM     27  C   UNL     1      -0.018   1.503   0.010  0.00  0.00    +0.047 C 
ATOM     28  C   UNL     1       0.002  -0.004   0.002  0.00  0.00    -0.009 A 
ATOM     29  C   UNL     1       0.006  -0.689  -1.198  0.00  0.00    +0.007 A 
ATOM     30  C   UNL     1       0.024  -2.071  -1.206  0.00  0.00    +0.001 A 
ATOM     31  C   UNL     1       0.040  -2.772  -0.014  0.00  0.00    +0.007 A 
ATOM     32  C   UNL     1       0.036  -2.092   1.188  0.00  0.00    -0.009 A 
ATOM     33  C   UNL     1       0.023  -0.705   1.199  0.00  0.00    +0.127 A 
ATOM     34  C   UNL     1       0.052  -2.856   2.487  0.00  0.00    +0.047 C 
ENDBRANCH  26  33
ENDBRANCH  25  26
ENDBRANCH  19  25
ENDBRANCH   1  22
BRANCH  18  35
ATOM     35  C   UNL     1       1.142   7.424   8.414  0.00  0.00    +0.002 A 
ATOM     36  C   UNL     1       2.428   7.495   8.960  0.00  0.00    +0.139 A 
ATOM     37  N   UNL     1       3.281   7.639   7.978  0.00  0.00    -0.180 NA
ATOM     38  N   UNL     1       2.564   7.664   6.775  0.00  0.00    -0.274 N 
ATOM     39  C   UNL     1       1.254   7.524   7.069  0.00  0.00    +0.112 A 
ATOM     40  C   UNL     1       3.135   7.809   5.434  0.00  0.00    +0.172 C 
ENDBRANCH  18  35
TORSDOF 5
