REMARK  Name = ZINC02965327
REMARK  10 active torsions:
REMARK  status: ('A' for Active; 'I' for Inactive)
REMARK    1  A    between atoms: C_1  and  N_2
REMARK    2  A    between atoms: N_2  and  C_3
REMARK    3  A    between atoms: C_3  and  N_5
REMARK    4  A    between atoms: N_5  and  C_6
REMARK    5  A    between atoms: N_5  and  C_18
REMARK    6  A    between atoms: C_6  and  C_7
REMARK    7  A    between atoms: C_7  and  C_8
REMARK    8  A    between atoms: C_11  and  S_14
REMARK    9  A    between atoms: S_14  and  N_17
REMARK   10  A    between atoms: N_23  and  C_26
REMARK                            x       y       z     vdW  Elec       q    Type
REMARK                         _______ _______ _______ _____ _____    ______ ____
ROOT
ATOM      1  N   UNL     1       0.520  -2.045   1.060  0.00  0.00    -0.300 N 
ENDROOT
BRANCH   1   2
ATOM      2  C   UNL     1      -0.101  -2.772  -0.049  0.00  0.00    +0.171 C 
ATOM      3  C   UNL     1       0.624  -2.463  -1.375  0.00  0.00    +0.128 C 
ATOM      4  C   UNL     1      -0.451  -1.822  -2.226  0.00  0.00    +0.228 C 
ATOM      5  O   UNL     1      -0.303  -1.421  -3.361  0.00  0.00    -0.275 OA
ATOM      6  N   UNL     1      -1.591  -1.767  -1.527  0.00  0.00    -0.209 N 
ATOM      7  C   UNL     1      -1.511  -2.276  -0.288  0.00  0.00    +0.247 C 
ATOM      8  O   UNL     1      -2.419  -2.330   0.513  0.00  0.00    -0.273 OA
BRANCH   6   9
ATOM      9  C   UNL     1      -2.775  -1.224  -2.047  0.00  0.00    +0.044 A 
ATOM     10  C   UNL     1      -3.306  -1.720  -3.230  0.00  0.00    +0.024 A 
ATOM     11  C   UNL     1      -4.472  -1.183  -3.740  0.00  0.00    +0.002 A 
ATOM     12  C   UNL     1      -5.109  -0.152  -3.074  0.00  0.00    +0.000 A 
ATOM     13  C   UNL     1      -4.582   0.344  -1.896  0.00  0.00    +0.002 A 
ATOM     14  C   UNL     1      -3.420  -0.193  -1.378  0.00  0.00    +0.024 A 
ENDBRANCH   6   9
ENDBRANCH   1   2
BRANCH   1  15
ATOM     15  C   UNL     1       0.601  -0.700   1.023  0.00  0.00    +0.133 C 
ATOM     16  S   UNL     1       1.438   0.141   2.257  0.00  0.00    -0.019 S 
BRANCH  15  18
ATOM     17  C   UNL     1       0.006   1.447   0.037  0.00  0.00    +0.127 C 
ATOM     18  N   UNL     1       0.023  -0.018   0.015  0.00  0.00    -0.329 N 
ATOM     19  H   UNL     1      -0.382  -0.496  -0.725  0.00  0.00    +0.147 HD
ENDBRANCH  15  18
ENDBRANCH   1  15
BRANCH   1  20
ATOM     20  C   UNL     1       1.054  -2.780   2.210  0.00  0.00    +0.112 C 
BRANCH  20  21
ATOM     21  C   UNL     1      -0.042  -2.940   3.266  0.00  0.00    +0.054 C 
BRANCH  21  22
ATOM     22  C   UNL     1       0.507  -3.696   4.448  0.00  0.00    -0.046 A 
ATOM     23  C   UNL     1       0.430  -5.076   4.484  0.00  0.00    +0.005 A 
ATOM     24  C   UNL     1       0.933  -5.769   5.568  0.00  0.00    +0.029 A 
ATOM     25  C   UNL     1       1.515  -5.082   6.618  0.00  0.00    +0.105 A 
ATOM     26  C   UNL     1       1.594  -3.703   6.582  0.00  0.00    +0.029 A 
ATOM     27  C   UNL     1       1.094  -3.010   5.495  0.00  0.00    +0.005 A 
BRANCH  25  28
ATOM     28  S   UNL     1       2.156  -5.966   8.001  0.00  0.00    +0.056 S 
ATOM     29  O   UNL     1       2.157  -5.060   9.096  0.00  0.00    -0.153 OA
ATOM     30  O   UNL     1       1.470  -7.210   8.042  0.00  0.00    -0.153 OA
BRANCH  28  31
ATOM     31  N   UNL     1       3.741  -6.311   7.670  0.00  0.00    -0.204 NA
ATOM     32  H   UNL     1       4.383  -6.384   8.393  0.00  0.00    +0.144 HD
ATOM     33  H   UNL     1       4.029  -6.439   6.752  0.00  0.00    +0.144 HD
ENDBRANCH  28  31
ENDBRANCH  25  28
ENDBRANCH  21  22
ENDBRANCH  20  21
ENDBRANCH   1  20
TORSDOF 9
