REMARK  Name = ZINC28706995
REMARK  6 active torsions:
REMARK  status: ('A' for Active; 'I' for Inactive)
REMARK    1  A    between atoms: N_4  and  C_8
REMARK    2  A    between atoms: C_8  and  C_9
REMARK    3  A    between atoms: N_12  and  C_16
REMARK    4  A    between atoms: C_19  and  N_23
REMARK    5  A    between atoms: N_26  and  C_29
REMARK    6  A    between atoms: C_32  and  N_34
REMARK                            x       y       z     vdW  Elec       q    Type
REMARK                         _______ _______ _______ _____ _____    ______ ____
ROOT
ATOM      1  C   UNL     1       0.039  -2.774  -0.014  0.00  0.00    +0.042 A 
ATOM      2  C   UNL     1       0.621  -2.066  -1.056  0.00  0.00    +0.025 A 
ATOM      3  C   UNL     1       0.597  -0.684  -1.051  0.00  0.00    +0.028 A 
ATOM      4  C   UNL     1       0.002  -0.004   0.002  0.00  0.00    +0.066 A 
ATOM      5  C   UNL     1      -0.581  -0.713   1.047  0.00  0.00    +0.146 A 
ATOM      6  C   UNL     1      -0.562  -2.096   1.038  0.00  0.00    +0.063 A 
ATOM      7  F   UNL     1      -1.164  -0.052   2.070  0.00  0.00    -0.203 F 
ENDROOT
BRANCH   1  10
ATOM      8  C   UNL     1       0.396  -6.454  -0.583  0.00  0.00    +0.215 C 
ATOM      9  C   UNL     1       0.653  -5.016  -1.074  0.00  0.00    +0.163 C 
ATOM     10  N   UNL     1       0.058  -4.176  -0.023  0.00  0.00    -0.234 N 
ATOM     11  C   UNL     1      -0.467  -4.969   0.921  0.00  0.00    +0.408 C 
ATOM     12  O   UNL     1      -1.030  -4.540   1.909  0.00  0.00    -0.226 OA
ATOM     13  O   UNL     1      -0.316  -6.276   0.675  0.00  0.00    -0.443 OA
BRANCH   8  14
ATOM     14  C   UNL     1      -0.472  -7.215  -1.587  0.00  0.00    +0.171 C 
BRANCH  14  18
ATOM     15  C   UNL     1      -1.367 -11.036  -0.058  0.00  0.00    +0.007 A 
ATOM     16  C   UNL     1      -2.203  -9.941   0.202  0.00  0.00    +0.018 A 
ATOM     17  C   UNL     1      -1.896  -8.723  -0.300  0.00  0.00    +0.089 A 
ATOM     18  N   UNL     1      -0.782  -8.545  -1.056  0.00  0.00    -0.312 N 
ATOM     19  C   UNL     1       0.037  -9.578  -1.328  0.00  0.00    +0.251 A 
ATOM     20  O   UNL     1       1.032  -9.403  -2.014  0.00  0.00    -0.268 OA
ATOM     21  C   UNL     1      -0.249 -10.856  -0.819  0.00  0.00    +0.070 A 
ENDBRANCH  14  18
ENDBRANCH   8  14
ENDBRANCH   1  10
BRANCH   4  22
ATOM     22  N   UNL     1      -0.017   1.397   0.010  0.00  0.00    -0.325 N 
ATOM     23  C   UNL     1      -0.798   1.919  -1.120  0.00  0.00    +0.124 C 
ATOM     24  C   UNL     1      -0.861   3.446  -1.031  0.00  0.00    +0.124 C 
ATOM     25  N   UNL     1       0.504   3.991  -1.041  0.00  0.00    -0.322 N 
ATOM     26  C   UNL     1       1.285   3.469   0.089  0.00  0.00    +0.124 C 
ATOM     27  C   UNL     1       1.348   1.942  -0.000  0.00  0.00    +0.124 C 
BRANCH  25  28
ATOM     28  C   UNL     1       0.485   5.387  -1.034  0.00  0.00    +0.070 A 
ATOM     29  C   UNL     1      -0.124   6.242  -1.902  0.00  0.00    +0.033 A 
ATOM     30  C   UNL     1      -0.003   7.604  -1.691  0.00  0.00    +0.042 A 
ATOM     31  C   UNL     1       0.714   8.044  -0.631  0.00  0.00    +0.165 A 
ATOM     32  S   UNL     1       1.245   6.515   0.122  0.00  0.00    -0.050 S 
BRANCH  31  33
ATOM     33  N   UNL     1       0.984   9.437  -0.202  0.00  0.00    +0.063 N 
ATOM     34  O   UNL     1       0.531  10.370  -0.841  0.00  0.00    -0.126 OA
ATOM     35  O   UNL     1       1.658   9.649   0.790  0.00  0.00    -0.126 OA
ENDBRANCH  31  33
ENDBRANCH  25  28
ENDBRANCH   4  22
TORSDOF 6
