REMARK  Name = ZINC32851025
REMARK  8 active torsions:
REMARK  status: ('A' for Active; 'I' for Inactive)
REMARK    1  A    between atoms: C_1  and  C_2
REMARK    2  A    between atoms: C_2  and  C_4
REMARK    3  A    between atoms: C_2  and  N_18
REMARK    4  A    between atoms: N_10  and  C_11
REMARK    5  A    between atoms: N_21  and  C_24
REMARK    6  A    between atoms: C_24  and  C_25
REMARK    7  A    between atoms: C_28  and  O_32
REMARK    8  A    between atoms: O_32  and  C_33
REMARK                            x       y       z     vdW  Elec       q    Type
REMARK                         _______ _______ _______ _____ _____    ______ ____
ROOT
ATOM      1  C   UNL     1      -3.882   1.627  -4.662  0.00  0.00    -0.005 C 
ATOM      2  C   UNL     1      -2.368   1.833  -4.743  0.00  0.00    -0.002 C 
ENDROOT
BRANCH   2   3
ATOM      3  C   UNL     1      -1.866   1.348  -6.078  0.00  0.00    +0.123 A 
ATOM      4  N   UNL     1      -1.753   0.051  -6.308  0.00  0.00    -0.201 NA
ATOM      5  C   UNL     1      -1.310  -0.382  -7.486  0.00  0.00    +0.217 A 
ATOM      6  N   UNL     1      -0.981   0.491  -8.432  0.00  0.00    -0.181 NA
ATOM      7  C   UNL     1      -1.095   1.794  -8.197  0.00  0.00    +0.224 A 
ATOM      8  N   UNL     1      -1.544   2.219  -7.018  0.00  0.00    -0.201 NA
ATOM      9  N   UNL     1      -0.754   2.706  -9.177  0.00  0.00    -0.284 N 
ATOM     10  N   UNL     1      -1.192  -1.736  -7.725  0.00  0.00    -0.327 N 
ATOM     11  H   UNL     1      -0.935   3.779  -9.017  0.00  0.00    +0.155 HD
ATOM     12  H   UNL     1      -0.826  -2.093  -8.699  0.00  0.00    +0.145 HD
ATOM     13  H   UNL     1      -1.465  -2.458  -6.941  0.00  0.00    +0.145 HD
BRANCH   9  14
ATOM     14  C   UNL     1      -0.178   2.265 -10.373  0.00  0.00    +0.034 A 
ATOM     15  C   UNL     1       0.719   1.204 -10.363  0.00  0.00    +0.023 A 
ATOM     16  C   UNL     1       1.282   0.768 -11.547  0.00  0.00    +0.002 A 
ATOM     17  C   UNL     1       0.961   1.393 -12.738  0.00  0.00    +0.000 A 
ATOM     18  C   UNL     1       0.073   2.452 -12.750  0.00  0.00    +0.002 A 
ATOM     19  C   UNL     1      -0.498   2.890 -11.571  0.00  0.00    +0.023 A 
ENDBRANCH   9  14
ENDBRANCH   2   3
BRANCH   2  20
ATOM     20  N   UNL     1      -1.712   1.077  -3.668  0.00  0.00    +0.388 N 
ATOM     21  C   UNL     1      -0.253   1.238  -3.726  0.00  0.00    -0.062 C 
ATOM     22  C   UNL     1       0.396   0.373  -2.642  0.00  0.00    +0.066 C 
ATOM     23  N   UNL     1      -0.123   0.770  -1.326  0.00  0.00    -0.302 NA
ATOM     24  C   UNL     1      -1.583   0.608  -1.269  0.00  0.00    +0.066 C 
ATOM     25  C   UNL     1      -2.232   1.473  -2.352  0.00  0.00    -0.062 C 
ATOM     26  H   UNL     1      -1.943   0.011  -3.818  0.00  0.00    -0.081 HD
BRANCH  23  27
ATOM     27  C   UNL     1       0.532   0.013  -0.252  0.00  0.00    +0.119 C 
BRANCH  27  28
ATOM     28  C   UNL     1       0.161   0.609   1.082  0.00  0.00    -0.030 A 
ATOM     29  C   UNL     1       0.942   1.609   1.632  0.00  0.00    +0.008 A 
ATOM     30  C   UNL     1       0.601   2.162   2.852  0.00  0.00    +0.049 A 
ATOM     31  C   UNL     1      -0.518   1.705   3.531  0.00  0.00    +0.155 A 
ATOM     32  C   UNL     1      -1.298   0.697   2.980  0.00  0.00    +0.165 A 
ATOM     33  C   UNL     1      -0.956   0.151   1.755  0.00  0.00    +0.047 A 
ATOM     34  F   UNL     1      -2.390   0.250   3.638  0.00  0.00    -0.202 F 
BRANCH  31  35
ATOM     35  O   UNL     1      -0.851   2.244   4.734  0.00  0.00    -0.492 OA
ATOM     36  C   UNL     1      -0.003   3.277   5.239  0.00  0.00    +0.277 C 
ENDBRANCH  31  35
ENDBRANCH  27  28
ENDBRANCH  23  27
ENDBRANCH   2  20
TORSDOF 6
