REMARK  Name = ZINC08897724
REMARK  6 active torsions:
REMARK  status: ('A' for Active; 'I' for Inactive)
REMARK    1  A    between atoms: C_1  and  C_2
REMARK    2  A    between atoms: C_7  and  N_8
REMARK    3  A    between atoms: C_9  and  C_11
REMARK    4  A    between atoms: C_11  and  S_12
REMARK    5  A    between atoms: S_12  and  C_13
REMARK    6  A    between atoms: C_25  and  C_29
REMARK                            x       y       z     vdW  Elec       q    Type
REMARK                         _______ _______ _______ _____ _____    ______ ____
ROOT
ATOM      1  C   UNL     1       5.104  -3.329   0.386  0.00  0.00    +0.170 A 
ATOM      2  N   UNL     1       5.341  -4.670   0.487  0.00  0.00    -0.301 N 
ATOM      3  H   UNL     1       4.592  -5.286   0.503  0.00  0.00    +0.171 HD
ATOM      4  C   UNL     1       6.595  -5.153   0.565  0.00  0.00    +0.261 A 
ATOM      5  O   UNL     1       6.790  -6.353   0.655  0.00  0.00    -0.267 OA
ATOM      6  C   UNL     1       7.695  -4.239   0.541  0.00  0.00    +0.075 A 
ATOM      7  C   UNL     1       9.127  -4.539   0.614  0.00  0.00    -0.023 A 
ATOM      8  C   UNL     1       9.975  -3.492   0.571  0.00  0.00    -0.004 A 
ATOM      9  S   UNL     1       8.935  -2.063   0.434  0.00  0.00    -0.073 S 
ATOM     10  C   UNL     1       7.359  -2.879   0.435  0.00  0.00    +0.117 A 
ATOM     11  N   UNL     1       6.099  -2.467   0.356  0.00  0.00    -0.216 NA
ATOM     12  C   UNL     1      11.471  -3.533   0.629  0.00  0.00    +0.046 C 
ATOM     13  C   UNL     1      11.899  -4.923   1.119  0.00  0.00    -0.009 C 
ATOM     14  C   UNL     1      11.129  -5.982   0.325  0.00  0.00    +0.008 C 
ATOM     15  C   UNL     1       9.655  -5.966   0.732  0.00  0.00    +0.037 C 
ATOM     16  C   UNL     1      13.403  -5.105   0.899  0.00  0.00    +0.008 C 
ENDROOT
BRANCH   1  17
ATOM     17  S   UNL     1       3.444  -2.746   0.287  0.00  0.00    -0.078 S 
BRANCH  17  18
ATOM     18  C   UNL     1       3.744  -0.964   0.175  0.00  0.00    +0.173 C 
BRANCH  18  20
ATOM     19  N   UNL     1       2.403   1.106  -0.015  0.00  0.00    -0.285 N 
ATOM     20  C   UNL     1       2.426  -0.239   0.078  0.00  0.00    +0.227 C 
ATOM     21  O   UNL     1       1.387  -0.864   0.085  0.00  0.00    -0.275 OA
ATOM     22  H   UNL     1       3.233   1.601  -0.087  0.00  0.00    +0.155 HD
BRANCH  19  29
ATOM     23  C   UNL     1       2.289   3.655   1.243  0.00  0.00    +0.046 C 
ATOM     24  C   UNL     1       1.080   3.033   0.592  0.00  0.00    -0.028 A 
ATOM     25  C   UNL     1      -0.128   3.703   0.596  0.00  0.00    +0.025 A 
ATOM     26  C   UNL     1      -1.238   3.133  -0.001  0.00  0.00    +0.041 A 
ATOM     27  C   UNL     1      -1.140   1.892  -0.607  0.00  0.00    +0.022 A 
ATOM     28  C   UNL     1       0.064   1.216  -0.608  0.00  0.00    +0.025 A 
ATOM     29  C   UNL     1       1.180   1.786  -0.010  0.00  0.00    +0.036 A 
ATOM     30 CL   UNL     1      -2.755   3.977   0.005  0.00  0.00    -0.084 Cl
ENDBRANCH  19  29
ENDBRANCH  18  20
ENDBRANCH  17  18
ENDBRANCH   1  17
TORSDOF 4
