REMARK  Name = ZINC19950342
REMARK  5 active torsions:
REMARK  status: ('A' for Active; 'I' for Inactive)
REMARK    1  A    between atoms: C_4  and  C_7
REMARK    2  A    between atoms: C_7  and  N_8
REMARK    3  A    between atoms: C_11  and  N_14
REMARK    4  A    between atoms: N_14  and  C_15
REMARK    5  A    between atoms: N_21  and  C_24
REMARK                            x       y       z     vdW  Elec       q    Type
REMARK                         _______ _______ _______ _____ _____    ______ ____
ROOT
ATOM      1  C   UNL     1       6.370  -3.698   5.258  0.00  0.00    +0.086 C 
ATOM      2  C   UNL     1       6.853  -3.743   6.553  0.00  0.00    +0.113 C 
ATOM      3  C   UNL     1       7.941  -4.660   6.938  0.00  0.00    +0.258 C 
ATOM      4  N   UNL     1       8.361  -4.649   8.220  0.00  0.00    -0.235 N 
ATOM      5  C   UNL     1       7.812  -3.831   9.130  0.00  0.00    +0.320 C 
ATOM      6  O   UNL     1       8.236  -3.870  10.268  0.00  0.00    -0.251 OA
ATOM      7  N   UNL     1       6.821  -2.973   8.851  0.00  0.00    -0.189 N 
ATOM      8  C   UNL     1       6.305  -2.872   7.608  0.00  0.00    +0.265 C 
ATOM      9  O   UNL     1       5.409  -2.085   7.366  0.00  0.00    -0.269 OA
ATOM     10  O   UNL     1       8.447  -5.406   6.121  0.00  0.00    -0.270 OA
ATOM     11  H   UNL     1       9.076  -5.246   8.489  0.00  0.00    +0.159 HD
ENDROOT
BRANCH   7  12
ATOM     12  C   UNL     1       6.314  -2.160   9.869  0.00  0.00    +0.053 A 
ATOM     13  C   UNL     1       6.859  -0.917  10.102  0.00  0.00    +0.024 A 
ATOM     14  C   UNL     1       6.363  -0.100  11.114  0.00  0.00    +0.002 A 
ATOM     15  C   UNL     1       5.327  -0.505  11.899  0.00  0.00    +0.008 A 
ATOM     16  C   UNL     1       4.743  -1.766  11.694  0.00  0.00    -0.016 A 
ATOM     17  C   UNL     1       5.236  -2.604  10.664  0.00  0.00    +0.004 A 
ATOM     18  C   UNL     1       4.648  -3.862  10.457  0.00  0.00    +0.010 A 
ATOM     19  C   UNL     1       3.609  -4.257  11.243  0.00  0.00    +0.001 A 
ATOM     20  C   UNL     1       3.119  -3.432  12.253  0.00  0.00    +0.001 A 
ATOM     21  C   UNL     1       3.672  -2.211  12.490  0.00  0.00    +0.008 A 
ENDBRANCH   7  12
BRANCH   1  22
ATOM     22  N   UNL     1       5.497  -2.737   4.897  0.00  0.00    -0.346 N 
ATOM     23  H   UNL     1       5.269  -2.030   5.521  0.00  0.00    +0.146 HD
BRANCH  22  27
ATOM     24  N   UNL     1       3.895  -1.280   1.282  0.00  0.00    +0.382 N 
ATOM     25  C   UNL     1       2.967  -1.976   2.181  0.00  0.00    -0.077 C 
ATOM     26  C   UNL     1       3.554  -2.017   3.594  0.00  0.00    +0.003 C 
ATOM     27  C   UNL     1       4.893  -2.760   3.563  0.00  0.00    +0.066 C 
ATOM     28  C   UNL     1       5.827  -2.068   2.566  0.00  0.00    +0.003 C 
ATOM     29  C   UNL     1       5.156  -2.025   1.191  0.00  0.00    -0.077 C 
ATOM     30  H   UNL     1       4.077  -0.354   1.641  0.00  0.00    -0.081 HD
BRANCH  24  31
ATOM     31  C   UNL     1       3.293  -1.174  -0.054  0.00  0.00    -0.043 C 
BRANCH  31  35
ATOM     32  C   UNL     1      -0.192   1.288   0.141  0.00  0.00    +0.000 A 
ATOM     33  C   UNL     1       1.042   1.856  -0.115  0.00  0.00    +0.000 A 
ATOM     34  C   UNL     1       2.170   1.059  -0.178  0.00  0.00    +0.002 A 
ATOM     35  C   UNL     1       2.063  -0.305   0.016  0.00  0.00    -0.064 A 
ATOM     36  C   UNL     1       0.830  -0.873   0.273  0.00  0.00    +0.002 A 
ATOM     37  C   UNL     1      -0.298  -0.077   0.335  0.00  0.00    +0.000 A 
ENDBRANCH  31  35
ENDBRANCH  24  31
ENDBRANCH  22  27
ENDBRANCH   1  22
TORSDOF 5
