REMARK  Name = ZINC02457824
REMARK  7 active torsions:
REMARK  status: ('A' for Active; 'I' for Inactive)
REMARK    1  A    between atoms: C_1  and  C_2
REMARK    2  A    between atoms: C_2  and  N_55
REMARK    3  A    between atoms: C_6  and  C_8
REMARK    4  A    between atoms: C_8  and  N_9
REMARK    5  A    between atoms: C_10  and  C_12
REMARK    6  A    between atoms: C_12  and  O_30
REMARK    7  A    between atoms: N_22  and  C_23
REMARK                            x       y       z     vdW  Elec       q    Type
REMARK                         _______ _______ _______ _____ _____    ______ ____
ROOT
ATOM      1  C   UNL     1      -0.139   5.477   0.465  0.00  0.00    +0.247 C 
ATOM      2  C   UNL     1      -0.079   3.974   0.315  0.00  0.00    +0.034 A 
ATOM      3  C   UNL     1      -1.163   3.182   0.612  0.00  0.00    +0.025 A 
ATOM      4  C   UNL     1      -1.074   1.808   0.457  0.00  0.00    +0.018 A 
ATOM      5  C   UNL     1       0.107   1.237   0.016  0.00  0.00    +0.017 A 
ATOM      6  C   UNL     1       1.197   2.031  -0.283  0.00  0.00    +0.025 A 
ATOM      7  C   UNL     1       1.110   3.409  -0.134  0.00  0.00    +0.043 A 
ATOM      8  N   UNL     1       2.200   4.228  -0.430  0.00  0.00    -0.269 N 
ATOM      9  C   UNL     1       2.166   5.561  -0.304  0.00  0.00    +0.314 C 
ATOM     10  O   UNL     1       3.164   6.196  -0.586  0.00  0.00    -0.252 OA
ATOM     11  N   UNL     1       1.079   6.230   0.120  0.00  0.00    -0.214 N 
ATOM     12 BR   UNL     1      -2.562   0.713   0.856  0.00  0.00    -0.050 Br
ATOM     13  H   UNL     1       3.020   3.813  -0.742  0.00  0.00    +0.156 HD
ENDROOT
BRANCH  11  14
ATOM     14  C   UNL     1       1.105   7.625   0.232  0.00  0.00    +0.041 A 
ATOM     15  C   UNL     1       0.578   8.414  -0.782  0.00  0.00    +0.024 A 
ATOM     16  C   UNL     1       0.600   9.790  -0.665  0.00  0.00    +0.002 A 
ATOM     17  C   UNL     1       1.155  10.382   0.454  0.00  0.00    +0.000 A 
ATOM     18  C   UNL     1       1.685   9.599   1.463  0.00  0.00    +0.002 A 
ATOM     19  C   UNL     1       1.661   8.222   1.355  0.00  0.00    +0.024 A 
ENDBRANCH  11  14
BRANCH   1  21
ATOM     20  N   UNL     1       0.371   5.460   2.885  0.00  0.00    -0.313 N 
ATOM     21  C   UNL     1      -0.486   5.787   1.898  0.00  0.00    +0.269 C 
ATOM     22  O   UNL     1      -1.537   6.332   2.163  0.00  0.00    -0.270 OA
ATOM     23  H   UNL     1       1.212   5.025   2.673  0.00  0.00    +0.149 HD
BRANCH  20  24
ATOM     24  C   UNL     1       0.034   5.762   4.278  0.00  0.00    +0.089 C 
BRANCH  24  28
ATOM     25  C   UNL     1       1.798   4.757   7.365  0.00  0.00    -0.078 C 
ATOM     26  C   UNL     1       1.853   3.448   6.548  0.00  0.00    -0.020 C 
ATOM     27  C   UNL     1       1.464   3.856   5.112  0.00  0.00    -0.016 C 
ATOM     28  C   UNL     1       1.206   5.377   5.182  0.00  0.00    -0.051 C 
ATOM     29  N   UNL     1       0.887   5.606   6.589  0.00  0.00    +0.382 N 
ATOM     30  H   UNL     1      -0.087   5.340   6.776  0.00  0.00    -0.081 HD
BRANCH  29  32
ATOM     31  C   UNL     1       0.342   7.370   8.251  0.00  0.00    -0.017 C 
ATOM     32  C   UNL     1       1.080   7.046   6.950  0.00  0.00    -0.082 C 
ENDBRANCH  29  32
ENDBRANCH  24  28
ENDBRANCH  20  24
ENDBRANCH   1  21
BRANCH   1  33
ATOM     33  O   UNL     1      -1.204   5.960  -0.357  0.00  0.00    -0.360 OA
ATOM     34  H   UNL     1      -2.072   5.601  -0.127  0.00  0.00    +0.213 HD
ENDBRANCH   1  33
TORSDOF 6
