REMARK  Name = ZINC23453461
REMARK  11 active torsions:
REMARK  status: ('A' for Active; 'I' for Inactive)
REMARK    1  A    between atoms: C_1  and  O_2
REMARK    2  A    between atoms: O_2  and  C_3
REMARK    3  A    between atoms: C_7  and  C_9
REMARK    4  A    between atoms: C_9  and  C_11
REMARK    5  A    between atoms: C_9  and  O_28
REMARK    6  A    between atoms: C_11  and  N_12
REMARK    7  A    between atoms: N_15  and  S_18
REMARK    8  A    between atoms: S_18  and  C_21
REMARK    9  A    between atoms: O_28  and  C_29
REMARK   10  A    between atoms: C_29  and  C_30
REMARK   11  A    between atoms: C_33  and  C_36
REMARK                            x       y       z     vdW  Elec       q    Type
REMARK                         _______ _______ _______ _____ _____    ______ ____
ROOT
ATOM      1  C   UNL     1       1.151   3.596   0.010  0.00  0.00    +0.132 C 
ENDROOT
BRANCH   1   6
ATOM      2  C   UNL     1       0.002  -0.004   0.002  0.00  0.00    +0.120 A 
ATOM      3  C   UNL     1       1.214  -0.679  -0.013  0.00  0.00    +0.045 A 
ATOM      4  C   UNL     1       2.399   0.031  -0.021  0.00  0.00    +0.004 A 
ATOM      5  C   UNL     1       2.377   1.414  -0.013  0.00  0.00    +0.006 A 
ATOM      6  C   UNL     1       1.171   2.089   0.002  0.00  0.00    -0.017 A 
ATOM      7  C   UNL     1      -0.017   1.383   0.010  0.00  0.00    +0.051 A 
BRANCH   2   9
ATOM      8  C   UNL     1      -1.069  -2.126   0.000  0.00  0.00    +0.277 C 
ATOM      9  O   UNL     1      -1.165  -0.701   0.009  0.00  0.00    -0.495 OA
ENDBRANCH   2   9
ENDBRANCH   1   6
BRANCH   1  10
ATOM     10  C   UNL     1       1.257   4.115  -1.425  0.00  0.00    -0.042 C 
BRANCH  10  11
ATOM     11  N   UNL     1       1.237   5.584  -1.417  0.00  0.00    +0.383 N 
ATOM     12  C   UNL     1      -0.059   6.091  -0.948  0.00  0.00    -0.061 C 
ATOM     13  C   UNL     1       0.021   7.612  -0.782  0.00  0.00    +0.091 C 
ATOM     14  N   UNL     1       0.497   8.196  -2.045  0.00  0.00    -0.180 NA
ATOM     15  C   UNL     1       1.720   7.644  -2.649  0.00  0.00    +0.091 C 
ATOM     16  C   UNL     1       1.573   6.122  -2.742  0.00  0.00    -0.061 C 
ATOM     17  H   UNL     1       2.007   5.930  -0.711  0.00  0.00    -0.082 HD
BRANCH  14  18
ATOM     18  S   UNL     1      -0.322   9.440  -2.768  0.00  0.00    +0.061 S 
ATOM     19  O   UNL     1      -1.057  10.093  -1.743  0.00  0.00    -0.153 OA
ATOM     20  O   UNL     1       0.619  10.125  -3.585  0.00  0.00    -0.153 OA
BRANCH  18  21
ATOM     21  C   UNL     1      -1.505   8.722  -3.858  0.00  0.00    +0.106 A 
ATOM     22  C   UNL     1      -1.166   8.460  -5.172  0.00  0.00    +0.030 A 
ATOM     23  C   UNL     1      -2.092   7.892  -6.026  0.00  0.00    +0.022 A 
ATOM     24  C   UNL     1      -3.363   7.594  -5.567  0.00  0.00    +0.041 A 
ATOM     25  C   UNL     1      -3.704   7.861  -4.253  0.00  0.00    +0.022 A 
ATOM     26  C   UNL     1      -2.775   8.425  -3.399  0.00  0.00    +0.030 A 
ATOM     27 CL   UNL     1      -4.529   6.886  -6.641  0.00  0.00    -0.084 Cl
ENDBRANCH  18  21
ENDBRANCH  14  18
ENDBRANCH  10  11
ENDBRANCH   1  10
BRANCH   1  28
ATOM     28  O   UNL     1       2.256   4.082   0.775  0.00  0.00    -0.369 OA
BRANCH  28  29
ATOM     29  C   UNL     1       1.967   4.265   2.163  0.00  0.00    +0.195 C 
BRANCH  29  30
ATOM     30  C   UNL     1       3.195   4.778   2.869  0.00  0.00    -0.022 A 
ATOM     31  C   UNL     1       4.098   3.884   3.416  0.00  0.00    +0.007 A 
ATOM     32  C   UNL     1       5.228   4.346   4.060  0.00  0.00    +0.019 A 
ATOM     33  C   UNL     1       5.453   5.720   4.167  0.00  0.00    +0.052 A 
ATOM     34  C   UNL     1       4.534   6.617   3.616  0.00  0.00    +0.019 A 
ATOM     35  C   UNL     1       3.412   6.140   2.971  0.00  0.00    +0.007 A 
BRANCH  33  36
ATOM     36  C   UNL     1       6.620   6.208   4.838  0.00  0.00    +0.099 C 
ATOM     37  N   UNL     1       7.546   6.595   5.370  0.00  0.00    -0.191 NA
ENDBRANCH  33  36
ENDBRANCH  29  30
ENDBRANCH  28  29
ENDBRANCH   1  28
TORSDOF 10
