REMARK  Name = ZINC63886914
REMARK  12 active torsions:
REMARK  status: ('A' for Active; 'I' for Inactive)
REMARK    1  A    between atoms: C_1  and  C_2
REMARK    2  A    between atoms: C_2  and  C_3
REMARK    3  A    between atoms: C_2  and  C_4
REMARK    4  A    between atoms: C_2  and  C_5
REMARK    5  A    between atoms: C_8  and  C_11
REMARK    6  A    between atoms: C_11  and  C_12
REMARK    7  A    between atoms: N_20  and  C_21
REMARK    8  A    between atoms: C_21  and  C_22
REMARK    9  A    between atoms: C_22  and  C_24
REMARK   10  A    between atoms: C_22  and  C_32
REMARK   11  A    between atoms: C_27  and  O_30
REMARK   12  A    between atoms: O_30  and  C_31
REMARK                            x       y       z     vdW  Elec       q    Type
REMARK                         _______ _______ _______ _____ _____    ______ ____
ROOT
ATOM      1  C   UNL     1       2.512  -0.855  -5.881  0.00  0.00    +0.218 C 
ATOM      2  C   UNL     1       3.050  -1.468  -7.161  0.00  0.00    +0.266 C 
ATOM      3  O   UNL     1       2.619  -2.517  -7.595  0.00  0.00    -0.271 OA
ATOM      4  N   UNL     1       4.024  -0.793  -7.791  0.00  0.00    -0.146 NA
ATOM      5  C   UNL     1       4.473   0.342  -7.300  0.00  0.00    +0.201 C 
ATOM      6  N   UNL     1       4.010   0.915  -6.155  0.00  0.00    -0.254 N 
ATOM      7  N   UNL     1       3.116   0.421  -5.459  0.00  0.00    -0.196 NA
ATOM      8  N   UNL     1       5.464   0.984  -7.981  0.00  0.00    -0.315 N 
ATOM      9  H   UNL     1       5.817   1.823  -7.646  0.00  0.00    +0.149 HD
ATOM     10  H   UNL     1       4.403   1.756  -5.871  0.00  0.00    +0.191 HD
ENDROOT
BRANCH   1  11
ATOM     11  C   UNL     1       2.707  -1.868  -4.752  0.00  0.00    +0.073 C 
BRANCH  11  15
ATOM     12  C   UNL     1       0.707  -0.490  -1.238  0.00  0.00    -0.042 A 
ATOM     13  C   UNL     1       0.036  -1.284  -2.148  0.00  0.00    +0.004 A 
ATOM     14  C   UNL     1       0.683  -1.730  -3.286  0.00  0.00    +0.004 A 
ATOM     15  C   UNL     1       2.001  -1.381  -3.513  0.00  0.00    -0.045 A 
ATOM     16  C   UNL     1       2.672  -0.586  -2.603  0.00  0.00    +0.004 A 
ATOM     17  C   UNL     1       2.024  -0.137  -1.467  0.00  0.00    +0.004 A 
BRANCH  12  19
ATOM     18  C   UNL     1      -0.019   1.526   0.010  0.00  0.00    +0.015 C 
ATOM     19  C   UNL     1       0.002  -0.004   0.002  0.00  0.00    -0.013 C 
ATOM     20  C   UNL     1       0.742  -0.511   1.242  0.00  0.00    +0.015 C 
ATOM     21  C   UNL     1      -1.433  -0.534   0.013  0.00  0.00    +0.015 C 
ENDBRANCH  12  19
ENDBRANCH  11  15
ENDBRANCH   1  11
BRANCH   8  22
ATOM     22  C   UNL     1       5.996   0.407  -9.218  0.00  0.00    +0.116 C 
BRANCH  22  23
ATOM     23  C   UNL     1       7.090   1.319  -9.777  0.00  0.00    +0.064 C 
BRANCH  23  24
ATOM     24  C   UNL     1       8.254   1.352  -8.820  0.00  0.00    -0.033 C 
ATOM     25  C   UNL     1       8.757   2.437  -8.189  0.00  0.00    -0.000 A 
ATOM     26  C   UNL     1       8.386   3.857  -8.205  0.00  0.00    +0.010 A 
ATOM     27  C   UNL     1       9.094   4.729  -7.451  0.00  0.00    +0.001 A 
ATOM     28  C   UNL     1      10.171   4.311  -6.657  0.00  0.00    +0.002 A 
ATOM     29  C   UNL     1      10.571   3.023  -6.590  0.00  0.00    +0.026 A 
ATOM     30  C   UNL     1       9.897   2.021  -7.342  0.00  0.00    +0.043 A 
ATOM     31  N   UNL     1      10.091   0.729  -7.445  0.00  0.00    -0.380 N 
ATOM     32  C   UNL     1       9.091   0.177  -8.366  0.00  0.00    +0.145 C 
ATOM     33  H   UNL     1      10.779   0.222  -6.986  0.00  0.00    +0.160 HD
ENDBRANCH  23  24
BRANCH  23  34
ATOM     34  C   UNL     1       7.551   0.790 -11.111  0.00  0.00    -0.038 A 
ATOM     35  C   UNL     1       8.089  -0.480 -11.201  0.00  0.00    +0.008 A 
ATOM     36  C   UNL     1       8.513  -0.967 -12.423  0.00  0.00    +0.046 A 
ATOM     37  C   UNL     1       8.398  -0.180 -13.559  0.00  0.00    +0.120 A 
ATOM     38  C   UNL     1       7.858   1.095 -13.466  0.00  0.00    +0.046 A 
ATOM     39  C   UNL     1       7.430   1.575 -12.243  0.00  0.00    +0.008 A 
BRANCH  37  40
ATOM     40  O   UNL     1       8.815  -0.656 -14.762  0.00  0.00    -0.495 OA
ATOM     41  C   UNL     1       8.666   0.210 -15.889  0.00  0.00    +0.277 C 
ENDBRANCH  37  40
ENDBRANCH  23  34
ENDBRANCH  22  23
ENDBRANCH   8  22
TORSDOF 8
