REMARK  Name = ZINC20928909
REMARK  6 active torsions:
REMARK  status: ('A' for Active; 'I' for Inactive)
REMARK    1  A    between atoms: C_1  and  C_2
REMARK    2  A    between atoms: C_2  and  C_25
REMARK    3  A    between atoms: N_4  and  S_16
REMARK    4  A    between atoms: N_8  and  C_9
REMARK    5  A    between atoms: S_16  and  C_19
REMARK    6  A    between atoms: N_27  and  C_28
REMARK                            x       y       z     vdW  Elec       q    Type
REMARK                         _______ _______ _______ _____ _____    ______ ____
ROOT
ATOM      1  C   UNL     1      -0.080   0.911   2.436  0.00  0.00    +0.043 C 
ATOM      2  C   UNL     1      -0.694   1.640   1.239  0.00  0.00    +0.129 C 
ATOM      3  C   UNL     1       0.135   1.342  -0.012  0.00  0.00    +0.145 C 
ATOM      4  N   UNL     1      -0.633   1.784  -1.188  0.00  0.00    -0.165 NA
ATOM      5  C   UNL     1      -1.931   1.137  -1.429  0.00  0.00    +0.205 C 
ATOM      6  C   UNL     1      -2.660   1.007  -0.119  0.00  0.00    +0.236 C 
ATOM      7  O   UNL     1      -3.837   0.715  -0.139  0.00  0.00    -0.274 OA
ATOM      8  N   UNL     1      -2.072   1.199   1.063  0.00  0.00    -0.255 N 
ENDROOT
BRANCH   8   9
ATOM      9  C   UNL     1      -2.831   0.960   2.215  0.00  0.00    +0.038 A 
ATOM     10  C   UNL     1      -2.513  -0.104   3.048  0.00  0.00    +0.026 A 
ATOM     11  C   UNL     1      -3.260  -0.336   4.186  0.00  0.00    +0.040 A 
ATOM     12  C   UNL     1      -4.333   0.486   4.491  0.00  0.00    +0.124 A 
ATOM     13  C   UNL     1      -4.655   1.544   3.658  0.00  0.00    +0.040 A 
ATOM     14  C   UNL     1      -3.907   1.782   2.522  0.00  0.00    +0.026 A 
ATOM     15  F   UNL     1      -5.066   0.254   5.602  0.00  0.00    -0.205 F 
ENDBRANCH   8   9
BRANCH   2  16
ATOM     16  C   UNL     1      -0.679   3.124   1.503  0.00  0.00    +0.238 C 
ATOM     17  O   UNL     1       0.239   3.803   1.094  0.00  0.00    -0.273 OA
ATOM     18  N   UNL     1      -1.685   3.697   2.192  0.00  0.00    -0.311 N 
ATOM     19  H   UNL     1      -2.518   3.081   2.563  0.00  0.00    +0.149 HD
BRANCH  18  20
ATOM     20  C   UNL     1      -1.670   5.139   2.448  0.00  0.00    +0.073 C 
ATOM     21  C   UNL     1      -0.882   5.438   3.741  0.00  0.00    +0.022 C 
ATOM     22  C   UNL     1      -1.663   6.605   4.398  0.00  0.00    +0.002 C 
ATOM     23  C   UNL     1      -3.138   6.240   4.102  0.00  0.00    +0.002 C 
ATOM     24  C   UNL     1      -3.104   5.649   2.678  0.00  0.00    +0.022 C 
ENDBRANCH  18  20
ENDBRANCH   2  16
BRANCH   4  25
ATOM     25  S   UNL     1      -0.056   2.962  -2.200  0.00  0.00    +0.061 S 
ATOM     26  O   UNL     1      -1.187   3.533  -2.844  0.00  0.00    -0.153 OA
ATOM     27  O   UNL     1       0.861   3.737  -1.441  0.00  0.00    -0.153 OA
BRANCH  25  28
ATOM     28  C   UNL     1       0.883   2.156  -3.455  0.00  0.00    +0.105 A 
ATOM     29  C   UNL     1       2.237   1.943  -3.275  0.00  0.00    +0.028 A 
ATOM     30  C   UNL     1       2.973   1.307  -4.257  0.00  0.00    +0.002 A 
ATOM     31  C   UNL     1       2.357   0.893  -5.423  0.00  0.00    +0.000 A 
ATOM     32  C   UNL     1       1.004   1.110  -5.605  0.00  0.00    +0.002 A 
ATOM     33  C   UNL     1       0.267   1.742  -4.621  0.00  0.00    +0.028 A 
ENDBRANCH  25  28
ENDBRANCH   4  25
TORSDOF 5
