REMARK  Name = ZINC39534434
REMARK  14 active torsions:
REMARK  status: ('A' for Active; 'I' for Inactive)
REMARK    1  A    between atoms: C_1  and  C_2
REMARK    2  A    between atoms: C_2  and  C_3
REMARK    3  A    between atoms: C_2  and  S_4
REMARK    4  A    between atoms: S_4  and  C_7
REMARK    5  A    between atoms: C_10  and  C_13
REMARK    6  A    between atoms: C_13  and  C_15
REMARK    7  A    between atoms: C_13  and  N_23
REMARK    8  A    between atoms: C_15  and  N_16
REMARK    9  A    between atoms: N_16  and  S_17
REMARK   10  A    between atoms: S_17  and  C_20
REMARK   11  A    between atoms: C_20  and  C_21
REMARK   12  A    between atoms: C_20  and  C_22
REMARK   13  A    between atoms: C_27  and  C_30
REMARK   14  A    between atoms: C_30  and  C_31
REMARK                            x       y       z     vdW  Elec       q    Type
REMARK                         _______ _______ _______ _____ _____    ______ ____
ROOT
ATOM      1  C   UNL     1      -2.060  -6.543   0.427  0.00  0.00    +0.102 C 
ENDROOT
BRANCH   1   2
ATOM      2  N   UNL     1      -0.999  -6.247   1.399  0.00  0.00    -0.297 NA
ATOM      3  C   UNL     1      -1.552  -5.618   2.607  0.00  0.00    +0.066 C 
ATOM      4  C   UNL     1      -0.426  -5.382   3.616  0.00  0.00    -0.067 C 
ATOM      5  N   UNL     1       0.596  -4.515   3.015  0.00  0.00    +0.383 N 
ATOM      6  C   UNL     1       1.156  -5.168   1.825  0.00  0.00    -0.053 C 
ATOM      7  C   UNL     1       0.043  -5.402   0.801  0.00  0.00    +0.069 C 
ATOM      8  H   UNL     1       0.178  -3.635   2.751  0.00  0.00    -0.085 HD
ATOM      9  H   UNL     1       1.333  -4.349   3.685  0.00  0.00    -0.085 HD
BRANCH   6  10
ATOM     10  C   UNL     1       2.234  -4.272   1.211  0.00  0.00    +0.020 C 
BRANCH  10  11
ATOM     11  C   UNL     1       3.386  -4.141   2.173  0.00  0.00    -0.049 A 
ATOM     12  C   UNL     1       3.393  -3.124   3.109  0.00  0.00    +0.003 A 
ATOM     13  C   UNL     1       4.450  -3.004   3.991  0.00  0.00    +0.000 A 
ATOM     14  C   UNL     1       5.501  -3.901   3.938  0.00  0.00    +0.000 A 
ATOM     15  C   UNL     1       5.493  -4.919   3.002  0.00  0.00    +0.000 A 
ATOM     16  C   UNL     1       4.434  -5.042   2.123  0.00  0.00    +0.003 A 
ENDBRANCH  10  11
ENDBRANCH   6  10
ENDBRANCH   1   2
BRANCH   1  20
ATOM     17  C   UNL     1      -4.321  -2.998  -0.330  0.00  0.00    +0.088 A 
ATOM     18  C   UNL     1      -4.719  -3.872   0.665  0.00  0.00    +0.027 A 
ATOM     19  C   UNL     1      -3.987  -5.019   0.910  0.00  0.00    +0.007 A 
ATOM     20  C   UNL     1      -2.858  -5.293   0.160  0.00  0.00    -0.029 A 
ATOM     21  C   UNL     1      -2.462  -4.419  -0.836  0.00  0.00    +0.007 A 
ATOM     22  C   UNL     1      -3.196  -3.274  -1.083  0.00  0.00    +0.027 A 
BRANCH  17  23
ATOM     23  S   UNL     1      -5.254  -1.536  -0.641  0.00  0.00    -0.001 S 
ATOM     24  O   UNL     1      -4.323  -0.627  -1.212  0.00  0.00    -0.169 OA
ATOM     25  O   UNL     1      -5.890  -1.241   0.595  0.00  0.00    -0.169 OA
BRANCH  23  27
ATOM     26  C   UNL     1      -7.282  -0.794  -2.320  0.00  0.00    +0.032 C 
ATOM     27  C   UNL     1      -6.488  -2.025  -1.878  0.00  0.00    +0.130 C 
ATOM     28  C   UNL     1      -5.782  -2.639  -3.088  0.00  0.00    +0.032 C 
ENDBRANCH  23  27
ENDBRANCH  17  23
ENDBRANCH   1  20
BRANCH   1  29
ATOM     29  C   UNL     1      -2.982  -7.625   0.992  0.00  0.00    +0.129 C 
BRANCH  29  30
ATOM     30  N   UNL     1      -2.197  -8.822   1.303  0.00  0.00    -0.192 NA
ATOM     31  H   UNL     1      -1.292  -8.909   0.965  0.00  0.00    +0.148 HD
BRANCH  30  32
ATOM     32  S   UNL     1      -2.854 -10.025   2.232  0.00  0.00    +0.032 S 
ATOM     33  O   UNL     1      -4.083 -10.345   1.595  0.00  0.00    -0.158 OA
ATOM     34  O   UNL     1      -1.824 -10.997   2.349  0.00  0.00    -0.158 OA
BRANCH  32  35
ATOM     35  C   UNL     1      -3.167  -9.252   3.843  0.00  0.00    +0.142 C 
ATOM     36  C   UNL     1      -3.795 -10.278   4.788  0.00  0.00    +0.033 C 
ATOM     37  C   UNL     1      -1.847  -8.753   4.435  0.00  0.00    +0.033 C 
ENDBRANCH  32  35
ENDBRANCH  30  32
ENDBRANCH  29  30
ENDBRANCH   1  29
TORSDOF 10
