REMARK  Name = ZINC66900012
REMARK  3 active torsions:
REMARK  status: ('A' for Active; 'I' for Inactive)
REMARK    1  A    between atoms: C_3  and  C_11
REMARK    2  A    between atoms: N_16  and  C_17
REMARK    3  A    between atoms: C_17  and  C_18
REMARK                            x       y       z     vdW  Elec       q    Type
REMARK                         _______ _______ _______ _____ _____    ______ ____
ROOT
ATOM      1  C   UNL     1       3.670   2.195  -0.023  0.00  0.00    -0.033 C 
ATOM      2  C   UNL     1       4.177   2.386   1.421  0.00  0.00    -0.012 C 
ATOM      3  C   UNL     1       4.750   3.828   1.402  0.00  0.00    -0.020 C 
ATOM      4  C   UNL     1       3.763   4.544   0.446  0.00  0.00    -0.077 C 
ATOM      5  N   UNL     1       3.444   3.536  -0.592  0.00  0.00    +0.389 N 
ATOM      6  H   UNL     1       2.478   3.629  -0.871  0.00  0.00    -0.080 HD
ENDROOT
BRANCH   1   9
ATOM      7  C   UNL     1      -0.014   1.375   0.097  0.00  0.00    +0.004 A 
ATOM      8  C   UNL     1       1.172   2.084   0.089  0.00  0.00    +0.006 A 
ATOM      9  C   UNL     1       2.378   1.418  -0.014  0.00  0.00    -0.016 A 
ATOM     10  C   UNL     1       2.402   0.034  -0.110  0.00  0.00    +0.164 A 
ATOM     11  C   UNL     1       1.209  -0.679  -0.100  0.00  0.00    +0.162 A 
ATOM     12  C   UNL     1       0.002  -0.004   0.003  0.00  0.00    +0.049 A 
ATOM     13  O   UNL     1       1.210  -2.038  -0.185  0.00  0.00    -0.485 OA
ATOM     14  C   UNL     1       2.412  -2.652  -0.661  0.00  0.00    +0.270 C 
ATOM     15  C   UNL     1       3.601  -2.011   0.069  0.00  0.00    +0.270 C 
ATOM     16  O   UNL     1       3.597  -0.608  -0.216  0.00  0.00    -0.485 OA
ENDBRANCH   1   9
BRANCH   5  17
ATOM     17  C   UNL     1       4.314   3.731  -1.759  0.00  0.00    -0.000 C 
BRANCH  17  18
ATOM     18  C   UNL     1       3.993   5.052  -2.410  0.00  0.00    +0.117 A 
ATOM     19  N   UNL     1       3.067   5.076  -3.352  0.00  0.00    -0.195 NA
ATOM     20  C   UNL     1       2.755   6.224  -3.952  0.00  0.00    +0.288 A 
ATOM     21  O   UNL     1       1.807   6.267  -4.920  0.00  0.00    -0.265 OA
ATOM     22  C   UNL     1       3.421   7.370  -3.561  0.00  0.00    +0.104 A 
ATOM     23  C   UNL     1       4.409   7.332  -2.553  0.00  0.00    +0.085 A 
ATOM     24  N   UNL     1       4.643   6.113  -2.008  0.00  0.00    -0.233 NA
ATOM     25  C   UNL     1       5.009   8.568  -2.252  0.00  0.00    +0.036 A 
ATOM     26  C   UNL     1       4.631   9.681  -2.908  0.00  0.00    +0.048 A 
ATOM     27  S   UNL     1       3.378   9.079  -4.027  0.00  0.00    -0.090 S 
ENDBRANCH  17  18
ENDBRANCH   5  17
TORSDOF 3
