REMARK  Name = ZINC24761024
REMARK  6 active torsions:
REMARK  status: ('A' for Active; 'I' for Inactive)
REMARK    1  A    between atoms: C_1  and  C_2
REMARK    2  A    between atoms: C_2  and  C_3
REMARK    3  A    between atoms: C_13  and  C_15
REMARK    4  A    between atoms: C_17  and  N_23
REMARK    5  A    between atoms: C_20  and  N_21
REMARK    6  A    between atoms: N_21  and  C_22
REMARK                            x       y       z     vdW  Elec       q    Type
REMARK                         _______ _______ _______ _____ _____    ______ ____
ROOT
ATOM      1  C   UNL     1      -9.863  -3.976  -0.224  0.00  0.00    -0.046 A 
ATOM      2  C   UNL     1     -10.306  -2.669  -0.084  0.00  0.00    +0.006 A 
ATOM      3  C   UNL     1      -9.429  -1.617  -0.029  0.00  0.00    +0.029 A 
ATOM      4  C   UNL     1      -8.034  -1.834  -0.115  0.00  0.00    +0.080 A 
ATOM      5  C   UNL     1      -7.619  -3.178  -0.257  0.00  0.00    +0.041 A 
ATOM      6  C   UNL     1      -8.505  -4.225  -0.311  0.00  0.00    +0.021 A 
ATOM      7  S   UNL     1      -5.851  -3.022  -0.333  0.00  0.00    -0.052 S 
ATOM      8  C   UNL     1      -5.776  -1.244  -0.167  0.00  0.00    +0.166 A 
ATOM      9  N   UNL     1      -7.044  -0.917  -0.078  0.00  0.00    -0.225 NA
ATOM     10  N   UNL     1      -4.663  -0.420  -0.145  0.00  0.00    -0.261 N 
ATOM     11  C   UNL     1      -4.814   0.913  -0.017  0.00  0.00    +0.252 C 
ATOM     12  O   UNL     1      -5.927   1.393   0.080  0.00  0.00    -0.270 OA
ATOM     13  H   UNL     1      -3.656  -0.854  -0.232  0.00  0.00    +0.157 HD
ENDROOT
BRANCH  11  14
ATOM     14  C   UNL     1      -3.630   1.790   0.007  0.00  0.00    +0.060 A 
ATOM     15  C   UNL     1      -2.346   1.237   0.020  0.00  0.00    +0.047 A 
ATOM     16  C   UNL     1      -1.243   2.062   0.042  0.00  0.00    +0.127 A 
ATOM     17  C   UNL     1      -1.399   3.439   0.056  0.00  0.00    +0.034 A 
ATOM     18  C   UNL     1      -2.659   4.000   0.037  0.00  0.00    +0.026 A 
ATOM     19  C   UNL     1      -3.784   3.185   0.015  0.00  0.00    +0.039 A 
BRANCH  19  20
ATOM     20  N   UNL     1      -5.053   3.747   0.002  0.00  0.00    -0.346 N 
ATOM     21  C   UNL     1      -5.210   5.199  -0.113  0.00  0.00    +0.125 C 
ATOM     22  H   UNL     1      -5.941   3.102   0.077  0.00  0.00    +0.146 HD
ENDBRANCH  19  20
BRANCH  16  23
ATOM     23  N   UNL     1       0.116   1.474   0.057  0.00  0.00    +0.056 N 
ATOM     24  O   UNL     1       0.256   0.265   0.050  0.00  0.00    -0.126 OA
ATOM     25  O   UNL     1       1.093   2.201   0.071  0.00  0.00    -0.126 OA
ENDBRANCH  16  23
ENDBRANCH  11  14
BRANCH   1  27
ATOM     26  C   UNL     1     -11.117  -5.629   1.134  0.00  0.00    +0.009 C 
ATOM     27  C   UNL     1     -10.850  -5.113  -0.282  0.00  0.00    +0.032 C 
ENDBRANCH   1  27
TORSDOF 4
