REMARK  Name = ZINC21135837
REMARK  9 active torsions:
REMARK  status: ('A' for Active; 'I' for Inactive)
REMARK    1  A    between atoms: C_1  and  C_2
REMARK    2  A    between atoms: C_2  and  C_3
REMARK    3  A    between atoms: C_2  and  C_4
REMARK    4  A    between atoms: C_4  and  C_6
REMARK    5  A    between atoms: C_4  and  S_12
REMARK    6  A    between atoms: S_12  and  C_13
REMARK    7  A    between atoms: N_23  and  C_24
REMARK    8  A    between atoms: C_29  and  O_30
REMARK    9  A    between atoms: O_30  and  C_31
REMARK                            x       y       z     vdW  Elec       q    Type
REMARK                         _______ _______ _______ _____ _____    ______ ____
ROOT
ATOM      1  C   UNL     1       2.985   4.152  -1.202  0.00  0.00    +0.178 A 
ATOM      2  N   UNL     1       4.214   4.591  -1.310  0.00  0.00    -0.223 NA
ATOM      3  C   UNL     1       4.995   4.783  -0.221  0.00  0.00    +0.080 A 
ATOM      4  C   UNL     1       6.307   5.251  -0.334  0.00  0.00    +0.048 A 
ATOM      5  C   UNL     1       7.064   5.431   0.802  0.00  0.00    +0.043 A 
ATOM      6  C   UNL     1       6.539   5.152   2.059  0.00  0.00    +0.021 A 
ATOM      7  C   UNL     1       5.259   4.693   2.195  0.00  0.00    +0.017 A 
ATOM      8  C   UNL     1       4.470   4.502   1.062  0.00  0.00    +0.065 A 
ATOM      9  C   UNL     1       3.088   4.015   1.153  0.00  0.00    +0.267 A 
ATOM     10  O   UNL     1       2.579   3.760   2.230  0.00  0.00    -0.267 OA
ATOM     11  N   UNL     1       2.401   3.856  -0.002  0.00  0.00    -0.252 N 
ATOM     12 CL   UNL     1       8.694   6.013   0.664  0.00  0.00    -0.083 Cl
ENDROOT
BRANCH  11  13
ATOM     13  C   UNL     1       1.079   3.390   0.033  0.00  0.00    +0.093 A 
ATOM     14  C   UNL     1       0.820   2.029  -0.035  0.00  0.00    +0.030 A 
ATOM     15  C   UNL     1      -0.484   1.572   0.000  0.00  0.00    +0.002 A 
ATOM     16  C   UNL     1      -1.532   2.469   0.098  0.00  0.00    +0.004 A 
ATOM     17  C   UNL     1      -1.281   3.826   0.172  0.00  0.00    +0.048 A 
ATOM     18  C   UNL     1       0.023   4.292   0.137  0.00  0.00    +0.144 A 
BRANCH  18  19
ATOM     19  O   UNL     1       0.272   5.627   0.205  0.00  0.00    -0.493 OA
ATOM     20  C   UNL     1      -0.860   6.493   0.310  0.00  0.00    +0.277 C 
ENDBRANCH  18  19
ENDBRANCH  11  13
BRANCH   1  21
ATOM     21  S   UNL     1       2.039   3.932  -2.673  0.00  0.00    -0.074 S 
BRANCH  21  22
ATOM     22  C   UNL     1       3.196   4.601  -3.893  0.00  0.00    +0.143 C 
BRANCH  22  23
ATOM     23  C   UNL     1       3.339   6.087  -3.688  0.00  0.00    +0.234 C 
ATOM     24  O   UNL     1       2.488   6.699  -3.079  0.00  0.00    -0.274 OA
ATOM     25  N   UNL     1       4.413   6.735  -4.181  0.00  0.00    -0.239 N 
ATOM     26  C   UNL     1       4.541   8.064  -3.998  0.00  0.00    +0.303 C 
ATOM     27  O   UNL     1       3.688   8.678  -3.387  0.00  0.00    -0.253 OA
ATOM     28  N   UNL     1       5.614   8.713  -4.491  0.00  0.00    -0.313 N 
ATOM     29  H   UNL     1       5.184   6.180  -4.734  0.00  0.00    +0.159 HD
ATOM     30  H   UNL     1       5.719   9.797  -4.341  0.00  0.00    +0.146 HD
ATOM     31  H   UNL     1       6.386   8.157  -5.044  0.00  0.00    +0.146 HD
ENDBRANCH  22  23
BRANCH  22  33
ATOM     32  C   UNL     1       3.625   4.925  -6.333  0.00  0.00    +0.009 C 
ATOM     33  C   UNL     1       2.664   4.330  -5.302  0.00  0.00    +0.005 C 
ATOM     34  C   UNL     1       2.551   2.820  -5.523  0.00  0.00    +0.009 C 
ENDBRANCH  22  33
ENDBRANCH  21  22
ENDBRANCH   1  21
TORSDOF 6
