REMARK  Name = ZINC39711509
REMARK  12 active torsions:
REMARK  status: ('A' for Active; 'I' for Inactive)
REMARK    1  A    between atoms: C_1  and  C_2
REMARK    2  A    between atoms: C_2  and  O_3
REMARK    3  A    between atoms: O_3  and  C_4
REMARK    4  A    between atoms: C_11  and  C_16
REMARK    5  A    between atoms: C_16  and  C_18
REMARK    6  A    between atoms: C_16  and  N_28
REMARK    7  A    between atoms: N_23  and  C_24
REMARK    8  A    between atoms: C_24  and  C_25
REMARK    9  A    between atoms: C_24  and  C_26
REMARK   10  A    between atoms: C_24  and  C_27
REMARK   11  A    between atoms: N_31  and  C_34
REMARK   12  A    between atoms: C_34  and  C_35
REMARK                            x       y       z     vdW  Elec       q    Type
REMARK                         _______ _______ _______ _____ _____    ______ ____
ROOT
ATOM      1  C   UNL     1       1.537  -6.224  -5.081  0.00  0.00    -0.009 C 
ENDROOT
BRANCH   1   9
ATOM      2  C   UNL     1       6.949  -4.964  -3.290  0.00  0.00    +0.121 A 
ATOM      3  C   UNL     1       6.595  -3.640  -3.002  0.00  0.00    +0.047 A 
ATOM      4  C   UNL     1       5.304  -3.221  -2.961  0.00  0.00    +0.027 A 
ATOM      5  C   UNL     1       4.251  -4.119  -3.213  0.00  0.00    +0.041 A 
ATOM      6  N   UNL     1       2.988  -3.693  -3.170  0.00  0.00    -0.285 N 
ATOM      7  C   UNL     1       1.952  -4.482  -3.395  0.00  0.00    +0.223 C 
ATOM      8  O   UNL     1       0.821  -4.036  -3.342  0.00  0.00    -0.275 OA
ATOM      9  C   UNL     1       2.176  -5.942  -3.720  0.00  0.00    +0.088 C 
ATOM     10  C   UNL     1       3.610  -6.432  -3.770  0.00  0.00    -0.006 C 
ATOM     11  C   UNL     1       4.592  -5.520  -3.519  0.00  0.00    -0.004 A 
ATOM     12  C   UNL     1       6.002  -5.907  -3.553  0.00  0.00    +0.055 A 
ATOM     13  H   UNL     1       2.823  -2.760  -2.963  0.00  0.00    +0.155 HD
BRANCH   2  14
ATOM     14  O   UNL     1       8.262  -5.313  -3.313  0.00  0.00    -0.492 OA
BRANCH  14  16
ATOM     15  C   UNL     1      10.627  -4.861  -3.102  0.00  0.00    +0.048 C 
ATOM     16  C   UNL     1       9.212  -4.284  -3.030  0.00  0.00    +0.225 C 
ENDBRANCH  14  16
ENDBRANCH   2  14
ENDBRANCH   1   9
BRANCH   1  17
ATOM     17  N   UNL     1       1.698  -7.646  -5.412  0.00  0.00    +0.386 N 
ATOM     18  C   UNL     1       1.045  -7.926  -6.698  0.00  0.00    -0.063 C 
ATOM     19  C   UNL     1       1.228  -9.404  -7.052  0.00  0.00    +0.066 C 
ATOM     20  N   UNL     1       0.640 -10.235  -5.993  0.00  0.00    -0.302 NA
ATOM     21  C   UNL     1       1.267  -9.948  -4.695  0.00  0.00    +0.066 C 
ATOM     22  C   UNL     1       1.083  -8.466  -4.360  0.00  0.00    -0.063 C 
ATOM     23  H   UNL     1       2.680  -7.867  -5.479  0.00  0.00    -0.081 HD
BRANCH  20  24
ATOM     24  C   UNL     1       0.746 -11.663  -6.324  0.00  0.00    +0.119 C 
BRANCH  24  25
ATOM     25  C   UNL     1      -0.075 -12.467  -5.350  0.00  0.00    -0.033 A 
ATOM     26  C   UNL     1       0.497 -12.928  -4.179  0.00  0.00    +0.005 A 
ATOM     27  C   UNL     1      -0.256 -13.666  -3.285  0.00  0.00    +0.000 A 
ATOM     28  C   UNL     1      -1.582 -13.942  -3.562  0.00  0.00    +0.000 A 
ATOM     29  C   UNL     1      -2.155 -13.480  -4.732  0.00  0.00    +0.000 A 
ATOM     30  C   UNL     1      -1.402 -12.739  -5.624  0.00  0.00    +0.005 A 
ENDBRANCH  24  25
ENDBRANCH  20  24
ENDBRANCH   1  17
BRANCH   1  31
ATOM     31  C   UNL     1       2.219  -5.371  -6.152  0.00  0.00    +0.205 C 
ATOM     32  N   UNL     1       3.669  -5.608  -6.150  0.00  0.00    -0.152 NA
ATOM     33  N   UNL     1       4.246  -4.551  -5.890  0.00  0.00    -0.070 NA
ATOM     34  N   UNL     1       3.366  -3.489  -5.684  0.00  0.00    -0.179 N 
ATOM     35  N   UNL     1       2.076  -3.934  -5.835  0.00  0.00    -0.183 NA
ATOM     36  H   UNL     1       3.624  -2.579  -5.469  0.00  0.00    +0.191 HD
BRANCH  35  37
ATOM     37  C   UNL     1       1.394  -3.221  -6.923  0.00  0.00    +0.035 C 
ATOM     38  C   UNL     1       0.001  -3.818  -7.131  0.00  0.00    +0.029 C 
ATOM     39  C   UNL     1       1.265  -1.740  -6.560  0.00  0.00    +0.029 C 
ATOM     40  C   UNL     1       2.207  -3.360  -8.212  0.00  0.00    +0.029 C 
ENDBRANCH  35  37
ENDBRANCH   1  31
TORSDOF 8
