REMARK  Name = ZINC09303751
REMARK  2 active torsions:
REMARK  status: ('A' for Active; 'I' for Inactive)
REMARK    1  A    between atoms: C_1  and  C_2
REMARK    2  A    between atoms: C_7  and  C_9
REMARK                            x       y       z     vdW  Elec       q    Type
REMARK                         _______ _______ _______ _____ _____    ______ ____
ROOT
ATOM      1  C   UNL     1       6.416   2.645  -0.049  0.00  0.00    +0.111 C 
ATOM      2  C   UNL     1       5.949   4.078  -0.036  0.00  0.00    +0.233 C 
ATOM      3  O   UNL     1       6.761   4.980  -0.039  0.00  0.00    -0.274 OA
ATOM      4  N   UNL     1       4.631   4.357  -0.020  0.00  0.00    -0.173 N 
ATOM      5  C   UNL     1       4.041   5.694  -0.006  0.00  0.00    +0.168 C 
ATOM      6  C   UNL     1       2.529   5.447   0.006  0.00  0.00    +0.100 C 
ATOM      7  C   UNL     1       2.416   3.937  -0.001  0.00  0.00    +0.070 C 
ATOM      8  N   UNL     1       3.597   3.418  -0.009  0.00  0.00    -0.180 NA
ATOM      9  C   UNL     1       4.461   6.511  -1.195  0.00  0.00    +0.008 A 
ATOM     10  C   UNL     1       4.347   6.333  -2.556  0.00  0.00    +0.008 A 
ATOM     11  C   UNL     1       4.846   7.288  -3.424  0.00  0.00    +0.000 A 
ATOM     12  C   UNL     1       5.458   8.422  -2.921  0.00  0.00    +0.002 A 
ATOM     13  C   UNL     1       5.573   8.605  -1.558  0.00  0.00    +0.023 A 
ATOM     14  C   UNL     1       5.074   7.648  -0.678  0.00  0.00    +0.039 A 
ATOM     15  N   UNL     1       5.069   7.606   0.718  0.00  0.00    -0.283 N 
ATOM     16  C   UNL     1       4.480   6.491   1.191  0.00  0.00    +0.248 C 
ATOM     17  O   UNL     1       4.332   6.189   2.356  0.00  0.00    -0.273 OA
ATOM     18  H   UNL     1       5.447   8.300   1.282  0.00  0.00    +0.155 HD
ENDROOT
BRANCH   7  19
ATOM     19  C   UNL     1       1.153   3.177   0.008  0.00  0.00    -0.002 A 
ATOM     20  C   UNL     1       1.173   1.780   0.000  0.00  0.00    +0.010 A 
ATOM     21  C   UNL     1      -0.013   1.076   0.008  0.00  0.00    +0.001 A 
ATOM     22  C   UNL     1      -1.221   1.750   0.017  0.00  0.00    +0.000 A 
ATOM     23  C   UNL     1      -1.249   3.133   0.030  0.00  0.00    +0.001 A 
ATOM     24  C   UNL     1      -0.071   3.850   0.022  0.00  0.00    +0.010 A 
ENDBRANCH   7  19
TORSDOF 1
