REMARK  Name = ZINC57844653
REMARK  8 active torsions:
REMARK  status: ('A' for Active; 'I' for Inactive)
REMARK    1  A    between atoms: C_1  and  C_2
REMARK    2  A    between atoms: C_5  and  C_9
REMARK    3  A    between atoms: C_7  and  C_8
REMARK    4  A    between atoms: C_9  and  C_22
REMARK    5  A    between atoms: N_12  and  C_16
REMARK    6  A    between atoms: C_16  and  C_17
REMARK    7  A    between atoms: C_17  and  C_19
REMARK    8  A    between atoms: C_17  and  C_20
REMARK                            x       y       z     vdW  Elec       q    Type
REMARK                         _______ _______ _______ _____ _____    ______ ____
ROOT
ATOM      1  C   UNL     1       0.059  -4.275  -0.021  0.00  0.00    +0.135 C 
ATOM      2  C   UNL     1      -0.741  -4.813  -1.191  0.00  0.00    +0.251 C 
ATOM      3  O   UNL     1      -0.528  -4.630  -2.370  0.00  0.00    -0.272 OA
ATOM      4  N   UNL     1      -1.739  -5.537  -0.647  0.00  0.00    -0.223 N 
ATOM      5  C   UNL     1      -1.681  -5.532   0.689  0.00  0.00    +0.310 C 
ATOM      6  O   UNL     1      -2.474  -6.115   1.402  0.00  0.00    -0.252 OA
ATOM      7  N   UNL     1      -0.647  -4.809   1.156  0.00  0.00    -0.281 N 
ATOM      8  C   UNL     1       1.498  -4.793  -0.067  0.00  0.00    +0.047 C 
ATOM      9  H   UNL     1      -0.412  -4.668   2.086  0.00  0.00    +0.152 HD
ENDROOT
BRANCH   1  14
ATOM     10  C   UNL     1      -0.018   1.503   0.010  0.00  0.00    +0.044 C 
ATOM     11  C   UNL     1       0.002  -0.004   0.002  0.00  0.00    -0.048 A 
ATOM     12  C   UNL     1       0.006  -0.689  -1.199  0.00  0.00    +0.004 A 
ATOM     13  C   UNL     1       0.025  -2.071  -1.207  0.00  0.00    +0.006 A 
ATOM     14  C   UNL     1       0.040  -2.768  -0.013  0.00  0.00    -0.015 A 
ATOM     15  C   UNL     1       0.037  -2.084   1.188  0.00  0.00    +0.009 A 
ATOM     16  C   UNL     1       0.023  -0.702   1.195  0.00  0.00    -0.047 A 
ATOM     17  C   UNL     1       0.025   0.045   2.504  0.00  0.00    +0.044 C 
ENDBRANCH   1  14
BRANCH   4  18
ATOM     18  C   UNL     1      -2.762  -6.242  -1.424  0.00  0.00    +0.136 C 
BRANCH  18  19
ATOM     19  C   UNL     1      -2.283  -7.663  -1.727  0.00  0.00    +0.106 C 
ATOM     20  C   UNL     1      -2.155  -8.447  -0.420  0.00  0.00    +0.025 C 
BRANCH  19  21
ATOM     21  C   UNL     1      -3.255  -8.331  -2.607  0.00  0.00    +0.067 C 
ATOM     22  N   UNL     1      -4.006  -8.847  -3.287  0.00  0.00    -0.196 NA
ENDBRANCH  19  21
ENDBRANCH  18  19
ENDBRANCH   4  18
TORSDOF 4
