REMARK  Name = ZINC29161862
REMARK  7 active torsions:
REMARK  status: ('A' for Active; 'I' for Inactive)
REMARK    1  A    between atoms: C_1  and  C_2
REMARK    2  A    between atoms: C_5  and  C_9
REMARK    3  A    between atoms: C_7  and  C_8
REMARK    4  A    between atoms: C_15  and  C_17
REMARK    5  A    between atoms: C_19  and  S_24
REMARK    6  A    between atoms: C_22  and  C_23
REMARK    7  A    between atoms: S_24  and  N_27
REMARK                            x       y       z     vdW  Elec       q    Type
REMARK                         _______ _______ _______ _____ _____    ______ ____
ROOT
ATOM      1  C   UNL     1       0.700  -2.061   1.370  0.00  0.00    +0.080 A 
ATOM      2  C   UNL     1      -0.574  -2.557   1.360  0.00  0.00    +0.076 A 
ATOM      3  S   UNL     1      -1.507  -1.064   1.044  0.00  0.00    -0.060 S 
ATOM      4  C   UNL     1      -0.116   0.053   0.950  0.00  0.00    +0.165 A 
ATOM      5  N   UNL     1       0.896  -0.767   1.165  0.00  0.00    -0.225 NA
ATOM      6  N   UNL     1      -0.102   1.422   0.718  0.00  0.00    -0.261 N 
ATOM      7  C   UNL     1      -1.259   2.082   0.514  0.00  0.00    +0.250 C 
ATOM      8  O   UNL     1      -2.315   1.479   0.532  0.00  0.00    -0.270 OA
ATOM      9  H   UNL     1       0.853   1.968   0.701  0.00  0.00    +0.157 HD
ENDROOT
BRANCH   1  14
ATOM     10  C   UNL     1       5.174  -5.566   2.299  0.00  0.00    +0.044 C 
ATOM     11  C   UNL     1       4.003  -4.649   2.056  0.00  0.00    -0.047 A 
ATOM     12  C   UNL     1       2.728  -5.174   1.943  0.00  0.00    +0.004 A 
ATOM     13  C   UNL     1       1.652  -4.339   1.721  0.00  0.00    +0.010 A 
ATOM     14  C   UNL     1       1.852  -2.964   1.609  0.00  0.00    +0.001 A 
ATOM     15  C   UNL     1       3.140  -2.441   1.718  0.00  0.00    +0.013 A 
ATOM     16  C   UNL     1       4.207  -3.286   1.946  0.00  0.00    -0.047 A 
ATOM     17  C   UNL     1       5.599  -2.721   2.070  0.00  0.00    +0.044 C 
ENDBRANCH   1  14
BRANCH   7  18
ATOM     18  C   UNL     1      -1.245   3.539   0.267  0.00  0.00    +0.042 A 
ATOM     19  C   UNL     1      -0.052   4.257   0.374  0.00  0.00    +0.041 A 
ATOM     20  C   UNL     1      -0.045   5.616   0.137  0.00  0.00    +0.106 A 
ATOM     21  C   UNL     1      -1.219   6.270  -0.196  0.00  0.00    +0.029 A 
ATOM     22  C   UNL     1      -2.405   5.566  -0.298  0.00  0.00    +0.006 A 
ATOM     23  C   UNL     1      -2.425   4.205  -0.069  0.00  0.00    -0.038 A 
ATOM     24  C   UNL     1      -3.719   3.440  -0.180  0.00  0.00    +0.044 C 
BRANCH  20  25
ATOM     25  S   UNL     1       1.460   6.523   0.265  0.00  0.00    +0.056 S 
ATOM     26  O   UNL     1       2.514   5.593   0.053  0.00  0.00    -0.153 OA
ATOM     27  O   UNL     1       1.302   7.688  -0.533  0.00  0.00    -0.153 OA
BRANCH  25  28
ATOM     28  N   UNL     1       1.590   7.037   1.833  0.00  0.00    -0.204 NA
ATOM     29  H   UNL     1       2.522   7.610   1.955  0.00  0.00    +0.144 HD
ATOM     30  H   UNL     1       1.605   6.166   2.505  0.00  0.00    +0.144 HD
ENDBRANCH  25  28
ENDBRANCH  20  25
ENDBRANCH   7  18
TORSDOF 4
