REMARK  Name = ZINC14387098
REMARK  9 active torsions:
REMARK  status: ('A' for Active; 'I' for Inactive)
REMARK    1  A    between atoms: C_1  and  C_2
REMARK    2  A    between atoms: C_2  and  C_4
REMARK    3  A    between atoms: C_2  and  N_12
REMARK    4  A    between atoms: C_13  and  C_15
REMARK    5  A    between atoms: C_17  and  O_27
REMARK    6  A    between atoms: C_18  and  O_22
REMARK    7  A    between atoms: O_22  and  C_23
REMARK    8  A    between atoms: C_23  and  C_24
REMARK    9  A    between atoms: O_27  and  C_28
REMARK                            x       y       z     vdW  Elec       q    Type
REMARK                         _______ _______ _______ _____ _____    ______ ____
ROOT
ATOM      1  C   UNL     1       1.675   0.249   4.629  0.00  0.00    +0.042 A 
ATOM      2  C   UNL     1       2.295   1.348   4.027  0.00  0.00    +0.062 A 
ATOM      3  C   UNL     1       2.006   1.667   2.715  0.00  0.00    +0.164 A 
ATOM      4  C   UNL     1       1.097   0.895   1.993  0.00  0.00    +0.181 A 
ATOM      5  C   UNL     1       0.477  -0.194   2.593  0.00  0.00    +0.087 A 
ATOM      6  C   UNL     1       0.766  -0.521   3.901  0.00  0.00    +0.037 A 
ATOM      7 CL   UNL     1      -0.659  -1.148   1.692  0.00  0.00    -0.080 Cl
ENDROOT
BRANCH   1   9
ATOM      8  N   UNL     1       1.383  -1.156   6.610  0.00  0.00    -0.305 N 
ATOM      9  C   UNL     1       1.982  -0.096   6.031  0.00  0.00    +0.245 C 
ATOM     10  O   UNL     1       2.774   0.575   6.664  0.00  0.00    -0.270 OA
ATOM     11  H   UNL     1       0.751  -1.692   6.106  0.00  0.00    +0.150 HD
BRANCH   8  13
ATOM     12  C   UNL     1       0.761  -0.715   8.934  0.00  0.00    +0.033 C 
ATOM     13  C   UNL     1       1.687  -1.499   8.002  0.00  0.00    +0.102 C 
BRANCH  13  14
ATOM     14  C   UNL     1       1.478  -2.976   8.212  0.00  0.00    -0.009 A 
ATOM     15  C   UNL     1       0.576  -3.666   7.425  0.00  0.00    +0.008 A 
ATOM     16  C   UNL     1       0.384  -5.021   7.617  0.00  0.00    +0.020 A 
ATOM     17  C   UNL     1       1.095  -5.688   8.599  0.00  0.00    +0.042 A 
ATOM     18  C   UNL     1       1.998  -4.999   9.387  0.00  0.00    +0.040 A 
ATOM     19  C   UNL     1       2.195  -3.643   9.190  0.00  0.00    +0.047 A 
ATOM     20 CL   UNL     1       3.334  -2.779  10.174  0.00  0.00    -0.083 Cl
ATOM     21 CL   UNL     1       0.854  -7.390   8.840  0.00  0.00    -0.083 Cl
ENDBRANCH  13  14
ENDBRANCH   8  13
ENDBRANCH   1   9
BRANCH   3  22
ATOM     22  O   UNL     1       2.607   2.736   2.127  0.00  0.00    -0.491 OA
ATOM     23  C   UNL     1       3.528   3.483   2.925  0.00  0.00    +0.277 C 
ENDBRANCH   3  22
BRANCH   4  24
ATOM     24  O   UNL     1       0.813   1.210   0.703  0.00  0.00    -0.478 OA
BRANCH  24  25
ATOM     25  C   UNL     1       1.628   0.611  -0.306  0.00  0.00    +0.324 C 
BRANCH  25  26
ATOM     26  C   UNL     1       1.168   1.075  -1.664  0.00  0.00    +0.248 C 
ATOM     27  O   UNL     1       0.235   1.843  -1.758  0.00  0.00    -0.272 OA
ATOM     28  N   UNL     1       1.794   0.635  -2.774  0.00  0.00    -0.327 N 
ATOM     29  H   UNL     1       2.541   0.021  -2.698  0.00  0.00    +0.145 HD
ATOM     30  H   UNL     1       1.499   0.934  -3.648  0.00  0.00    +0.145 HD
ENDBRANCH  25  26
ENDBRANCH  24  25
ENDBRANCH   4  24
TORSDOF 7
