REMARK  Name = ZINC52469547
REMARK  4 active torsions:
REMARK  status: ('A' for Active; 'I' for Inactive)
REMARK    1  A    between atoms: C_1  and  O_2
REMARK    2  A    between atoms: O_2  and  C_3
REMARK    3  A    between atoms: C_6  and  C_9
REMARK    4  A    between atoms: C_9  and  C_10
REMARK                            x       y       z     vdW  Elec       q    Type
REMARK                         _______ _______ _______ _____ _____    ______ ____
ROOT
ATOM      1  C   UNL     1      -5.544  -2.579  -0.966  0.00  0.00    +0.079 C 
ATOM      2  C   UNL     1      -6.856  -3.380  -0.838  0.00  0.00    +0.024 C 
ATOM      3  C   UNL     1      -7.809  -2.647  -1.818  0.00  0.00    +0.021 C 
ATOM      4  C   UNL     1      -7.358  -1.175  -1.647  0.00  0.00    +0.107 C 
ATOM      5  N   UNL     1      -5.892  -1.245  -1.479  0.00  0.00    -0.312 N 
ATOM      6  C   UNL     1      -4.994  -0.227  -1.756  0.00  0.00    +0.128 A 
ATOM      7  C   UNL     1      -3.620  -0.474  -1.751  0.00  0.00    +0.084 A 
ATOM      8  C   UNL     1      -2.761   0.572  -2.033  0.00  0.00    +0.136 A 
ATOM      9  N   UNL     1      -3.264   1.770  -2.300  0.00  0.00    -0.203 NA
ATOM     10  C   UNL     1      -4.573   1.974  -2.298  0.00  0.00    +0.216 A 
ATOM     11  N   UNL     1      -5.428   0.997  -2.037  0.00  0.00    -0.200 NA
ATOM     12  N   UNL     1      -5.059   3.239  -2.580  0.00  0.00    -0.327 N 
ATOM     13 CL   UNL     1      -1.043   0.321  -2.039  0.00  0.00    -0.062 Cl
ATOM     14  H   UNL     1      -4.443   3.962  -2.776  0.00  0.00    +0.145 HD
ATOM     15  H   UNL     1      -6.015   3.402  -2.582  0.00  0.00    +0.145 HD
ENDROOT
BRANCH   1  16
ATOM     16  C   UNL     1      -4.876  -2.450   0.405  0.00  0.00    +0.057 C 
BRANCH  16  20
ATOM     17  C   UNL     1      -3.528  -6.294   1.697  0.00  0.00    +0.120 A 
ATOM     18  C   UNL     1      -2.737  -5.528   0.855  0.00  0.00    +0.046 A 
ATOM     19  C   UNL     1      -3.175  -4.285   0.438  0.00  0.00    +0.007 A 
ATOM     20  C   UNL     1      -4.401  -3.806   0.860  0.00  0.00    -0.045 A 
ATOM     21  C   UNL     1      -5.192  -4.568   1.700  0.00  0.00    +0.007 A 
ATOM     22  C   UNL     1      -4.761  -5.814   2.115  0.00  0.00    +0.046 A 
BRANCH  17  24
ATOM     23  C   UNL     1      -1.821  -7.947   1.639  0.00  0.00    +0.277 C 
ATOM     24  O   UNL     1      -3.100  -7.517   2.108  0.00  0.00    -0.495 OA
ENDBRANCH  17  24
ENDBRANCH  16  20
ENDBRANCH   1  16
TORSDOF 3
