REMARK  Name = ZINC01086203
REMARK  10 active torsions:
REMARK  status: ('A' for Active; 'I' for Inactive)
REMARK    1  A    between atoms: C_1  and  C_2
REMARK    2  A    between atoms: C_2  and  O_3
REMARK    3  A    between atoms: O_3  and  C_4
REMARK    4  A    between atoms: C_6  and  C_20
REMARK    5  A    between atoms: C_9  and  O_10
REMARK    6  A    between atoms: O_10  and  C_11
REMARK    7  A    between atoms: C_11  and  C_12
REMARK    8  A    between atoms: C_23  and  C_34
REMARK    9  A    between atoms: C_29  and  N_33
REMARK   10  A    between atoms: C_30  and  C_31
REMARK                            x       y       z     vdW  Elec       q    Type
REMARK                         _______ _______ _______ _____ _____    ______ ____
ROOT
ATOM      1  C   UNL     1      -0.056   3.845   0.023  0.00  0.00    +0.162 A 
ATOM      2  C   UNL     1      -1.244   3.131   0.031  0.00  0.00    +0.054 A 
ATOM      3  C   UNL     1      -1.220   1.749   0.017  0.00  0.00    -0.031 A 
ATOM      4  C   UNL     1      -0.013   1.076   0.008  0.00  0.00    +0.008 A 
ATOM      5  C   UNL     1       1.176   1.782   0.000  0.00  0.00    +0.050 A 
ATOM      6  C   UNL     1       1.159   3.167   0.008  0.00  0.00    +0.162 A 
ENDROOT
BRANCH   3   7
ATOM      7  C   UNL     1      -2.513   0.975   0.019  0.00  0.00    +0.101 C 
ATOM      8  C   UNL     1      -2.572   0.087   1.235  0.00  0.00    +0.049 A 
ATOM      9  C   UNL     1      -2.766   0.431   2.566  0.00  0.00    +0.068 A 
ATOM     10  N   UNL     1      -2.743  -0.671   3.279  0.00  0.00    -0.176 NA
ATOM     11  N   UNL     1      -2.532  -1.755   2.413  0.00  0.00    -0.246 N 
ATOM     12  H   UNL     1      -2.468  -2.717   2.678  0.00  0.00    +0.192 HD
ATOM     13  C   UNL     1      -2.430  -1.271   1.164  0.00  0.00    +0.222 A 
ATOM     14  O   UNL     1      -2.228  -1.927  -0.006  0.00  0.00    -0.423 OA
ATOM     15  C   UNL     1      -2.440  -1.243  -1.149  0.00  0.00    +0.200 C 
ATOM     16  C   UNL     1      -2.583   0.100  -1.208  0.00  0.00    +0.098 C 
ATOM     17  C   UNL     1      -2.968   1.826   3.099  0.00  0.00    +0.068 C 
BRANCH  15  18
ATOM     18  N   UNL     1      -2.515  -1.953  -2.321  0.00  0.00    -0.328 N 
ATOM     19  H   UNL     1      -2.417  -2.918  -2.311  0.00  0.00    +0.145 HD
ATOM     20  H   UNL     1      -2.667  -1.490  -3.160  0.00  0.00    +0.145 HD
ENDBRANCH  15  18
BRANCH  16  21
ATOM     21  C   UNL     1      -2.810   0.715  -2.481  0.00  0.00    +0.101 C 
ATOM     22  N   UNL     1      -2.990   1.203  -3.491  0.00  0.00    -0.191 NA
ENDBRANCH  16  21
ENDBRANCH   3   7
BRANCH   1  23
ATOM     23  O   UNL     1      -0.078   5.205   0.030  0.00  0.00    -0.489 OA
BRANCH  23  25
ATOM     24  C   UNL     1      -1.186   7.353   0.052  0.00  0.00    +0.048 C 
ATOM     25  C   UNL     1      -1.362   5.833   0.046  0.00  0.00    +0.226 C 
ENDBRANCH  23  25
ENDBRANCH   1  23
BRANCH   6  26
ATOM     26  O   UNL     1       2.327   3.863   0.001  0.00  0.00    -0.484 OA
BRANCH  26  27
ATOM     27  C   UNL     1       3.536   3.101  -0.014  0.00  0.00    +0.269 C 
BRANCH  27  28
ATOM     28  C   UNL     1       4.719   4.035  -0.020  0.00  0.00    +0.043 A 
ATOM     29  C   UNL     1       5.255   4.467  -1.222  0.00  0.00    +0.131 A 
ATOM     30  C   UNL     1       6.337   5.330  -1.225  0.00  0.00    +0.039 A 
ATOM     31  C   UNL     1       6.890   5.751  -0.030  0.00  0.00    +0.004 A 
ATOM     32  C   UNL     1       6.358   5.316   1.169  0.00  0.00    +0.020 A 
ATOM     33  C   UNL     1       5.273   4.458   1.175  0.00  0.00    +0.050 A 
ATOM     34 CL   UNL     1       4.605   3.913   2.682  0.00  0.00    -0.083 Cl
ATOM     35  F   UNL     1       4.718   4.050  -2.389  0.00  0.00    -0.205 F 
ENDBRANCH  27  28
ENDBRANCH  26  27
ENDBRANCH   6  26
TORSDOF 8
