REMARK  Name = ZINC12798750
REMARK  13 active torsions:
REMARK  status: ('A' for Active; 'I' for Inactive)
REMARK    1  A    between atoms: C_1  and  C_2
REMARK    2  A    between atoms: C_5  and  C_8
REMARK    3  A    between atoms: N_10  and  C_11
REMARK    4  A    between atoms: C_11  and  C_13
REMARK    5  A    between atoms: C_11  and  C_16
REMARK    6  A    between atoms: C_13  and  C_14
REMARK    7  A    between atoms: C_13  and  C_15
REMARK    8  A    between atoms: N_18  and  C_19
REMARK    9  A    between atoms: C_19  and  C_20
REMARK   10  A    between atoms: C_20  and  C_22
REMARK   11  A    between atoms: C_20  and  N_59
REMARK   12  A    between atoms: C_29  and  N_59
REMARK   13  A    between atoms: C_30  and  N_59
REMARK                            x       y       z     vdW  Elec       q    Type
REMARK                         _______ _______ _______ _____ _____    ______ ____
ROOT
ATOM      1  C   UNL     1      -0.891   0.995  -1.890  0.00  0.00    +0.234 C 
ATOM      2  O   UNL     1      -1.829   0.227  -1.842  0.00  0.00    -0.274 OA
ATOM      3  N   UNL     1       0.365   0.535  -1.725  0.00  0.00    -0.315 N 
ATOM      4  H   UNL     1       1.109   1.157  -1.694  0.00  0.00    +0.149 HD
ENDROOT
BRANCH   1   5
ATOM      5  C   UNL     1      -1.131   2.462  -2.134  0.00  0.00    +0.162 C 
BRANCH   5   8
ATOM      6  C   UNL     1      -2.832   3.744  -3.317  0.00  0.00    +0.245 C 
ATOM      7  O   UNL     1      -1.974   4.549  -3.620  0.00  0.00    -0.270 OA
ATOM      8  N   UNL     1      -2.513   2.665  -2.576  0.00  0.00    -0.300 N 
ATOM      9  H   UNL     1      -3.198   2.022  -2.334  0.00  0.00    +0.150 HD
BRANCH   6  14
ATOM     10  C   UNL     1      -8.261   4.538  -5.053  0.00  0.00    +0.044 C 
ATOM     11  C   UNL     1      -6.839   4.330  -4.598  0.00  0.00    -0.050 A 
ATOM     12  C   UNL     1      -5.864   5.250  -4.944  0.00  0.00    +0.004 A 
ATOM     13  C   UNL     1      -4.561   5.065  -4.531  0.00  0.00    +0.013 A 
ATOM     14  C   UNL     1      -4.227   3.948  -3.763  0.00  0.00    +0.037 A 
ATOM     15  C   UNL     1      -5.215   3.023  -3.422  0.00  0.00    +0.013 A 
ATOM     16  C   UNL     1      -6.515   3.221  -3.837  0.00  0.00    +0.004 A 
ENDBRANCH   6  14
ENDBRANCH   5   8
BRANCH   5  17
ATOM     17  C   UNL     1      -0.890   3.241  -0.840  0.00  0.00    +0.012 C 
ATOM     18  C   UNL     1       0.581   3.118  -0.437  0.00  0.00    +0.009 C 
ATOM     19  C   UNL     1      -1.237   4.715  -1.058  0.00  0.00    +0.009 C 
ENDBRANCH   5  17
ENDBRANCH   1   5
BRANCH   3  20
ATOM     20  C   UNL     1       0.607  -0.904  -1.597  0.00  0.00    +0.093 C 
BRANCH  20  21
ATOM     21  C   UNL     1       2.114  -1.165  -1.554  0.00  0.00    -0.020 C 
BRANCH  21  22
ATOM     22  C   UNL     1       2.691  -0.572  -0.295  0.00  0.00    -0.041 A 
ATOM     23  C   UNL     1       3.250   0.692  -0.319  0.00  0.00    +0.003 A 
ATOM     24  C   UNL     1       3.776   1.237   0.837  0.00  0.00    +0.000 A 
ATOM     25  C   UNL     1       3.751   0.515   2.016  0.00  0.00    +0.001 A 
ATOM     26  C   UNL     1       3.197  -0.750   2.040  0.00  0.00    +0.020 A 
ATOM     27  C   UNL     1       2.667  -1.295   0.884  0.00  0.00    +0.043 A 
ATOM     28 CL   UNL     1       1.971  -2.885   0.914  0.00  0.00    -0.083 Cl
ENDBRANCH  21  22
BRANCH  21  31
ATOM     29  C   UNL     1       4.176  -0.899  -2.796  0.00  0.00    -0.096 C 
ATOM     30  C   UNL     1       2.054  -0.917  -3.962  0.00  0.00    -0.096 C 
ATOM     31  N   UNL     1       2.750  -0.518  -2.721  0.00  0.00    +0.382 N 
ATOM     32  H   UNL     1       2.683   0.501  -2.614  0.00  0.00    -0.082 HD
ENDBRANCH  21  31
ENDBRANCH  20  21
ENDBRANCH   3  20
TORSDOF 8
