REMARK  Name = ZINC37365586
REMARK  7 active torsions:
REMARK  status: ('A' for Active; 'I' for Inactive)
REMARK    1  A    between atoms: C_1  and  C_2
REMARK    2  A    between atoms: N_5  and  C_9
REMARK    3  A    between atoms: C_12  and  S_16
REMARK    4  A    between atoms: C_14  and  N_15
REMARK    5  A    between atoms: S_16  and  N_19
REMARK    6  A    between atoms: N_19  and  C_20
REMARK    7  A    between atoms: N_19  and  C_21
REMARK                            x       y       z     vdW  Elec       q    Type
REMARK                         _______ _______ _______ _____ _____    ______ ____
ROOT
ATOM      1  C   UNL     1       0.508  -2.807  -2.195  0.00  0.00    +0.051 A 
ATOM      2  C   UNL     1       1.414  -3.139  -3.191  0.00  0.00    +0.027 A 
ATOM      3  C   UNL     1       1.031  -3.978  -4.221  0.00  0.00    +0.030 A 
ATOM      4  C   UNL     1      -0.253  -4.489  -4.262  0.00  0.00    +0.107 A 
ATOM      5  C   UNL     1      -1.163  -4.162  -3.273  0.00  0.00    +0.053 A 
ATOM      6  C   UNL     1      -0.786  -3.325  -2.233  0.00  0.00    +0.048 A 
ENDROOT
BRANCH   1  10
ATOM      7  C   UNL     1      -0.019   1.526   0.010  0.00  0.00    +0.039 C 
ATOM      8  C   UNL     1       0.002  -0.004   0.002  0.00  0.00    +0.132 C 
ATOM      9  C   UNL     1       0.722  -0.499  -1.258  0.00  0.00    +0.136 C 
ATOM     10  N   UNL     1       0.894  -1.957  -1.151  0.00  0.00    -0.324 N 
ATOM     11  C   UNL     1       1.483  -2.495   0.085  0.00  0.00    +0.133 C 
ATOM     12  C   UNL     1       0.726  -1.903   1.280  0.00  0.00    +0.179 C 
ATOM     13  O   UNL     1       0.695  -0.479   1.159  0.00  0.00    -0.374 OA
ENDBRANCH   1  10
BRANCH   6  14
ATOM     14  N   UNL     1      -1.704  -2.998  -1.228  0.00  0.00    -0.356 N 
ATOM     15  H   UNL     1      -1.440  -2.409  -0.503  0.00  0.00    +0.142 HD
ATOM     16  H   UNL     1      -2.603  -3.360  -1.256  0.00  0.00    +0.142 HD
ENDBRANCH   6  14
BRANCH   4  17
ATOM     17  S   UNL     1      -0.732  -5.557  -5.578  0.00  0.00    +0.060 S 
ATOM     18  O   UNL     1      -2.147  -5.463  -5.683  0.00  0.00    -0.153 OA
ATOM     19  O   UNL     1       0.133  -5.272  -6.669  0.00  0.00    -0.153 OA
BRANCH  17  20
ATOM     20  N   UNL     1      -0.395  -7.106  -5.099  0.00  0.00    -0.183 NA
ATOM     21  C   UNL     1      -1.407  -7.889  -4.385  0.00  0.00    +0.131 C 
ATOM     22  C   UNL     1       0.915  -7.694  -5.389  0.00  0.00    +0.131 C 
ENDBRANCH  17  20
ENDBRANCH   4  17
TORSDOF 4
