REMARK  Name = ZINC06471929
REMARK  3 active torsions:
REMARK  status: ('A' for Active; 'I' for Inactive)
REMARK    1  A    between atoms: C_6  and  N_7
REMARK    2  A    between atoms: N_7  and  C_8
REMARK    3  A    between atoms: N_15  and  C_18
REMARK                            x       y       z     vdW  Elec       q    Type
REMARK                         _______ _______ _______ _____ _____    ______ ____
ROOT
ATOM      1  C   UNL     1      -1.182  -2.074  -0.049  0.00  0.00    +0.090 C 
ATOM      2  C   UNL     1      -2.362  -2.781   0.088  0.00  0.00    +0.113 C 
ATOM      3  C   UNL     1      -3.667  -2.099   0.131  0.00  0.00    +0.258 C 
ATOM      4  N   UNL     1      -4.777  -2.853   0.268  0.00  0.00    -0.235 N 
ATOM      5  H   UNL     1      -5.644  -2.419   0.298  0.00  0.00    +0.159 HD
ATOM      6  C   UNL     1      -4.709  -4.188   0.362  0.00  0.00    +0.320 C 
ATOM      7  O   UNL     1      -5.747  -4.810   0.482  0.00  0.00    -0.251 OA
ATOM      8  N   UNL     1      -3.558  -4.874   0.331  0.00  0.00    -0.190 N 
ATOM      9  C   UNL     1      -2.370  -4.251   0.193  0.00  0.00    +0.265 C 
ATOM     10  O   UNL     1      -1.332  -4.885   0.160  0.00  0.00    -0.269 OA
ATOM     11  O   UNL     1      -3.742  -0.887   0.047  0.00  0.00    -0.270 OA
ENDROOT
BRANCH   8  12
ATOM     12  C   UNL     1      -3.590  -6.272   0.437  0.00  0.00    +0.046 A 
ATOM     13  C   UNL     1      -3.051  -6.897   1.553  0.00  0.00    +0.027 A 
ATOM     14  C   UNL     1      -3.083  -8.274   1.656  0.00  0.00    +0.040 A 
ATOM     15  C   UNL     1      -3.654  -9.031   0.647  0.00  0.00    +0.124 A 
ATOM     16  C   UNL     1      -4.192  -8.410  -0.468  0.00  0.00    +0.040 A 
ATOM     17  C   UNL     1      -4.167  -7.033  -0.571  0.00  0.00    +0.027 A 
ATOM     18  F   UNL     1      -3.685 -10.378   0.749  0.00  0.00    -0.205 F 
ENDBRANCH   8  12
BRANCH   1  19
ATOM     19  N   UNL     1      -1.195  -0.725  -0.009  0.00  0.00    -0.320 N 
ATOM     20  H   UNL     1      -2.039  -0.250   0.039  0.00  0.00    +0.152 HD
BRANCH  19  26
ATOM     21  C   UNL     1      -0.004   1.375   0.004  0.00  0.00    +0.024 A 
ATOM     22  C   UNL     1       1.185   2.076  -0.023  0.00  0.00    +0.022 A 
ATOM     23  C   UNL     1       2.389   1.396  -0.092  0.00  0.00    +0.041 A 
ATOM     24  C   UNL     1       2.404   0.013  -0.133  0.00  0.00    +0.022 A 
ATOM     25  C   UNL     1       1.217  -0.693  -0.106  0.00  0.00    +0.024 A 
ATOM     26  C   UNL     1       0.008  -0.013  -0.037  0.00  0.00    +0.031 A 
ATOM     27 CL   UNL     1       3.882   2.281  -0.127  0.00  0.00    -0.084 Cl
ENDBRANCH  19  26
ENDBRANCH   1  19
TORSDOF 3
