REMARK  Name = ZINC36530929
REMARK  11 active torsions:
REMARK  status: ('A' for Active; 'I' for Inactive)
REMARK    1  A    between atoms: C_1  and  C_2
REMARK    2  A    between atoms: C_5  and  S_8
REMARK    3  A    between atoms: S_8  and  C_11
REMARK    4  A    between atoms: C_11  and  N_12
REMARK    5  A    between atoms: C_13  and  C_15
REMARK    6  A    between atoms: C_15  and  C_17
REMARK    7  A    between atoms: C_15  and  N_23
REMARK    8  A    between atoms: N_23  and  C_24
REMARK    9  A    between atoms: C_25  and  C_27
REMARK   10  A    between atoms: C_28  and  O_34
REMARK   11  A    between atoms: C_32  and  O_33
REMARK                            x       y       z     vdW  Elec       q    Type
REMARK                         _______ _______ _______ _____ _____    ______ ____
ROOT
ATOM      1  C   UNL     1       3.307  -4.940   3.478  0.00  0.00    +0.165 C 
ENDROOT
BRANCH   1   2
ATOM      2  C   UNL     1       4.706  -4.463   3.085  0.00  0.00    +0.018 C 
ATOM      3  C   UNL     1       5.501  -4.120   4.347  0.00  0.00    +0.006 C 
ATOM      4  C   UNL     1       6.901  -3.643   3.953  0.00  0.00    +0.000 C 
ATOM      5  C   UNL     1       6.786  -2.400   3.069  0.00  0.00    +0.000 C 
ATOM      6  C   UNL     1       5.991  -2.742   1.808  0.00  0.00    +0.000 C 
ATOM      7  C   UNL     1       4.591  -3.219   2.201  0.00  0.00    +0.006 C 
ENDBRANCH   1   2
BRANCH   1   9
ATOM      8  N   UNL     1       2.047  -4.480   1.400  0.00  0.00    -0.295 N 
ATOM      9  C   UNL     1       2.565  -5.391   2.247  0.00  0.00    +0.235 C 
ATOM     10  O   UNL     1       2.435  -6.575   2.017  0.00  0.00    -0.274 OA
ATOM     11  H   UNL     1       2.081  -3.536   1.623  0.00  0.00    +0.150 HD
BRANCH   8  12
ATOM     12  C   UNL     1       1.433  -4.914   0.143  0.00  0.00    +0.278 C 
BRANCH  12  13
ATOM     13  S   UNL     1      -0.359  -5.081   0.371  0.00  0.00    +0.013 S 
ATOM     14  O   UNL     1      -0.634  -5.808   1.562  0.00  0.00    -0.168 OA
ATOM     15  O   UNL     1      -0.978  -5.441  -0.856  0.00  0.00    -0.168 OA
BRANCH  13  20
ATOM     16  C   UNL     1      -2.312   0.515   1.498  0.00  0.00    +0.044 C 
ATOM     17  C   UNL     1      -1.824  -0.882   1.216  0.00  0.00    -0.050 A 
ATOM     18  C   UNL     1      -1.766  -1.345  -0.085  0.00  0.00    +0.005 A 
ATOM     19  C   UNL     1      -1.318  -2.628  -0.343  0.00  0.00    +0.027 A 
ATOM     20  C   UNL     1      -0.928  -3.447   0.700  0.00  0.00    +0.090 A 
ATOM     21  C   UNL     1      -0.986  -2.983   2.001  0.00  0.00    +0.027 A 
ATOM     22  C   UNL     1      -1.429  -1.700   2.259  0.00  0.00    +0.005 A 
ENDBRANCH  13  20
ENDBRANCH  12  13
ENDBRANCH   8  12
ENDBRANCH   1   9
BRANCH   1  23
ATOM     23  N   UNL     1       3.418  -6.058   4.419  0.00  0.00    -0.289 N 
ATOM     24  C   UNL     1       4.111  -7.285   4.019  0.00  0.00    +0.133 C 
ATOM     25  C   UNL     1       2.883  -5.957   5.652  0.00  0.00    +0.254 C 
ATOM     26  O   UNL     1       2.308  -4.938   5.984  0.00  0.00    -0.270 OA
BRANCH  25  27
ATOM     27  C   UNL     1       2.995  -7.081   6.597  0.00  0.00    +0.119 A 
ATOM     28  C   UNL     1       4.090  -7.163   7.470  0.00  0.00    +0.133 A 
ATOM     29  C   UNL     1       4.185  -8.224   8.355  0.00  0.00    +0.046 A 
ATOM     30  C   UNL     1       3.206  -9.200   8.380  0.00  0.00    +0.007 A 
ATOM     31  C   UNL     1       2.123  -9.129   7.523  0.00  0.00    +0.046 A 
ATOM     32  C   UNL     1       2.005  -8.074   6.634  0.00  0.00    +0.133 A 
BRANCH  32  33
ATOM     33  O   UNL     1       0.938  -8.003   5.799  0.00  0.00    -0.506 OA
ATOM     34  H   UNL     1       1.073  -8.448   4.951  0.00  0.00    +0.292 HD
ENDBRANCH  32  33
BRANCH  28  35
ATOM     35  O   UNL     1       5.052  -6.207   7.447  0.00  0.00    -0.506 OA
ATOM     36  H   UNL     1       4.884  -5.465   8.044  0.00  0.00    +0.292 HD
ENDBRANCH  28  35
ENDBRANCH  25  27
ENDBRANCH   1  23
TORSDOF 9
