REMARK  Name = ZINC39935140
REMARK  9 active torsions:
REMARK  status: ('A' for Active; 'I' for Inactive)
REMARK    1  A    between atoms: C_1  and  C_2
REMARK    2  A    between atoms: N_16  and  N_17
REMARK    3  A    between atoms: C_18  and  C_19
REMARK    4  A    between atoms: C_23  and  C_28
REMARK    5  A    between atoms: C_25  and  C_27
REMARK    6  A    between atoms: C_28  and  C_29
REMARK    7  A    between atoms: C_29  and  C_30
REMARK    8  A    between atoms: C_31  and  C_32
REMARK    9  A    between atoms: C_31  and  C_33
REMARK                            x       y       z     vdW  Elec       q    Type
REMARK                         _______ _______ _______ _____ _____    ______ ____
ROOT
ATOM      1  C   UNL     1       2.940  -0.410  -3.615  0.00  0.00    +0.044 C 
ATOM      2  C   UNL     1       2.661  -1.875  -3.394  0.00  0.00    -0.050 A 
ATOM      3  C   UNL     1       2.279  -2.661  -4.490  0.00  0.00    +0.005 A 
ATOM      4  C   UNL     1       2.021  -3.982  -4.362  0.00  0.00    +0.026 A 
ATOM      5  C   UNL     1       2.143  -4.613  -3.042  0.00  0.00    +0.046 A 
ATOM      6  N   UNL     1       1.925  -5.842  -2.637  0.00  0.00    -0.358 N 
ATOM      7  C   UNL     1       2.322  -5.953  -1.243  0.00  0.00    +0.253 C 
ATOM      8  C   UNL     1       2.572  -4.532  -0.770  0.00  0.00    +0.117 C 
ATOM      9  C   UNL     1       2.538  -3.750  -1.900  0.00  0.00    +0.025 A 
ATOM     10  C   UNL     1       2.795  -2.382  -2.148  0.00  0.00    +0.015 A 
ATOM     11  N   UNL     1       2.646  -4.226   0.528  0.00  0.00    -0.146 NA
ATOM     12  N   UNL     1       1.989  -5.014   1.325  0.00  0.00    -0.111 NA
ATOM     13  C   UNL     1       1.226  -6.034   0.863  0.00  0.00    +0.252 C 
ATOM     14  N   UNL     1       1.304  -6.513  -0.357  0.00  0.00    -0.219 NA
ATOM     15  N   UNL     1       0.315  -6.608   1.728  0.00  0.00    -0.204 N 
ATOM     16  H   UNL     1       0.235  -6.278   2.637  0.00  0.00    +0.177 HD
ATOM     17  H   UNL     1       1.560  -6.558  -3.178  0.00  0.00    +0.162 HD
ENDROOT
BRANCH  15  18
ATOM     18  N   UNL     1      -0.494  -7.665   1.293  0.00  0.00    -0.192 NA
ATOM     19  C   UNL     1      -1.339  -8.197   2.094  0.00  0.00    +0.107 C 
BRANCH  19  20
ATOM     20  C   UNL     1      -2.209  -9.334   1.626  0.00  0.00    +0.039 C 
ATOM     21  C   UNL     1      -3.683  -8.941   1.754  0.00  0.00    +0.036 C 
ATOM     22  C   UNL     1      -4.558 -10.143   1.547  0.00  0.00    -0.027 C 
ATOM     23  C   UNL     1      -4.139 -11.365   1.613  0.00  0.00    -0.073 C 
ATOM     24  C   UNL     1      -2.717 -11.753   1.896  0.00  0.00    +0.034 C 
ATOM     25  C   UNL     1      -1.955 -10.571   2.498  0.00  0.00    -0.001 C 
ATOM     26  C   UNL     1      -2.457 -10.310   3.919  0.00  0.00    +0.008 C 
BRANCH  23  27
ATOM     27  C   UNL     1      -5.141 -12.469   1.391  0.00  0.00    +0.034 C 
BRANCH  27  28
ATOM     28  C   UNL     1      -5.103 -12.905  -0.075  0.00  0.00    +0.031 C 
BRANCH  28  29
ATOM     29  C   UNL     1      -6.105 -14.009  -0.297  0.00  0.00    -0.028 C 
ATOM     30  C   UNL     1      -7.062 -13.857  -1.178  0.00  0.00    -0.080 C 
ATOM     31  C   UNL     1      -7.242 -12.532  -1.874  0.00  0.00    +0.038 C 
ATOM     32  C   UNL     1      -7.984 -15.006  -1.496  0.00  0.00    +0.038 C 
ENDBRANCH  28  29
ENDBRANCH  27  28
ENDBRANCH  23  27
ENDBRANCH  19  20
ENDBRANCH  15  18
TORSDOF 5
