REMARK  Name = ZINC20533251
REMARK  7 active torsions:
REMARK  status: ('A' for Active; 'I' for Inactive)
REMARK    1  A    between atoms: C_1  and  O_2
REMARK    2  A    between atoms: O_2  and  C_3
REMARK    3  A    between atoms: C_8  and  O_9
REMARK    4  A    between atoms: O_9  and  C_10
REMARK    5  A    between atoms: C_11  and  C_16
REMARK    6  A    between atoms: N_22  and  C_25
REMARK    7  A    between atoms: C_29  and  C_31
REMARK                            x       y       z     vdW  Elec       q    Type
REMARK                         _______ _______ _______ _____ _____    ______ ____
ROOT
ATOM      1  C   UNL     1       3.038  -3.820  -3.216  0.00  0.00    +0.072 A 
ATOM      2  C   UNL     1       4.402  -3.512  -3.065  0.00  0.00    +0.260 A 
ATOM      3  N   UNL     1       5.326  -4.475  -3.254  0.00  0.00    -0.274 N 
ATOM      4  H   UNL     1       6.268  -4.265  -3.151  0.00  0.00    +0.173 HD
ATOM      5  C   UNL     1       4.953  -5.724  -3.585  0.00  0.00    +0.337 A 
ATOM      6  O   UNL     1       5.801  -6.579  -3.750  0.00  0.00    -0.246 OA
ATOM      7  N   UNL     1       3.654  -6.042  -3.735  0.00  0.00    -0.229 N 
ATOM      8  C   UNL     1       2.679  -5.093  -3.546  0.00  0.00    +0.267 A 
ATOM      9  O   UNL     1       1.377  -5.416  -3.691  0.00  0.00    -0.267 OA
ATOM     10  O   UNL     1       4.747  -2.382  -2.766  0.00  0.00    -0.267 OA
ENDROOT
BRANCH   1  17
ATOM     11  C   UNL     1       2.041  -1.572   1.104  0.00  0.00    +0.162 A 
ATOM     12  C   UNL     1       1.892  -0.616   0.115  0.00  0.00    +0.053 A 
ATOM     13  C   UNL     1       1.877  -0.986  -1.221  0.00  0.00    -0.044 A 
ATOM     14  C   UNL     1       2.009  -2.313  -1.571  0.00  0.00    -0.050 A 
ATOM     15  C   UNL     1       2.160  -3.276  -0.583  0.00  0.00    +0.052 A 
ATOM     16  C   UNL     1       2.182  -2.911   0.752  0.00  0.00    +0.162 A 
ATOM     17  C   UNL     1       1.988  -2.759  -3.009  0.00  0.00    +0.001 C 
ATOM     18  N   UNL     1       2.261  -1.630  -3.903  0.00  0.00    +0.387 N 
ATOM     19  C   UNL     1       1.319  -0.541  -3.601  0.00  0.00    -0.077 C 
ATOM     20  C   UNL     1       1.716   0.090  -2.265  0.00  0.00    +0.016 C 
ATOM     21  H   UNL     1       3.207  -1.307  -3.761  0.00  0.00    -0.085 HD
ATOM     22  H   UNL     1       2.143  -1.922  -4.862  0.00  0.00    -0.085 HD
BRANCH  11  24
ATOM     23  C   UNL     1       1.903   0.187   2.698  0.00  0.00    +0.277 C 
ATOM     24  O   UNL     1       2.054  -1.205   2.413  0.00  0.00    -0.491 OA
ENDBRANCH  11  24
BRANCH  16  25
ATOM     25  O   UNL     1       2.337  -3.858   1.716  0.00  0.00    -0.491 OA
ATOM     26  C   UNL     1       2.477  -5.211   1.279  0.00  0.00    +0.277 C 
ENDBRANCH  16  25
ENDBRANCH   1  17
BRANCH   7  27
ATOM     27  C   UNL     1       3.293  -7.351  -4.080  0.00  0.00    +0.055 A 
ATOM     28  C   UNL     1       3.050  -8.291  -3.086  0.00  0.00    +0.026 A 
ATOM     29  C   UNL     1       2.694  -9.580  -3.429  0.00  0.00    +0.003 A 
ATOM     30  C   UNL     1       2.580  -9.937  -4.760  0.00  0.00    +0.012 A 
ATOM     31  C   UNL     1       2.822  -9.004  -5.752  0.00  0.00    +0.057 A 
ATOM     32  C   UNL     1       3.172  -7.711  -5.415  0.00  0.00    +0.038 A 
BRANCH  31  33
ATOM     33  C   UNL     1       2.698  -9.397  -7.201  0.00  0.00    +0.417 C 
ATOM     34  F   UNL     1       2.330 -10.744  -7.290  0.00  0.00    -0.166 F 
ATOM     35  F   UNL     1       1.722  -8.606  -7.817  0.00  0.00    -0.166 F 
ATOM     36  F   UNL     1       3.926  -9.205  -7.843  0.00  0.00    -0.166 F 
ENDBRANCH  31  33
ENDBRANCH   7  27
TORSDOF 5
