REMARK  Name = ZINC19941644
REMARK  12 active torsions:
REMARK  status: ('A' for Active; 'I' for Inactive)
REMARK    1  A    between atoms: C_1  and  C_2
REMARK    2  A    between atoms: C_2  and  C_3
REMARK    3  A    between atoms: C_3  and  C_4
REMARK    4  A    between atoms: C_3  and  C_5
REMARK    5  A    between atoms: C_3  and  N_6
REMARK    6  A    between atoms: C_7  and  C_11
REMARK    7  A    between atoms: C_11  and  C_13
REMARK    8  A    between atoms: C_11  and  N_27
REMARK    9  A    between atoms: C_17  and  C_26
REMARK   10  A    between atoms: C_19  and  C_25
REMARK   11  A    between atoms: N_30  and  C_33
REMARK   12  A    between atoms: C_38  and  C_39
REMARK                            x       y       z     vdW  Elec       q    Type
REMARK                         _______ _______ _______ _____ _____    ______ ____
ROOT
ATOM      1  C   UNL     1       1.240   3.679   0.083  0.00  0.00    +0.162 C 
ENDROOT
BRANCH   1   2
ATOM      2  C   UNL     1       1.444   2.213   0.364  0.00  0.00    +0.042 A 
ATOM      3  C   UNL     1       0.386   1.435   0.702  0.00  0.00    +0.021 A 
ATOM      4  C   UNL     1       0.618   0.015   0.968  0.00  0.00    -0.001 A 
ATOM      5  C   UNL     1      -0.434  -0.837   1.320  0.00  0.00    +0.013 A 
ATOM      6  C   UNL     1      -0.184  -2.158   1.561  0.00  0.00    -0.050 A 
ATOM      7  C   UNL     1       1.105  -2.663   1.460  0.00  0.00    +0.008 A 
ATOM      8  C   UNL     1       2.157  -1.843   1.114  0.00  0.00    -0.026 A 
ATOM      9  C   UNL     1       1.927  -0.494   0.864  0.00  0.00    +0.052 A 
ATOM     10  N   UNL     1       2.960   0.349   0.515  0.00  0.00    -0.322 N 
ATOM     11  H   UNL     1       3.985  -0.042   0.432  0.00  0.00    +0.169 HD
ATOM     12  C   UNL     1       2.737   1.653   0.273  0.00  0.00    +0.254 A 
ATOM     13  O   UNL     1       3.674   2.369  -0.032  0.00  0.00    -0.268 OA
ATOM     14  C   UNL     1       3.551  -2.405   1.007  0.00  0.00    +0.046 C 
ATOM     15  C   UNL     1      -1.318  -3.075   1.942  0.00  0.00    +0.044 C 
ENDBRANCH   1   2
BRANCH   1  16
ATOM     16  N   UNL     1       1.773   4.002  -1.247  0.00  0.00    -0.286 NA
ATOM     17  C   UNL     1       1.672   5.443  -1.519  0.00  0.00    +0.104 C 
ATOM     18  C   UNL     1       2.308   5.748  -2.877  0.00  0.00    +0.120 C 
ATOM     19  N   UNL     1       1.627   4.970  -3.921  0.00  0.00    -0.327 N 
ATOM     20  C   UNL     1       1.728   3.529  -3.649  0.00  0.00    +0.120 C 
ATOM     21  C   UNL     1       1.091   3.223  -2.291  0.00  0.00    +0.104 C 
BRANCH  19  22
ATOM     22  C   UNL     1       2.134   5.277  -5.186  0.00  0.00    +0.034 A 
ATOM     23  C   UNL     1       3.480   5.079  -5.463  0.00  0.00    +0.043 A 
ATOM     24  C   UNL     1       3.977   5.380  -6.716  0.00  0.00    +0.043 A 
ATOM     25  C   UNL     1       3.136   5.887  -7.692  0.00  0.00    +0.020 A 
ATOM     26  C   UNL     1       1.797   6.089  -7.417  0.00  0.00    +0.006 A 
ATOM     27  C   UNL     1       1.293   5.786  -6.167  0.00  0.00    -0.029 A 
ATOM     28  C   UNL     1      -0.167   6.007  -5.869  0.00  0.00    +0.045 C 
ATOM     29 CL   UNL     1       5.659   5.128  -7.066  0.00  0.00    -0.083 Cl
ENDBRANCH  19  22
ENDBRANCH   1  16
BRANCH   1  31
ATOM     30  N   UNL     1       1.397   5.258   2.080  0.00  0.00    -0.222 N 
ATOM     31  C   UNL     1       1.961   4.495   1.125  0.00  0.00    +0.174 A 
ATOM     32  N   UNL     1       3.258   4.604   1.274  0.00  0.00    -0.111 NA
ATOM     33  N   UNL     1       3.480   5.389   2.271  0.00  0.00    -0.023 NA
ATOM     34  N   UNL     1       2.358   5.784   2.762  0.00  0.00    -0.043 NA
BRANCH  30  35
ATOM     35  C   UNL     1      -0.037   5.453   2.304  0.00  0.00    +0.062 C 
ATOM     36  C   UNL     1      -0.662   6.108   1.071  0.00  0.00    +0.036 C 
ATOM     37  C   UNL     1      -0.703   4.098   2.554  0.00  0.00    +0.036 C 
BRANCH  35  39
ATOM     38  C   UNL     1      -1.744   6.559   3.756  0.00  0.00    +0.006 C 
ATOM     39  C   UNL     1      -0.245   6.356   3.522  0.00  0.00    +0.026 C 
ENDBRANCH  35  39
ENDBRANCH  30  35
ENDBRANCH   1  31
TORSDOF 6
