REMARK  Name = ZINC14161305
REMARK  8 active torsions:
REMARK  status: ('A' for Active; 'I' for Inactive)
REMARK    1  A    between atoms: C_1  and  C_2
REMARK    2  A    between atoms: C_4  and  C_35
REMARK    3  A    between atoms: C_6  and  N_8
REMARK    4  A    between atoms: N_8  and  C_9
REMARK    5  A    between atoms: C_9  and  N_11
REMARK    6  A    between atoms: C_16  and  C_21
REMARK    7  A    between atoms: C_18  and  C_20
REMARK    8  A    between atoms: N_25  and  C_28
REMARK                            x       y       z     vdW  Elec       q    Type
REMARK                         _______ _______ _______ _____ _____    ______ ____
ROOT
ATOM      1  N   UNL     1       2.604   0.423  -0.001  0.00  0.00    -0.163 NA
ATOM      2  C   UNL     1       1.634   1.184   0.474  0.00  0.00    +0.180 C 
ATOM      3  N   UNL     1       0.480   0.613   0.938  0.00  0.00    -0.258 N 
ATOM      4  C   UNL     1      -0.496   1.402   1.532  0.00  0.00    +0.222 A 
ATOM      5  N   UNL     1      -0.340   2.717   1.552  0.00  0.00    -0.219 NA
ATOM      6  C   UNL     1      -1.253   3.498   2.105  0.00  0.00    +0.044 A 
ATOM      7  C   UNL     1      -2.377   2.924   2.676  0.00  0.00    +0.046 A 
ATOM      8  C   UNL     1      -2.506   1.544   2.642  0.00  0.00    +0.044 A 
ATOM      9  N   UNL     1      -1.558   0.821   2.069  0.00  0.00    -0.219 NA
ATOM     10  C   UNL     1      -3.712   0.875   3.251  0.00  0.00    +0.066 C 
ATOM     11  C   UNL     1      -1.070   4.994   2.118  0.00  0.00    +0.066 C 
ATOM     12  N   UNL     1       1.783   2.541   0.502  0.00  0.00    -0.302 N 
ATOM     13  C   UNL     1       2.349   3.214   1.681  0.00  0.00    +0.126 C 
ATOM     14  C   UNL     1       3.484   4.137   1.210  0.00  0.00    +0.124 C 
ATOM     15  N   UNL     1       2.975   5.037   0.166  0.00  0.00    -0.327 N 
ATOM     16  C   UNL     1       2.543   4.287  -1.020  0.00  0.00    +0.124 C 
ATOM     17  C   UNL     1       1.375   3.369  -0.643  0.00  0.00    +0.126 C 
ATOM     18  H   UNL     1       0.342  -0.343   0.849  0.00  0.00    +0.157 HD
ENDROOT
BRANCH  15  19
ATOM     19  C   UNL     1       3.927   6.002  -0.172  0.00  0.00    +0.030 A 
ATOM     20  C   UNL     1       4.341   6.140  -1.490  0.00  0.00    +0.024 A 
ATOM     21  C   UNL     1       5.278   7.099  -1.822  0.00  0.00    +0.022 A 
ATOM     22  C   UNL     1       5.813   7.914  -0.840  0.00  0.00    +0.041 A 
ATOM     23  C   UNL     1       5.407   7.775   0.475  0.00  0.00    +0.022 A 
ATOM     24  C   UNL     1       4.466   6.822   0.812  0.00  0.00    +0.024 A 
ATOM     25 CL   UNL     1       6.997   9.113  -1.259  0.00  0.00    -0.084 Cl
ENDBRANCH  15  19
BRANCH   1  26
ATOM     26  C   UNL     1       3.813   0.950  -0.243  0.00  0.00    +0.161 C 
ATOM     27  S   UNL     1       4.780   1.508   1.055  0.00  0.00    -0.016 S 
BRANCH  26  28
ATOM     28  N   UNL     1       4.266   1.042  -1.509  0.00  0.00    -0.295 N 
ATOM     29  H   UNL     1       3.694   0.786  -2.249  0.00  0.00    +0.154 HD
BRANCH  28  35
ATOM     30  C   UNL     1       7.346   3.756  -4.214  0.00  0.00    +0.044 C 
ATOM     31  C   UNL     1       7.084   2.822  -3.060  0.00  0.00    -0.048 A 
ATOM     32  C   UNL     1       8.126   2.425  -2.243  0.00  0.00    +0.006 A 
ATOM     33  C   UNL     1       7.890   1.569  -1.183  0.00  0.00    -0.048 A 
ATOM     34  C   UNL     1       6.611   1.109  -0.937  0.00  0.00    +0.026 A 
ATOM     35  C   UNL     1       5.562   1.506  -1.756  0.00  0.00    +0.033 A 
ATOM     36  C   UNL     1       5.804   2.361  -2.823  0.00  0.00    +0.026 A 
ATOM     37  C   UNL     1       9.029   1.138  -0.295  0.00  0.00    +0.044 C 
ENDBRANCH  28  35
ENDBRANCH  26  28
ENDBRANCH   1  26
TORSDOF 4
