REMARK  Name = ZINC63134591
REMARK  7 active torsions:
REMARK  status: ('A' for Active; 'I' for Inactive)
REMARK    1  A    between atoms: C_1  and  C_2
REMARK    2  A    between atoms: C_5  and  C_8
REMARK    3  A    between atoms: C_10  and  N_20
REMARK    4  A    between atoms: N_12  and  C_14
REMARK    5  A    between atoms: C_21  and  C_23
REMARK    6  A    between atoms: C_23  and  S_24
REMARK    7  A    between atoms: S_24  and  C_25
REMARK                            x       y       z     vdW  Elec       q    Type
REMARK                         _______ _______ _______ _____ _____    ______ ____
ROOT
ATOM      1  C   UNL     1       0.305  -4.225   0.140  0.00  0.00    +0.051 C 
ATOM      2  C   UNL     1       0.044  -5.004   1.187  0.00  0.00    +0.041 C 
ATOM      3  C   UNL     1      -0.193  -6.402   0.663  0.00  0.00    +0.205 C 
ATOM      4  N   UNL     1      -0.029  -6.288  -0.796  0.00  0.00    -0.229 N 
ATOM      5  N   UNL     1       0.267  -4.942  -1.048  0.00  0.00    -0.262 N 
ATOM      6  H   UNL     1       0.424  -4.564  -1.928  0.00  0.00    +0.170 HD
ENDROOT
BRANCH   1  11
ATOM      7  C   UNL     1       1.424   1.411   0.493  0.00  0.00    +0.044 C 
ATOM      8  C   UNL     1       1.131  -0.065   0.401  0.00  0.00    -0.050 A 
ATOM      9  C   UNL     1       1.117  -0.688  -0.834  0.00  0.00    +0.004 A 
ATOM     10  C   UNL     1       0.849  -2.039  -0.925  0.00  0.00    +0.010 A 
ATOM     11  C   UNL     1       0.593  -2.775   0.231  0.00  0.00    -0.003 A 
ATOM     12  C   UNL     1       0.608  -2.141   1.473  0.00  0.00    +0.010 A 
ATOM     13  C   UNL     1       0.882  -0.791   1.551  0.00  0.00    +0.004 A 
ENDBRANCH   1  11
BRANCH   4  14
ATOM     14  C   UNL     1      -0.149  -7.313  -1.737  0.00  0.00    +0.050 A 
ATOM     15  C   UNL     1      -0.285  -8.630  -1.319  0.00  0.00    +0.025 A 
ATOM     16  C   UNL     1      -0.404  -9.641  -2.253  0.00  0.00    +0.002 A 
ATOM     17  C   UNL     1      -0.386  -9.342  -3.603  0.00  0.00    +0.000 A 
ATOM     18  C   UNL     1      -0.250  -8.032  -4.023  0.00  0.00    +0.002 A 
ATOM     19  C   UNL     1      -0.137  -7.016  -3.094  0.00  0.00    +0.025 A 
ENDBRANCH   4  14
BRANCH   3  20
ATOM     20  N   UNL     1      -1.548  -6.848   0.993  0.00  0.00    -0.292 N 
ATOM     21  C   UNL     1      -1.746  -8.077   1.510  0.00  0.00    +0.225 C 
ATOM     22  O   UNL     1      -0.796  -8.776   1.793  0.00  0.00    -0.275 OA
ATOM     23  H   UNL     1      -2.304  -6.260   0.839  0.00  0.00    +0.151 HD
BRANCH  21  24
ATOM     24  C   UNL     1      -3.148  -8.582   1.738  0.00  0.00    +0.168 C 
BRANCH  24  25
ATOM     25  S   UNL     1      -3.082 -10.254   2.438  0.00  0.00    -0.106 S 
BRANCH  25  26
ATOM     26  C   UNL     1      -4.825 -10.711   2.649  0.00  0.00    +0.236 C 
ATOM     27  N   UNL     1      -5.529 -10.618   1.364  0.00  0.00    -0.355 N 
ATOM     28  C   UNL     1      -6.476  -9.735   1.501  0.00  0.00    +0.061 A 
ATOM     29  C   UNL     1      -7.498  -9.216   0.582  0.00  0.00    +0.027 A 
ATOM     30  C   UNL     1      -8.368  -8.281   1.014  0.00  0.00    +0.002 A 
ATOM     31  C   UNL     1      -8.343  -7.771   2.324  0.00  0.00    +0.002 A 
ATOM     32  C   UNL     1      -7.448  -8.178   3.247  0.00  0.00    +0.027 A 
ATOM     33  C   UNL     1      -6.450  -9.195   2.888  0.00  0.00    +0.061 A 
ATOM     34  N   UNL     1      -5.488  -9.764   3.554  0.00  0.00    -0.355 N 
ATOM     35  H   UNL     1      -5.326 -11.121   0.560  0.00  0.00    +0.162 HD
ATOM     36  H   UNL     1      -5.252  -9.594   4.480  0.00  0.00    +0.162 HD
ENDBRANCH  25  26
ENDBRANCH  24  25
ENDBRANCH  21  24
ENDBRANCH   3  20
TORSDOF 6
