REMARK  Name = ZINC44174377
REMARK  11 active torsions:
REMARK  status: ('A' for Active; 'I' for Inactive)
REMARK    1  A    between atoms: C_1  and  C_2
REMARK    2  A    between atoms: C_2  and  C_3
REMARK    3  A    between atoms: C_7  and  C_41
REMARK    4  A    between atoms: C_8  and  N_9
REMARK    5  A    between atoms: C_14  and  C_33
REMARK    6  A    between atoms: C_17  and  C_22
REMARK    7  A    between atoms: C_17  and  C_30
REMARK    8  A    between atoms: C_22  and  C_23
REMARK    9  A    between atoms: C_26  and  O_29
REMARK   10  A    between atoms: C_34  and  C_35
REMARK   11  A    between atoms: C_41  and  C_42
REMARK                            x       y       z     vdW  Elec       q    Type
REMARK                         _______ _______ _______ _____ _____    ______ ____
ROOT
ATOM      1  N   UNL     1      -1.523  -0.309  -2.405  0.00  0.00    -0.209 N 
ATOM      2  C   UNL     1      -1.577   0.948  -2.954  0.00  0.00    +0.229 C 
ATOM      3  O   UNL     1      -1.943   1.973  -2.421  0.00  0.00    -0.275 OA
ATOM      4  C   UNL     1      -1.103   0.779  -4.306  0.00  0.00    +0.077 C 
ATOM      5  C   UNL     1      -0.531   1.560  -5.416  0.00  0.00    -0.034 C 
ATOM      6  N   UNL     1      -0.103   0.482  -6.373  0.00  0.00    +0.395 N 
ATOM      7  C   UNL     1       0.087  -0.775  -5.589  0.00  0.00    +0.052 C 
ATOM      8  C   UNL     1      -0.003  -0.340  -4.118  0.00  0.00    +0.086 C 
ATOM      9  C   UNL     1      -0.798  -1.185  -3.162  0.00  0.00    +0.229 C 
ATOM     10  O   UNL     1      -0.796  -2.395  -3.081  0.00  0.00    -0.275 OA
ATOM     11  H   UNL     1      -0.817   0.344  -7.072  0.00  0.00    -0.083 HD
ATOM     12  H   UNL     1       0.765   0.743  -6.816  0.00  0.00    -0.083 HD
ENDROOT
BRANCH   1  18
ATOM     13  C   UNL     1      -1.449  -0.516   0.003  0.00  0.00    -0.026 A 
ATOM     14  C   UNL     1      -2.061  -0.852   1.194  0.00  0.00    +0.005 A 
ATOM     15  C   UNL     1      -3.358  -1.331   1.196  0.00  0.00    +0.001 A 
ATOM     16  C   UNL     1      -4.046  -1.475   0.005  0.00  0.00    +0.005 A 
ATOM     17  C   UNL     1      -3.440  -1.140  -1.189  0.00  0.00    -0.026 A 
ATOM     18  C   UNL     1      -2.139  -0.655  -1.194  0.00  0.00    +0.050 A 
BRANCH  13  20
ATOM     19  C   UNL     1      -0.056   1.535   0.007  0.00  0.00    +0.009 C 
ATOM     20  C   UNL     1      -0.035   0.006   0.002  0.00  0.00    +0.033 C 
ENDBRANCH  13  20
BRANCH  17  21
ATOM     21  C   UNL     1      -4.191  -1.297  -2.486  0.00  0.00    +0.033 C 
ATOM     22  C   UNL     1      -3.849  -2.651  -3.113  0.00  0.00    +0.009 C 
ENDBRANCH  17  21
ENDBRANCH   1  18
BRANCH   7  23
ATOM     23  C   UNL     1       1.447  -1.361  -5.865  0.00  0.00    +0.347 C 
ATOM     24  O   UNL     1       2.196  -0.817  -6.659  0.00  0.00    -0.248 OA
ATOM     25  O   UNL     1       1.800  -2.380  -5.295  0.00  0.00    -0.248 OA
ENDBRANCH   7  23
BRANCH   5  26
ATOM     26  C   UNL     1       0.654   2.368  -4.951  0.00  0.00    -0.041 C 
ATOM     27  C   UNL     1       0.678   3.680  -5.143  0.00  0.00    +0.002 C 
BRANCH  27  28
ATOM     28  C   UNL     1       1.887   4.455  -4.795  0.00  0.00    -0.025 A 
ATOM     29  C   UNL     1       3.007   3.809  -4.271  0.00  0.00    +0.008 A 
ATOM     30  C   UNL     1       4.133   4.538  -3.948  0.00  0.00    +0.001 A 
ATOM     31  C   UNL     1       4.153   5.908  -4.144  0.00  0.00    +0.000 A 
ATOM     32  C   UNL     1       3.046   6.554  -4.663  0.00  0.00    +0.001 A 
ATOM     33  C   UNL     1       1.916   5.835  -4.996  0.00  0.00    +0.008 A 
ENDBRANCH  27  28
ENDBRANCH   5  26
BRANCH   7  34
ATOM     34  C   UNL     1      -1.007  -1.786  -5.936  0.00  0.00    +0.035 C 
BRANCH  34  35
ATOM     35  C   UNL     1      -0.923  -2.136  -7.399  0.00  0.00    -0.048 A 
ATOM     36  C   UNL     1      -1.628  -1.394  -8.328  0.00  0.00    +0.007 A 
ATOM     37  C   UNL     1      -1.553  -1.712  -9.670  0.00  0.00    +0.045 A 
ATOM     38  C   UNL     1      -0.767  -2.778 -10.086  0.00  0.00    +0.117 A 
ATOM     39  C   UNL     1      -0.060  -3.521  -9.152  0.00  0.00    +0.045 A 
ATOM     40  C   UNL     1      -0.135  -3.195  -7.811  0.00  0.00    +0.007 A 
BRANCH  38  41
ATOM     41  O   UNL     1      -0.692  -3.094 -11.405  0.00  0.00    -0.507 OA
ATOM     42  H   UNL     1       0.021  -2.641 -11.878  0.00  0.00    +0.292 HD
ENDBRANCH  38  41
ENDBRANCH  34  35
ENDBRANCH   7  34
TORSDOF 9
