REMARK  Name = ZINC44021324
REMARK  4 active torsions:
REMARK  status: ('A' for Active; 'I' for Inactive)
REMARK    1  A    between atoms: C_8  and  O_9
REMARK    2  A    between atoms: C_10  and  N_12
REMARK    3  A    between atoms: N_12  and  C_13
REMARK    4  A    between atoms: N_17  and  C_22
REMARK                            x       y       z     vdW  Elec       q    Type
REMARK                         _______ _______ _______ _____ _____    ______ ____
ROOT
ATOM      1  C   UNL     1      -0.018  -2.707   0.047  0.00  0.00    +0.109 A 
ATOM      2  C   UNL     1      -0.097  -4.061   0.226  0.00  0.00    +0.112 A 
ATOM      3  C   UNL     1      -1.361  -4.667   0.296  0.00  0.00    +0.259 A 
ATOM      4  O   UNL     1      -1.456  -5.872   0.456  0.00  0.00    -0.267 OA
ATOM      5  N   UNL     1      -2.470  -3.909   0.188  0.00  0.00    -0.255 N 
ATOM      6  C   UNL     1      -2.375  -2.578   0.012  0.00  0.00    +0.331 A 
ATOM      7  O   UNL     1      -3.388  -1.913  -0.083  0.00  0.00    -0.246 OA
ATOM      8  N   UNL     1      -1.175  -1.972  -0.053  0.00  0.00    -0.295 N 
ATOM      9  H   UNL     1      -1.126  -1.011  -0.176  0.00  0.00    +0.172 HD
ENDROOT
BRANCH   5  10
ATOM     10  C   UNL     1      -3.791  -4.538   0.261  0.00  0.00    +0.054 C 
ATOM     11  C   UNL     1      -4.550  -4.286  -1.043  0.00  0.00    +0.032 C 
ATOM     12  C   UNL     1      -5.929  -4.944  -0.966  0.00  0.00    -0.008 C 
ATOM     13  C   UNL     1      -5.764  -6.450  -0.756  0.00  0.00    +0.007 C 
ATOM     14  C   UNL     1      -5.005  -6.703   0.549  0.00  0.00    -0.008 C 
ATOM     15  C   UNL     1      -3.626  -6.045   0.472  0.00  0.00    +0.032 C 
ATOM     16  C   UNL     1      -5.790  -6.107   1.719  0.00  0.00    +0.007 C 
ATOM     17  C   UNL     1      -5.955  -4.601   1.508  0.00  0.00    -0.008 C 
ATOM     18  C   UNL     1      -6.713  -4.348   0.204  0.00  0.00    +0.007 C 
ATOM     19  C   UNL     1      -4.575  -3.943   1.432  0.00  0.00    +0.032 C 
ENDBRANCH   5  10
BRANCH   1  20
ATOM     20  N   UNL     1       1.205  -2.088  -0.025  0.00  0.00    -0.300 N 
ATOM     21  H   UNL     1       1.837  -2.177   0.705  0.00  0.00    +0.154 HD
BRANCH  20  30
ATOM     22  C   UNL     1       1.018  -0.543  -3.364  0.00  0.00    +0.003 A 
ATOM     23  C   UNL     1       2.173   0.177  -3.420  0.00  0.00    +0.012 A 
ATOM     24  C   UNL     1       3.059   0.167  -2.331  0.00  0.00    +0.025 A 
ATOM     25  C   UNL     1       2.741  -0.595  -1.180  0.00  0.00    +0.007 A 
ATOM     26  C   UNL     1       3.629  -0.604  -0.092  0.00  0.00    +0.010 A 
ATOM     27  C   UNL     1       4.783   0.116  -0.154  0.00  0.00    +0.004 A 
ATOM     28  C   UNL     1       5.100   0.867  -1.283  0.00  0.00    +0.046 A 
ATOM     29  C   UNL     1       4.262   0.902  -2.361  0.00  0.00    +0.125 A 
ATOM     30  C   UNL     1       1.538  -1.331  -1.149  0.00  0.00    +0.040 A 
ATOM     31  C   UNL     1       0.694  -1.295  -2.239  0.00  0.00    +0.024 A 
BRANCH  29  32
ATOM     32  O   UNL     1       4.585   1.639  -3.455  0.00  0.00    -0.506 OA
ATOM     33  H   UNL     1       4.262   2.549  -3.426  0.00  0.00    +0.292 HD
ENDBRANCH  29  32
ENDBRANCH  20  30
ENDBRANCH   1  20
TORSDOF 4
