REMARK  Name = ZINC18063651
REMARK  8 active torsions:
REMARK  status: ('A' for Active; 'I' for Inactive)
REMARK    1  A    between atoms: C_1  and  C_2
REMARK    2  A    between atoms: C_5  and  S_8
REMARK    3  A    between atoms: S_8  and  N_11
REMARK    4  A    between atoms: N_13  and  C_14
REMARK    5  A    between atoms: C_14  and  C_15
REMARK    6  A    between atoms: C_15  and  C_16
REMARK    7  A    between atoms: C_30  and  C_35
REMARK    8  A    between atoms: C_32  and  C_34
REMARK                            x       y       z     vdW  Elec       q    Type
REMARK                         _______ _______ _______ _____ _____    ______ ____
ROOT
ATOM      1  N   UNL     1       8.748   1.049  -2.655  0.00  0.00    -0.093 NA
ATOM      2  C   UNL     1       7.462   1.256  -2.648  0.00  0.00    +0.224 C 
ATOM      3  N   UNL     1       6.808   1.479  -1.460  0.00  0.00    -0.354 N 
ATOM      4  N   UNL     1       6.756   1.251  -3.832  0.00  0.00    -0.294 N 
ATOM      5  C   UNL     1       7.394   0.917  -5.019  0.00  0.00    +0.231 A 
ATOM      6  N   UNL     1       8.653   0.508  -4.982  0.00  0.00    -0.217 NA
ATOM      7  C   UNL     1       9.289   0.176  -6.094  0.00  0.00    +0.044 A 
ATOM      8  C   UNL     1       8.625   0.273  -7.307  0.00  0.00    +0.046 A 
ATOM      9  C   UNL     1       7.310   0.710  -7.309  0.00  0.00    +0.044 A 
ATOM     10  N   UNL     1       6.731   1.020  -6.160  0.00  0.00    -0.217 NA
ATOM     11  C   UNL     1       6.548   0.830  -8.603  0.00  0.00    +0.066 C 
ATOM     12  C   UNL     1      10.720  -0.295  -6.043  0.00  0.00    +0.066 C 
ATOM     13  H   UNL     1       7.289   1.409  -0.620  0.00  0.00    +0.163 HD
ATOM     14  H   UNL     1       5.814   1.481  -3.837  0.00  0.00    +0.172 HD
ENDROOT
BRANCH   1  15
ATOM     15  S   UNL     1       9.595   1.055  -1.232  0.00  0.00    +0.102 S 
ATOM     16  O   UNL     1       9.534   2.382  -0.728  0.00  0.00    -0.146 OA
ATOM     17  O   UNL     1       9.142  -0.066  -0.485  0.00  0.00    -0.146 OA
BRANCH  15  22
ATOM     18  C   UNL     1      15.377  -0.006  -2.594  0.00  0.00    +0.044 C 
ATOM     19  C   UNL     1      13.933   0.259  -2.253  0.00  0.00    -0.050 A 
ATOM     20  C   UNL     1      13.459   1.557  -2.215  0.00  0.00    +0.005 A 
ATOM     21  C   UNL     1      12.134   1.800  -1.903  0.00  0.00    +0.029 A 
ATOM     22  C   UNL     1      11.283   0.745  -1.630  0.00  0.00    +0.113 A 
ATOM     23  C   UNL     1      11.759  -0.553  -1.664  0.00  0.00    +0.029 A 
ATOM     24  C   UNL     1      13.082  -0.796  -1.980  0.00  0.00    +0.005 A 
ENDBRANCH  15  22
ENDBRANCH   1  15
BRANCH   3  25
ATOM     25  C   UNL     1       5.383   1.822  -1.460  0.00  0.00    +0.120 C 
BRANCH  25  26
ATOM     26  C   UNL     1       4.934   2.138  -0.032  0.00  0.00    +0.058 C 
BRANCH  26  27
ATOM     27  C   UNL     1       3.445   2.371  -0.014  0.00  0.00    -0.021 A 
ATOM     28  C   UNL     1       2.824   3.561  -0.002  0.00  0.00    +0.087 A 
ATOM     29  N   UNL     1       1.468   3.379   0.013  0.00  0.00    -0.360 N 
ATOM     30  H   UNL     1       0.810   4.092   0.023  0.00  0.00    +0.165 HD
ATOM     31  C   UNL     1       1.176   2.032   0.011  0.00  0.00    +0.047 A 
ATOM     32  C   UNL     1       2.402   1.343  -0.006  0.00  0.00    +0.004 A 
ATOM     33  C   UNL     1       2.417  -0.053  -0.012  0.00  0.00    +0.030 A 
ATOM     34  C   UNL     1       1.226  -0.747  -0.001  0.00  0.00    +0.042 A 
ATOM     35  C   UNL     1       0.017  -0.065   0.016  0.00  0.00    +0.022 A 
ATOM     36  C   UNL     1      -0.013   1.312   0.021  0.00  0.00    +0.027 A 
ATOM     37 CL   UNL     1       1.239  -2.483  -0.008  0.00  0.00    -0.084 Cl
ENDBRANCH  26  27
ENDBRANCH  25  26
ENDBRANCH   3  25
TORSDOF 5
