REMARK  Name = ZINC36202945
REMARK  16 active torsions:
REMARK  status: ('A' for Active; 'I' for Inactive)
REMARK    1  A    between atoms: C_1  and  O_2
REMARK    2  A    between atoms: O_2  and  C_3
REMARK    3  A    between atoms: C_3  and  C_4
REMARK    4  A    between atoms: C_4  and  N_5
REMARK    5  A    between atoms: N_5  and  C_6
REMARK    6  A    between atoms: N_5  and  C_14
REMARK    7  A    between atoms: C_6  and  C_7
REMARK    8  A    between atoms: C_14  and  C_15
REMARK    9  A    between atoms: C_18  and  C_20
REMARK   10  A    between atoms: C_20  and  C_21
REMARK   11  A    between atoms: C_20  and  C_29
REMARK   12  A    between atoms: C_20  and  O_37
REMARK   13  A    between atoms: C_24  and  O_27
REMARK   14  A    between atoms: O_27  and  C_28
REMARK   15  A    between atoms: C_32  and  O_35
REMARK   16  A    between atoms: O_35  and  C_36
REMARK                            x       y       z     vdW  Elec       q    Type
REMARK                         _______ _______ _______ _____ _____    ______ ____
ROOT
ATOM      1  C   UNL     1      -0.243  -4.121   1.643  0.00  0.00    +0.089 A 
ATOM      2  C   UNL     1      -0.837  -4.274   2.840  0.00  0.00    +0.043 A 
ATOM      3  C   UNL     1       0.179  -4.621   3.760  0.00  0.00    +0.048 A 
ATOM      4  C   UNL     1       1.333  -4.660   3.070  0.00  0.00    +0.146 A 
ATOM      5  O   UNL     1       1.070  -4.361   1.787  0.00  0.00    -0.463 OA
ENDROOT
BRANCH   1   6
ATOM      6  C   UNL     1      -0.935  -3.748   0.357  0.00  0.00    -0.003 C 
BRANCH   6   7
ATOM      7  N   UNL     1      -0.945  -2.287   0.211  0.00  0.00    +0.389 N 
ATOM      8  H   UNL     1      -1.363  -1.870   1.029  0.00  0.00    -0.081 HD
BRANCH   7   9
ATOM      9  C   UNL     1       0.434  -1.800   0.066  0.00  0.00    -0.049 C 
BRANCH   9  10
ATOM     10  C   UNL     1       0.439  -0.270   0.075  0.00  0.00    +0.141 C 
BRANCH  10  12
ATOM     11  C   UNL     1      -0.012   1.623   1.473  0.00  0.00    +0.193 C 
ATOM     12  O   UNL     1       0.019   0.200   1.357  0.00  0.00    -0.385 OA
ENDBRANCH  10  12
ENDBRANCH   9  10
ENDBRANCH   7   9
BRANCH   7  13
ATOM     13  C   UNL     1      -1.722  -1.918  -0.979  0.00  0.00    -0.042 C 
BRANCH  13  14
ATOM     14  C   UNL     1      -3.167  -2.293  -0.771  0.00  0.00    -0.061 A 
ATOM     15  C   UNL     1      -3.645  -3.498  -1.251  0.00  0.00    +0.002 A 
ATOM     16  C   UNL     1      -4.970  -3.843  -1.061  0.00  0.00    +0.003 A 
ATOM     17  C   UNL     1      -5.819  -2.982  -0.391  0.00  0.00    +0.038 A 
ATOM     18  C   UNL     1      -5.342  -1.775   0.091  0.00  0.00    +0.124 A 
ATOM     19  C   UNL     1      -4.013  -1.434  -0.095  0.00  0.00    +0.040 A 
ATOM     20  F   UNL     1      -6.171  -0.934   0.746  0.00  0.00    -0.205 F 
ENDBRANCH  13  14
ENDBRANCH   7  13
ENDBRANCH   6   7
ENDBRANCH   1   6
BRANCH   4  21
ATOM     21  C   UNL     1       2.690  -4.988   3.638  0.00  0.00    +0.174 C 
BRANCH  21  22
ATOM     22  C   UNL     1       3.537  -5.636   2.574  0.00  0.00    -0.004 A 
ATOM     23  C   UNL     1       3.908  -6.962   2.699  0.00  0.00    +0.011 A 
ATOM     24  C   UNL     1       4.686  -7.558   1.725  0.00  0.00    +0.046 A 
ATOM     25  C   UNL     1       5.093  -6.825   0.620  0.00  0.00    +0.120 A 
ATOM     26  C   UNL     1       4.719  -5.495   0.496  0.00  0.00    +0.046 A 
ATOM     27  C   UNL     1       3.938  -4.904   1.470  0.00  0.00    +0.011 A 
BRANCH  25  28
ATOM     28  O   UNL     1       5.859  -7.409  -0.340  0.00  0.00    -0.495 OA
ATOM     29  C   UNL     1       6.241  -6.594  -1.449  0.00  0.00    +0.277 C 
ENDBRANCH  25  28
ENDBRANCH  21  22
BRANCH  21  30
ATOM     30  C   UNL     1       3.357  -3.721   4.109  0.00  0.00    -0.004 A 
ATOM     31  C   UNL     1       3.240  -2.562   3.365  0.00  0.00    +0.011 A 
ATOM     32  C   UNL     1       3.851  -1.399   3.795  0.00  0.00    +0.046 A 
ATOM     33  C   UNL     1       4.581  -1.396   4.974  0.00  0.00    +0.120 A 
ATOM     34  C   UNL     1       4.696  -2.561   5.719  0.00  0.00    +0.046 A 
ATOM     35  C   UNL     1       4.079  -3.719   5.288  0.00  0.00    +0.011 A 
BRANCH  33  36
ATOM     36  O   UNL     1       5.183  -0.254   5.399  0.00  0.00    -0.495 OA
ATOM     37  C   UNL     1       5.918  -0.324   6.622  0.00  0.00    +0.277 C 
ENDBRANCH  33  36
ENDBRANCH  21  30
BRANCH  21  38
ATOM     38  O   UNL     1       2.540  -5.886   4.740  0.00  0.00    -0.372 OA
ATOM     39  H   UNL     1       2.005  -5.534   5.464  0.00  0.00    +0.212 HD
ENDBRANCH  21  38
ENDBRANCH   4  21
TORSDOF 13
