REMARK  Name = ZINC09077161
REMARK  10 active torsions:
REMARK  status: ('A' for Active; 'I' for Inactive)
REMARK    1  A    between atoms: C_1  and  C_2
REMARK    2  A    between atoms: N_5  and  S_11
REMARK    3  A    between atoms: C_7  and  C_10
REMARK    4  A    between atoms: S_11  and  C_14
REMARK    5  A    between atoms: C_17  and  C_20
REMARK    6  A    between atoms: C_20  and  N_22
REMARK    7  A    between atoms: N_24  and  C_32
REMARK    8  A    between atoms: C_32  and  C_33
REMARK    9  A    between atoms: C_33  and  O_35
REMARK   10  A    between atoms: O_35  and  C_36
REMARK                            x       y       z     vdW  Elec       q    Type
REMARK                         _______ _______ _______ _____ _____    ______ ____
ROOT
ATOM      1  C   UNL     1      -6.600  -0.391   3.197  0.00  0.00    +0.106 A 
ATOM      2  C   UNL     1      -7.207  -0.196   1.969  0.00  0.00    +0.029 A 
ATOM      3  C   UNL     1      -6.447   0.134   0.866  0.00  0.00    +0.015 A 
ATOM      4  C   UNL     1      -5.064   0.272   0.991  0.00  0.00    +0.039 A 
ATOM      5  C   UNL     1      -4.458   0.068   2.230  0.00  0.00    +0.015 A 
ATOM      6  C   UNL     1      -5.229  -0.257   3.327  0.00  0.00    +0.029 A 
ENDROOT
BRANCH   1   7
ATOM      7  S   UNL     1      -7.578  -0.813   4.601  0.00  0.00    +0.061 S 
ATOM      8  O   UNL     1      -6.840  -0.407   5.746  0.00  0.00    -0.153 OA
ATOM      9  O   UNL     1      -8.893  -0.344   4.336  0.00  0.00    -0.153 OA
BRANCH   7  13
ATOM     10  C   UNL     1      -5.335  -3.729   3.335  0.00  0.00    +0.039 C 
ATOM     11  C   UNL     1      -6.143  -4.357   4.472  0.00  0.00    +0.131 C 
ATOM     12  C   UNL     1      -6.669  -3.253   5.397  0.00  0.00    +0.140 C 
ATOM     13  N   UNL     1      -7.667  -2.465   4.657  0.00  0.00    -0.172 NA
ATOM     14  C   UNL     1      -8.751  -3.189   3.974  0.00  0.00    +0.140 C 
ATOM     15  C   UNL     1      -8.121  -4.296   3.114  0.00  0.00    +0.131 C 
ATOM     16  O   UNL     1      -7.248  -5.083   3.929  0.00  0.00    -0.371 OA
ATOM     17  C   UNL     1      -9.225  -5.186   2.540  0.00  0.00    +0.039 C 
ENDBRANCH   7  13
ENDBRANCH   1   7
BRANCH   4  18
ATOM     18  C   UNL     1      -4.243   0.626  -0.190  0.00  0.00    +0.269 C 
ATOM     19  O   UNL     1      -4.774   0.798  -1.273  0.00  0.00    -0.268 OA
BRANCH  18  20
ATOM     20  N   UNL     1      -2.918   0.757  -0.067  0.00  0.00    -0.152 NA
ATOM     21  C   UNL     1      -2.181   1.075  -1.126  0.00  0.00    +0.167 A 
ATOM     22  N   UNL     1      -0.834   1.250  -1.194  0.00  0.00    -0.310 N 
ATOM     23  C   UNL     1      -0.237   1.576  -2.398  0.00  0.00    +0.058 A 
ATOM     24  C   UNL     1       1.124   1.790  -2.666  0.00  0.00    +0.027 A 
ATOM     25  C   UNL     1       1.549   2.110  -3.933  0.00  0.00    +0.002 A 
ATOM     26  C   UNL     1       0.653   2.232  -4.982  0.00  0.00    +0.001 A 
ATOM     27  C   UNL     1      -0.695   2.027  -4.746  0.00  0.00    +0.017 A 
ATOM     28  C   UNL     1      -1.121   1.706  -3.479  0.00  0.00    +0.039 A 
ATOM     29  S   UNL     1      -2.705   1.368  -2.753  0.00  0.00    -0.052 S 
BRANCH  22  30
ATOM     30  C   UNL     1      -0.013   1.086   0.008  0.00  0.00    +0.244 C 
BRANCH  30  31
ATOM     31  C   UNL     1      -0.719   1.706   1.186  0.00  0.00    +0.327 C 
ATOM     32  O   UNL     1      -1.712   2.372   1.014  0.00  0.00    -0.249 OA
BRANCH  31  33
ATOM     33  O   UNL     1      -0.244   1.518   2.428  0.00  0.00    -0.467 OA
ATOM     34  C   UNL     1      -0.974   2.144   3.515  0.00  0.00    +0.280 C 
ENDBRANCH  31  33
ENDBRANCH  30  31
ENDBRANCH  22  30
ENDBRANCH  18  20
ENDBRANCH   4  18
TORSDOF 7
