REMARK  Name = ZINC39573047
REMARK  9 active torsions:
REMARK  status: ('A' for Active; 'I' for Inactive)
REMARK    1  A    between atoms: C_1  and  C_2
REMARK    2  A    between atoms: C_2  and  C_3
REMARK    3  A    between atoms: C_3  and  N_4
REMARK    4  A    between atoms: C_9  and  C_11
REMARK    5  A    between atoms: C_11  and  O_13
REMARK    6  A    between atoms: O_13  and  C_14
REMARK    7  A    between atoms: C_14  and  C_15
REMARK    8  A    between atoms: N_17  and  C_18
REMARK    9  A    between atoms: C_19  and  C_27
REMARK                            x       y       z     vdW  Elec       q    Type
REMARK                         _______ _______ _______ _____ _____    ______ ____
ROOT
ATOM      1  C   UNL     1      -1.422  -3.553  -6.026  0.00  0.00    +0.255 C 
ATOM      2  O   UNL     1      -1.437  -2.363  -5.792  0.00  0.00    -0.272 OA
ATOM      3  N   UNL     1      -1.422  -3.989  -7.301  0.00  0.00    -0.277 N 
ATOM      4  H   UNL     1      -1.410  -4.941  -7.488  0.00  0.00    +0.155 HD
ENDROOT
BRANCH   3   5
ATOM      5  C   UNL     1      -1.439  -3.078  -8.346  0.00  0.00    +0.084 A 
ATOM      6  C   UNL     1      -1.448  -3.341  -9.707  0.00  0.00    +0.068 A 
ATOM      7  C   UNL     1      -1.466  -2.200 -10.604  0.00  0.00    -0.023 A 
ATOM      8  C   UNL     1      -1.472  -1.004  -9.977  0.00  0.00    -0.004 A 
ATOM      9  S   UNL     1      -1.462  -1.401  -8.253  0.00  0.00    -0.077 S 
ATOM     10  C   UNL     1      -1.488   0.349 -10.619  0.00  0.00    +0.043 C 
ATOM     11  C   UNL     1      -1.116   0.184 -12.100  0.00  0.00    +0.005 C 
ATOM     12  C   UNL     1      -1.947  -0.956 -12.695  0.00  0.00    +0.005 C 
ATOM     13  C   UNL     1      -1.478  -2.296 -12.123  0.00  0.00    +0.037 C 
BRANCH   6  14
ATOM     14  C   UNL     1      -1.438  -4.715 -10.219  0.00  0.00    +0.244 C 
ATOM     15  O   UNL     1      -2.488  -5.296 -10.423  0.00  0.00    -0.270 OA
ATOM     16  N   UNL     1      -0.267  -5.335 -10.463  0.00  0.00    -0.325 N 
ATOM     17  H   UNL     1       0.570  -4.873 -10.300  0.00  0.00    +0.145 HD
ATOM     18  H   UNL     1      -0.260  -6.244 -10.802  0.00  0.00    +0.145 HD
ENDBRANCH   6  14
ENDBRANCH   3   5
BRANCH   1  19
ATOM     19  C   UNL     1      -1.403  -4.543  -4.890  0.00  0.00    +0.328 C 
BRANCH  19  20
ATOM     20  O   UNL     1      -1.407  -3.841  -3.646  0.00  0.00    -0.451 OA
BRANCH  20  21
ATOM     21  C   UNL     1      -1.391  -4.586  -2.523  0.00  0.00    +0.360 C 
ATOM     22  O   UNL     1      -1.375  -5.798  -2.599  0.00  0.00    -0.243 OA
BRANCH  21  28
ATOM     23  N   UNL     1      -1.413  -1.998   0.005  0.00  0.00    -0.229 N 
ATOM     24  C   UNL     1      -1.399  -2.659   1.177  0.00  0.00    +0.267 A 
ATOM     25  O   UNL     1      -1.402  -2.043   2.230  0.00  0.00    -0.266 OA
ATOM     26  C   UNL     1      -1.380  -4.072   1.181  0.00  0.00    +0.074 A 
ATOM     27  C   UNL     1      -1.378  -4.714  -0.022  0.00  0.00    +0.042 A 
ATOM     28  C   UNL     1      -1.394  -3.929  -1.200  0.00  0.00    +0.168 A 
ATOM     29  N   UNL     1      -1.416  -2.617  -1.120  0.00  0.00    -0.162 NA
BRANCH  23  30
ATOM     30  C   UNL     1      -1.433  -0.534   0.013  0.00  0.00    +0.147 C 
BRANCH  30  32
ATOM     31  C   UNL     1      -0.019   1.526   0.010  0.00  0.00    +0.005 C 
ATOM     32  C   UNL     1       0.002  -0.004   0.002  0.00  0.00    +0.020 C 
ENDBRANCH  30  32
ENDBRANCH  23  30
ENDBRANCH  21  28
ENDBRANCH  20  21
ENDBRANCH  19  20
ENDBRANCH   1  19
TORSDOF 8
