REMARK  Name = ZINC60847485
REMARK  5 active torsions:
REMARK  status: ('A' for Active; 'I' for Inactive)
REMARK    1  A    between atoms: C_1  and  O_2
REMARK    2  A    between atoms: O_2  and  C_3
REMARK    3  A    between atoms: C_6  and  S_18
REMARK    4  A    between atoms: C_8  and  C_9
REMARK    5  A    between atoms: S_18  and  N_21
REMARK                            x       y       z     vdW  Elec       q    Type
REMARK                         _______ _______ _______ _____ _____    ______ ____
ROOT
ATOM      1  C   UNL     1       0.587  -0.618  -1.089  0.00  0.00    +0.132 A 
ATOM      2  C   UNL     1       1.150   0.136  -2.109  0.00  0.00    +0.048 A 
ATOM      3  C   UNL     1       1.770  -0.490  -3.171  0.00  0.00    +0.032 A 
ATOM      4  C   UNL     1       1.835  -1.873  -3.229  0.00  0.00    +0.106 A 
ATOM      5  C   UNL     1       1.282  -2.638  -2.225  0.00  0.00    +0.045 A 
ATOM      6  C   UNL     1       0.656  -2.017  -1.141  0.00  0.00    +0.080 A 
ENDROOT
BRANCH   6   7
ATOM      7  C   UNL     1       0.067  -2.829  -0.060  0.00  0.00    +0.250 C 
ATOM      8  O   UNL     1      -1.094  -2.662   0.262  0.00  0.00    -0.270 OA
ATOM      9  N   UNL     1       0.814  -3.756   0.571  0.00  0.00    -0.297 N 
ATOM     10  C   UNL     1       2.250  -3.847   0.258  0.00  0.00    +0.109 C 
ATOM     11  C   UNL     1       3.202  -4.025   1.467  0.00  0.00    +0.030 C 
ATOM     12  C   UNL     1       2.875  -3.134   2.623  0.00  0.00    +0.071 C 
ATOM     13  S   UNL     1       1.666  -3.955   3.726  0.00  0.00    -0.159 S 
ATOM     14  C   UNL     1       0.140  -3.885   2.875  0.00  0.00    +0.088 C 
ATOM     15  C   UNL     1       0.189  -4.615   1.526  0.00  0.00    +0.118 C 
ENDBRANCH   6   7
BRANCH   4  16
ATOM     16  S   UNL     1       2.629  -2.658  -4.592  0.00  0.00    +0.056 S 
ATOM     17  O   UNL     1       2.079  -3.964  -4.686  0.00  0.00    -0.153 OA
ATOM     18  O   UNL     1       2.588  -1.735  -5.672  0.00  0.00    -0.153 OA
BRANCH  16  19
ATOM     19  N   UNL     1       4.225  -2.843  -4.189  0.00  0.00    -0.204 NA
ATOM     20  H   UNL     1       4.546  -2.535  -3.327  0.00  0.00    +0.144 HD
ATOM     21  H   UNL     1       4.838  -3.260  -4.815  0.00  0.00    +0.144 HD
ENDBRANCH  16  19
ENDBRANCH   4  16
BRANCH   1  23
ATOM     22  C   UNL     1      -0.055   1.424  -0.061  0.00  0.00    +0.277 C 
ATOM     23  O   UNL     1      -0.023  -0.004  -0.045  0.00  0.00    -0.494 OA
ENDBRANCH   1  23
TORSDOF 4
