REMARK  Name = ZINC02417087
REMARK  12 active torsions:
REMARK  status: ('A' for Active; 'I' for Inactive)
REMARK    1  A    between atoms: C_1  and  C_2
REMARK    2  A    between atoms: C_2  and  C_4
REMARK    3  A    between atoms: C_2  and  N_12
REMARK    4  A    between atoms: C_4  and  C_5
REMARK    5  A    between atoms: C_5  and  C_6
REMARK    6  A    between atoms: C_13  and  C_15
REMARK    7  A    between atoms: N_26  and  C_29
REMARK    8  A    between atoms: C_27  and  N_28
REMARK    9  A    between atoms: C_32  and  O_37
REMARK   10  A    between atoms: C_33  and  O_35
REMARK   11  A    between atoms: O_35  and  C_36
REMARK   12  A    between atoms: O_37  and  C_38
REMARK                            x       y       z     vdW  Elec       q    Type
REMARK                         _______ _______ _______ _____ _____    ______ ____
ROOT
ATOM      1  C   UNL     1       1.555  -2.056  -0.023  0.00  0.00    +0.104 A 
ATOM      2  C   UNL     1       1.157  -0.638  -0.012  0.00  0.00    +0.123 A 
ATOM      3  C   UNL     1       2.413   0.118  -0.019  0.00  0.00    +0.166 A 
ATOM      4  N   UNL     1       2.376   1.433  -0.012  0.00  0.00    -0.225 NA
ATOM      5  C   UNL     1       1.197   2.067   0.002  0.00  0.00    +0.092 A 
ATOM      6  C   UNL     1       1.149   3.474   0.009  0.00  0.00    +0.030 A 
ATOM      7  C   UNL     1      -0.054   4.110   0.024  0.00  0.00    +0.002 A 
ATOM      8  C   UNL     1      -1.246   3.389   0.031  0.00  0.00    +0.002 A 
ATOM      9  C   UNL     1      -1.240   2.029   0.019  0.00  0.00    +0.030 A 
ATOM     10  C   UNL     1      -0.016   1.334   0.009  0.00  0.00    +0.090 A 
ATOM     11  N   UNL     1       0.002  -0.004   0.002  0.00  0.00    -0.241 NA
ATOM     12  N   UNL     1       3.440  -0.806  -0.034  0.00  0.00    -0.280 N 
ATOM     13  C   UNL     1       2.946  -2.076  -0.036  0.00  0.00    +0.117 A 
ENDROOT
BRANCH  12  14
ATOM     14  C   UNL     1       4.804  -0.481  -0.044  0.00  0.00    +0.053 A 
ATOM     15  C   UNL     1       5.352   0.179  -1.136  0.00  0.00    +0.030 A 
ATOM     16  C   UNL     1       6.696   0.500  -1.148  0.00  0.00    +0.051 A 
ATOM     17  C   UNL     1       7.500   0.163  -0.071  0.00  0.00    +0.162 A 
ATOM     18  C   UNL     1       6.954  -0.499   1.024  0.00  0.00    +0.163 A 
ATOM     19  C   UNL     1       5.606  -0.815   1.039  0.00  0.00    +0.075 A 
BRANCH  18  20
ATOM     20  O   UNL     1       7.742  -0.830   2.082  0.00  0.00    -0.491 OA
ATOM     21  C   UNL     1       7.114  -1.508   3.172  0.00  0.00    +0.277 C 
ENDBRANCH  18  20
BRANCH  17  22
ATOM     22  O   UNL     1       8.823   0.480  -0.084  0.00  0.00    -0.491 OA
ATOM     23  C   UNL     1       9.316   1.160  -1.240  0.00  0.00    +0.277 C 
ENDBRANCH  17  22
ENDBRANCH  12  14
BRANCH   1  25
ATOM     24  N   UNL     1       0.264  -3.754   1.147  0.00  0.00    -0.309 N 
ATOM     25  C   UNL     1       0.664  -3.214  -0.021  0.00  0.00    +0.250 C 
ATOM     26  O   UNL     1       0.283  -3.691  -1.075  0.00  0.00    -0.270 OA
ATOM     27  H   UNL     1       0.568  -3.374   1.986  0.00  0.00    +0.149 HD
BRANCH  24  29
ATOM     28  C   UNL     1      -2.080  -4.442   1.040  0.00  0.00    +0.028 C 
ATOM     29  C   UNL     1      -0.629  -4.915   1.149  0.00  0.00    +0.070 C 
BRANCH  29  30
ATOM     30  C   UNL     1      -0.445  -5.698   2.451  0.00  0.00    +0.026 C 
BRANCH  30  31
ATOM     31  C   UNL     1       0.971  -6.276   2.502  0.00  0.00    +0.037 C 
BRANCH  31  32
ATOM     32  C   UNL     1       1.152  -7.047   3.784  0.00  0.00    -0.047 A 
ATOM     33  C   UNL     1       1.628  -6.408   4.914  0.00  0.00    +0.003 A 
ATOM     34  C   UNL     1       1.790  -7.114   6.091  0.00  0.00    +0.000 A 
ATOM     35  C   UNL     1       1.486  -8.462   6.136  0.00  0.00    +0.000 A 
ATOM     36  C   UNL     1       1.016  -9.103   5.005  0.00  0.00    +0.000 A 
ATOM     37  C   UNL     1       0.849  -8.395   3.829  0.00  0.00    +0.003 A 
ENDBRANCH  31  32
ENDBRANCH  30  31
ENDBRANCH  29  30
ENDBRANCH  24  29
ENDBRANCH   1  25
BRANCH  13  38
ATOM     38  N   UNL     1       3.711  -3.213  -0.049  0.00  0.00    -0.343 N 
ATOM     39  H   UNL     1       3.285  -4.084  -0.050  0.00  0.00    +0.144 HD
ATOM     40  H   UNL     1       4.679  -3.146  -0.057  0.00  0.00    +0.144 HD
ENDBRANCH  13  38
TORSDOF 9
