REMARK  Name = ZINC67502387
REMARK  11 active torsions:
REMARK  status: ('A' for Active; 'I' for Inactive)
REMARK    1  A    between atoms: C_1  and  C_2
REMARK    2  A    between atoms: C_2  and  C_3
REMARK    3  A    between atoms: C_2  and  C_4
REMARK    4  A    between atoms: C_4  and  C_6
REMARK    5  A    between atoms: C_4  and  N_17
REMARK    6  A    between atoms: C_8  and  C_11
REMARK    7  A    between atoms: N_17  and  C_18
REMARK    8  A    between atoms: C_18  and  C_19
REMARK    9  A    between atoms: C_22  and  O_26
REMARK   10  A    between atoms: C_23  and  O_25
REMARK   11  A    between atoms: O_26  and  C_27
REMARK                            x       y       z     vdW  Elec       q    Type
REMARK                         _______ _______ _______ _____ _____    ______ ____
ROOT
ATOM      1  C   UNL     1      -1.428  -0.526   0.142  0.00  0.00    +0.022 C 
ENDROOT
BRANCH   1   2
ATOM      2  C   UNL     1      -1.486  -2.021   0.327  0.00  0.00    +0.214 A 
ATOM      3  N   UNL     1      -1.700  -2.640   1.453  0.00  0.00    -0.193 NA
ATOM      4  C   UNL     1      -1.686  -3.971   1.256  0.00  0.00    +0.202 A 
ATOM      5  N   UNL     1      -1.461  -4.204  -0.013  0.00  0.00    -0.056 NA
ATOM      6  O   UNL     1      -1.332  -2.936  -0.638  0.00  0.00    -0.339 OA
BRANCH   4   7
ATOM      7  C   UNL     1      -1.892  -5.003   2.303  0.00  0.00    +0.022 A 
ATOM      8  C   UNL     1      -2.130  -4.623   3.622  0.00  0.00    +0.012 A 
ATOM      9  C   UNL     1      -2.321  -5.587   4.591  0.00  0.00    +0.001 A 
ATOM     10  C   UNL     1      -2.276  -6.928   4.255  0.00  0.00    +0.000 A 
ATOM     11  C   UNL     1      -2.040  -7.311   2.947  0.00  0.00    +0.001 A 
ATOM     12  C   UNL     1      -1.854  -6.355   1.968  0.00  0.00    +0.012 A 
ENDBRANCH   4   7
ENDBRANCH   1   2
BRANCH   1  14
ATOM     13  C   UNL     1       0.094   1.433  -0.157  0.00  0.00    +0.006 C 
ATOM     14  C   UNL     1       0.027  -0.092  -0.044  0.00  0.00    -0.022 C 
ATOM     15  C   UNL     1       0.854  -0.550   1.159  0.00  0.00    +0.006 C 
ENDBRANCH   1  14
BRANCH   1  16
ATOM     16  N   UNL     1      -2.207  -0.150  -1.045  0.00  0.00    +0.390 N 
ATOM     17  H   UNL     1      -2.093   0.837  -1.223  0.00  0.00    -0.084 HD
ATOM     18  H   UNL     1      -1.880  -0.675  -1.843  0.00  0.00    -0.084 HD
BRANCH  16  19
ATOM     19  C   UNL     1      -3.627  -0.445  -0.813  0.00  0.00    -0.046 C 
BRANCH  19  20
ATOM     20  C   UNL     1      -4.442   0.061  -1.975  0.00  0.00    -0.061 A 
ATOM     21  C   UNL     1      -4.940   1.351  -1.959  0.00  0.00    +0.005 A 
ATOM     22  C   UNL     1      -5.688   1.820  -3.022  0.00  0.00    +0.049 A 
ATOM     23  C   UNL     1      -5.940   0.997  -4.108  0.00  0.00    +0.161 A 
ATOM     24  C   UNL     1      -5.439  -0.301  -4.125  0.00  0.00    +0.159 A 
ATOM     25  C   UNL     1      -4.686  -0.763  -3.058  0.00  0.00    +0.051 A 
BRANCH  24  26
ATOM     26  O   UNL     1      -5.684  -1.113  -5.188  0.00  0.00    -0.503 OA
ATOM     27  H   UNL     1      -5.017  -1.058  -5.887  0.00  0.00    +0.292 HD
ENDBRANCH  24  26
BRANCH  23  28
ATOM     28  O   UNL     1      -6.676   1.456  -5.155  0.00  0.00    -0.491 OA
ATOM     29  C   UNL     1      -7.159   2.798  -5.069  0.00  0.00    +0.277 C 
ENDBRANCH  23  28
ENDBRANCH  19  20
ENDBRANCH  16  19
ENDBRANCH   1  16
TORSDOF 8
