REMARK  Name = ZINC10048489
REMARK  12 active torsions:
REMARK  status: ('A' for Active; 'I' for Inactive)
REMARK    1  A    between atoms: C_1  and  C_2
REMARK    2  A    between atoms: C_4  and  C_37
REMARK    3  A    between atoms: C_6  and  N_8
REMARK    4  A    between atoms: C_9  and  C_36
REMARK    5  A    between atoms: N_18  and  C_23
REMARK    6  A    between atoms: N_21  and  C_22
REMARK    7  A    between atoms: C_23  and  C_24
REMARK    8  A    between atoms: C_24  and  C_26
REMARK    9  A    between atoms: C_24  and  C_27
REMARK   10  A    between atoms: C_27  and  N_28
REMARK   11  A    between atoms: N_28  and  C_29
REMARK   12  A    between atoms: C_34  and  N_35
REMARK                            x       y       z     vdW  Elec       q    Type
REMARK                         _______ _______ _______ _____ _____    ______ ____
ROOT
ATOM      1  N   UNL     1       4.568   2.423  -0.028  0.00  0.00    -0.283 N 
ATOM      2  C   UNL     1       4.662   1.043  -0.036  0.00  0.00    +0.040 A 
ATOM      3  C   UNL     1       3.430   0.543  -0.027  0.00  0.00    +0.116 A 
ATOM      4  N   UNL     1       2.531   1.596  -0.013  0.00  0.00    -0.277 N 
ATOM      5  C   UNL     1       3.236   2.752  -0.014  0.00  0.00    +0.223 A 
ATOM      6  N   UNL     1       2.396   3.776  -0.001  0.00  0.00    -0.193 NA
ATOM      7  C   UNL     1       1.141   3.334   0.009  0.00  0.00    +0.170 A 
ATOM      8  C   UNL     1       1.188   1.940   0.001  0.00  0.00    +0.157 A 
ATOM      9  C   UNL     1      -0.015   1.215   0.009  0.00  0.00    +0.283 A 
ATOM     10  O   UNL     1       0.002  -0.004   0.002  0.00  0.00    -0.265 OA
ATOM     11  N   UNL     1      -1.188   1.880   0.018  0.00  0.00    -0.259 N 
ATOM     12  C   UNL     1      -1.224   3.223   0.030  0.00  0.00    +0.333 A 
ATOM     13  O   UNL     1      -2.301   3.788   0.042  0.00  0.00    -0.246 OA
ATOM     14  N   UNL     1      -0.096   3.960   0.023  0.00  0.00    -0.279 N 
ATOM     15  C   UNL     1      -0.177   5.423   0.031  0.00  0.00    +0.155 C 
ATOM     16  C   UNL     1       5.940   0.244  -0.052  0.00  0.00    +0.065 C 
ENDROOT
BRANCH   1  22
ATOM     17  C   UNL     1       7.109   5.967  -2.300  0.00  0.00    +0.044 C 
ATOM     18  C   UNL     1       6.895   5.053  -1.121  0.00  0.00    -0.048 A 
ATOM     19  C   UNL     1       7.759   5.103  -0.043  0.00  0.00    +0.006 A 
ATOM     20  C   UNL     1       7.567   4.265   1.040  0.00  0.00    -0.048 A 
ATOM     21  C   UNL     1       6.510   3.376   1.048  0.00  0.00    +0.029 A 
ATOM     22  C   UNL     1       5.640   3.324  -0.033  0.00  0.00    +0.050 A 
ATOM     23  C   UNL     1       5.840   4.162  -1.122  0.00  0.00    +0.029 A 
ATOM     24  C   UNL     1       8.511   4.323   2.214  0.00  0.00    +0.044 C 
ENDBRANCH   1  22
BRANCH  11  25
ATOM     25  C   UNL     1      -2.444   1.126   0.020  0.00  0.00    +0.134 C 
BRANCH  25  26
ATOM     26  C   UNL     1      -2.874   0.856   1.463  0.00  0.00    +0.023 C 
ATOM     27  C   UNL     1      -3.197   2.181   2.156  0.00  0.00    +0.011 C 
BRANCH  26  28
ATOM     28  C   UNL     1      -4.116  -0.037   1.467  0.00  0.00    +0.106 C 
BRANCH  28  29
ATOM     29  N   UNL     1      -4.458  -0.394   2.846  0.00  0.00    -0.342 N 
ATOM     30  H   UNL     1      -3.917  -0.064   3.580  0.00  0.00    +0.146 HD
BRANCH  29  31
ATOM     31  C   UNL     1      -5.566  -1.210   3.104  0.00  0.00    +0.048 A 
ATOM     32  C   UNL     1      -6.344  -1.678   2.057  0.00  0.00    +0.025 A 
ATOM     33  C   UNL     1      -7.435  -2.488   2.314  0.00  0.00    +0.002 A 
ATOM     34  C   UNL     1      -7.759  -2.825   3.615  0.00  0.00    +0.002 A 
ATOM     35  C   UNL     1      -6.991  -2.359   4.666  0.00  0.00    +0.024 A 
ATOM     36  C   UNL     1      -5.893  -1.550   4.417  0.00  0.00    +0.046 A 
BRANCH  36  37
ATOM     37  N   UNL     1      -5.114  -1.077   5.480  0.00  0.00    -0.357 N 
ATOM     38  H   UNL     1      -4.346  -0.511   5.304  0.00  0.00    +0.142 HD
ATOM     39  H   UNL     1      -5.343  -1.314   6.392  0.00  0.00    +0.142 HD
ENDBRANCH  36  37
ENDBRANCH  29  31
ENDBRANCH  28  29
ENDBRANCH  26  28
ENDBRANCH  25  26
ENDBRANCH  11  25
TORSDOF 7
