REMARK  Name = ZINC13566353
REMARK  4 active torsions:
REMARK  status: ('A' for Active; 'I' for Inactive)
REMARK    1  A    between atoms: C_2  and  C_3
REMARK    2  A    between atoms: C_3  and  O_4
REMARK    3  A    between atoms: O_4  and  C_5
REMARK    4  A    between atoms: C_8  and  C_11
REMARK                            x       y       z     vdW  Elec       q    Type
REMARK                         _______ _______ _______ _____ _____    ______ ____
ROOT
ATOM      1  C   UNL     1       1.247  -2.160  -0.021  0.00  0.00    +0.247 C 
ATOM      2  O   UNL     1       0.207  -2.786   0.056  0.00  0.00    -0.270 OA
ATOM      3  N   UNL     1       2.420  -2.814  -0.137  0.00  0.00    -0.297 N 
ATOM      4  C   UNL     1       3.690  -2.076  -0.154  0.00  0.00    +0.112 C 
ATOM      5  C   UNL     1       4.483  -2.477  -1.396  0.00  0.00    +0.064 C 
ATOM      6  C   UNL     1       4.641  -4.000  -1.427  0.00  0.00    +0.102 C 
ATOM      7  C   UNL     1       3.260  -4.654  -1.503  0.00  0.00    +0.064 C 
ATOM      8  C   UNL     1       2.452  -4.278  -0.256  0.00  0.00    +0.112 C 
ATOM      9  N   UNL     1       5.317  -4.438  -0.199  0.00  0.00    -0.323 N 
ATOM     10  C   UNL     1       6.685  -4.217  -0.083  0.00  0.00    +0.041 A 
ATOM     11  C   UNL     1       7.293  -4.010   1.143  0.00  0.00    +0.024 A 
ATOM     12  C   UNL     1       8.655  -3.788   1.202  0.00  0.00    +0.002 A 
ATOM     13  C   UNL     1       9.417  -3.773   0.044  0.00  0.00    +0.001 A 
ATOM     14  C   UNL     1       8.827  -3.981  -1.186  0.00  0.00    +0.015 A 
ATOM     15  C   UNL     1       7.455  -4.207  -1.259  0.00  0.00    +0.058 A 
ATOM     16  C   UNL     1       6.775  -4.446  -2.545  0.00  0.00    +0.247 C 
ATOM     17  O   UNL     1       7.420  -4.697  -3.545  0.00  0.00    -0.270 OA
ATOM     18  N   UNL     1       5.428  -4.382  -2.600  0.00  0.00    -0.290 N 
ATOM     19  H   UNL     1       4.822  -4.872   0.513  0.00  0.00    +0.148 HD
ATOM     20  H   UNL     1       4.974  -4.594  -3.431  0.00  0.00    +0.151 HD
ENDROOT
BRANCH   1  24
ATOM     21  C   UNL     1       1.184   2.085   0.078  0.00  0.00    +0.121 A 
ATOM     22  C   UNL     1       2.036   1.384   0.924  0.00  0.00    +0.046 A 
ATOM     23  C   UNL     1       2.059   0.008   0.895  0.00  0.00    +0.016 A 
ATOM     24  C   UNL     1       1.225  -0.685   0.014  0.00  0.00    +0.037 A 
ATOM     25  C   UNL     1       0.370   0.023  -0.835  0.00  0.00    +0.016 A 
ATOM     26  C   UNL     1       0.353   1.400  -0.800  0.00  0.00    +0.046 A 
BRANCH  21  27
ATOM     27  O   UNL     1       1.164   3.442   0.110  0.00  0.00    -0.488 OA
BRANCH  27  28
ATOM     28  C   UNL     1       0.265   4.098  -0.786  0.00  0.00    +0.256 C 
BRANCH  28  30
ATOM     29  C   UNL     1       0.449   6.370  -1.661  0.00  0.00    +0.007 C 
ATOM     30  C   UNL     1       0.381   5.590  -0.610  0.00  0.00    +0.006 C 
ENDBRANCH  28  30
ENDBRANCH  27  28
ENDBRANCH  21  27
ENDBRANCH   1  24
TORSDOF 4
