REMARK  Name = ZINC12490665
REMARK  8 active torsions:
REMARK  status: ('A' for Active; 'I' for Inactive)
REMARK    1  A    between atoms: C_1  and  C_2
REMARK    2  A    between atoms: C_2  and  C_38
REMARK    3  A    between atoms: N_9  and  C_37
REMARK    4  A    between atoms: N_14  and  C_31
REMARK    5  A    between atoms: P_15  and  N_25
REMARK    6  A    between atoms: N_16  and  C_17
REMARK    7  A    between atoms: C_20  and  O_23
REMARK    8  A    between atoms: O_23  and  C_24
REMARK                            x       y       z     vdW  Elec       q    Type
REMARK                         _______ _______ _______ _____ _____    ______ ____
ROOT
ATOM      1  C   UNL     1       0.724   1.225   1.941  0.00  0.00    +0.022 C 
ATOM      2  C   UNL     1       0.183   0.059   1.112  0.00  0.00    +0.031 C 
ATOM      3  C   UNL     1      -1.112  -0.452   1.701  0.00  0.00    -0.015 A 
ATOM      4  C   UNL     1      -2.337   0.144   1.907  0.00  0.00    +0.006 A 
ATOM      5  C   UNL     1      -3.370  -0.578   2.479  0.00  0.00    +0.000 A 
ATOM      6  C   UNL     1      -3.169  -1.898   2.842  0.00  0.00    +0.002 A 
ATOM      7  C   UNL     1      -1.944  -2.498   2.636  0.00  0.00    +0.024 A 
ATOM      8  C   UNL     1      -0.898  -1.776   2.061  0.00  0.00    +0.038 A 
ATOM      9  N   UNL     1       0.407  -2.160   1.759  0.00  0.00    -0.305 N 
ATOM     10  C   UNL     1       1.122  -1.126   1.191  0.00  0.00    +0.034 C 
ATOM     11  C   UNL     1       2.401  -1.164   0.785  0.00  0.00    +0.063 C 
ATOM     12  C   UNL     1       3.428  -2.206   0.987  0.00  0.00    +0.145 C 
ATOM     13  N   UNL     1       4.567  -1.944   0.471  0.00  0.00    -0.181 NA
ATOM     14  N   UNL     1       4.812  -0.759  -0.229  0.00  0.00    -0.171 N 
ATOM     15  P   UNL     1       3.366   0.064  -0.186  0.00  0.00    +0.172 P 
ATOM     16  N   UNL     1       2.775   0.263  -1.608  0.00  0.00    -0.227 NA
ATOM     17  C   UNL     1       0.953  -3.495   2.015  0.00  0.00    +0.135 C 
ATOM     18  C   UNL     1      -0.019   0.486  -0.343  0.00  0.00    +0.022 C 
ENDROOT
BRANCH  16  19
ATOM     19  C   UNL     1       1.839  -0.560  -2.058  0.00  0.00    +0.066 A 
ATOM     20  C   UNL     1       0.841  -0.089  -2.949  0.00  0.00    +0.031 A 
ATOM     21  C   UNL     1      -0.115  -0.944  -3.404  0.00  0.00    +0.048 A 
ATOM     22  C   UNL     1      -0.117  -2.280  -2.997  0.00  0.00    +0.120 A 
ATOM     23  C   UNL     1       0.861  -2.755  -2.120  0.00  0.00    +0.048 A 
ATOM     24  C   UNL     1       1.831  -1.921  -1.656  0.00  0.00    +0.031 A 
BRANCH  22  25
ATOM     25  O   UNL     1      -1.075  -3.122  -3.456  0.00  0.00    -0.495 OA
ATOM     26  C   UNL     1      -1.020  -4.476  -3.002  0.00  0.00    +0.277 C 
ENDBRANCH  22  25
ENDBRANCH  16  19
BRANCH  15  27
ATOM     27  N   UNL     1       3.508   1.490   0.612  0.00  0.00    -0.245 NA
ATOM     28  C   UNL     1       4.101   1.550   1.957  0.00  0.00    +0.120 C 
ATOM     29  C   UNL     1       5.181   2.638   1.961  0.00  0.00    +0.175 C 
ATOM     30  O   UNL     1       4.625   3.855   1.457  0.00  0.00    -0.377 OA
ATOM     31  C   UNL     1       4.176   3.777   0.102  0.00  0.00    +0.175 C 
ATOM     32  C   UNL     1       3.050   2.748   0.001  0.00  0.00    +0.120 C 
ENDBRANCH  15  27
BRANCH  14  33
ATOM     33  C   UNL     1       6.002  -0.359  -0.835  0.00  0.00    +0.059 A 
ATOM     34  C   UNL     1       6.042   0.809  -1.589  0.00  0.00    +0.025 A 
ATOM     35  C   UNL     1       7.222   1.202  -2.187  0.00  0.00    +0.002 A 
ATOM     36  C   UNL     1       8.365   0.437  -2.036  0.00  0.00    +0.000 A 
ATOM     37  C   UNL     1       8.329  -0.725  -1.286  0.00  0.00    +0.002 A 
ATOM     38  C   UNL     1       7.154  -1.122  -0.681  0.00  0.00    +0.025 A 
ENDBRANCH  14  33
TORSDOF 4
