REMARK  Name = ZINC27489251
REMARK  7 active torsions:
REMARK  status: ('A' for Active; 'I' for Inactive)
REMARK    1  A    between atoms: C_1  and  C_2
REMARK    2  A    between atoms: C_2  and  S_3
REMARK    3  A    between atoms: S_3  and  C_4
REMARK    4  A    between atoms: C_17  and  C_20
REMARK    5  A    between atoms: C_24  and  O_27
REMARK    6  A    between atoms: C_25  and  O_26
REMARK    7  A    between atoms: O_27  and  C_28
REMARK                            x       y       z     vdW  Elec       q    Type
REMARK                         _______ _______ _______ _____ _____    ______ ____
ROOT
ATOM      1  C   UNL     1       0.879   6.345   0.052  0.00  0.00    +0.212 A 
ATOM      2  N   UNL     1       0.090   5.686  -0.793  0.00  0.00    -0.184 NA
ATOM      3  C   UNL     1       0.206   4.373  -0.894  0.00  0.00    +0.248 A 
ATOM      4  C   UNL     1       1.163   3.712  -0.093  0.00  0.00    +0.156 A 
ATOM      5  N   UNL     1       1.919   4.427   0.726  0.00  0.00    -0.141 NA
ATOM      6  N   UNL     1       1.776   5.706   0.791  0.00  0.00    -0.122 NA
ATOM      7  C   UNL     1       1.300   2.243  -0.183  0.00  0.00    +0.028 A 
ATOM      8  C   UNL     1       2.544   1.635  -0.304  0.00  0.00    +0.012 A 
ATOM      9  C   UNL     1       2.632   0.258  -0.361  0.00  0.00    +0.001 A 
ATOM     10  C   UNL     1       1.489  -0.520  -0.298  0.00  0.00    +0.002 A 
ATOM     11  C   UNL     1       0.244   0.071  -0.182  0.00  0.00    +0.024 A 
ATOM     12  C   UNL     1       0.140   1.449  -0.129  0.00  0.00    +0.039 A 
ATOM     13  N   UNL     1      -1.104   2.083  -0.040  0.00  0.00    -0.305 N 
ATOM     14  C   UNL     1      -1.588   2.847  -1.185  0.00  0.00    +0.298 C 
ATOM     15  O   UNL     1      -0.565   3.660  -1.749  0.00  0.00    -0.449 OA
ATOM     16  H   UNL     1      -1.714   2.013   0.873  0.00  0.00    +0.150 HD
ENDROOT
BRANCH  14  17
ATOM     17  C   UNL     1      -2.090   1.891  -2.237  0.00  0.00    +0.057 A 
ATOM     18  C   UNL     1      -1.271   1.529  -3.290  0.00  0.00    +0.028 A 
ATOM     19  C   UNL     1      -1.729   0.652  -4.256  0.00  0.00    +0.022 A 
ATOM     20  C   UNL     1      -3.009   0.134  -4.173  0.00  0.00    +0.064 A 
ATOM     21  C   UNL     1      -3.834   0.493  -3.120  0.00  0.00    +0.163 A 
ATOM     22  C   UNL     1      -3.371   1.371  -2.145  0.00  0.00    +0.167 A 
ATOM     23 BR   UNL     1      -0.603   0.161  -5.694  0.00  0.00    -0.050 Br
BRANCH  22  24
ATOM     24  O   UNL     1      -4.176   1.722  -1.106  0.00  0.00    -0.503 OA
ATOM     25  H   UNL     1      -5.192   1.308  -1.034  0.00  0.00    +0.292 HD
ENDBRANCH  22  24
BRANCH  21  26
ATOM     26  O   UNL     1      -5.092  -0.016  -3.037  0.00  0.00    -0.491 OA
ATOM     27  C   UNL     1      -5.498  -0.916  -4.070  0.00  0.00    +0.277 C 
ENDBRANCH  21  26
ENDBRANCH  14  17
BRANCH   1  28
ATOM     28  S   UNL     1       0.730   8.095   0.191  0.00  0.00    -0.085 S 
BRANCH  28  30
ATOM     29  C   UNL     1       2.058   9.922   1.727  0.00  0.00    +0.016 C 
ATOM     30  C   UNL     1       2.003   8.421   1.436  0.00  0.00    +0.074 C 
ENDBRANCH  28  30
ENDBRANCH   1  28
TORSDOF 5
