REMARK  Name = ZINC21257039
REMARK  10 active torsions:
REMARK  status: ('A' for Active; 'I' for Inactive)
REMARK    1  A    between atoms: C_1  and  C_2
REMARK    2  A    between atoms: C_2  and  O_3
REMARK    3  A    between atoms: O_3  and  C_4
REMARK    4  A    between atoms: C_7  and  C_10
REMARK    5  A    between atoms: C_15  and  C_20
REMARK    6  A    between atoms: C_23  and  O_28
REMARK    7  A    between atoms: C_24  and  O_26
REMARK    8  A    between atoms: O_26  and  C_27
REMARK    9  A    between atoms: O_28  and  C_29
REMARK   10  A    between atoms: C_29  and  C_30
REMARK                            x       y       z     vdW  Elec       q    Type
REMARK                         _______ _______ _______ _____ _____    ______ ____
ROOT
ATOM      1  C   UNL     1       5.766  -1.730  -0.131  0.00  0.00    +0.136 C 
ATOM      2  C   UNL     1       4.420  -1.045  -0.159  0.00  0.00    +0.036 C 
ATOM      3  C   UNL     1       3.742  -0.595   0.910  0.00  0.00    +0.017 C 
ATOM      4  C   UNL     1       2.392   0.081   0.736  0.00  0.00    +0.059 C 
ATOM      5  C   UNL     1       2.352   0.834  -0.592  0.00  0.00    +0.032 C 
ATOM      6  C   UNL     1       2.585  -0.186  -1.713  0.00  0.00    +0.088 C 
ATOM      7  C   UNL     1       3.889  -0.883  -1.460  0.00  0.00    +0.163 C 
ATOM      8  O   UNL     1       4.511  -1.324  -2.407  0.00  0.00    -0.292 OA
ATOM      9  N   UNL     1       4.157  -0.704   2.199  0.00  0.00    -0.316 N 
ATOM     10  C   UNL     1       5.436  -0.397   2.652  0.00  0.00    +0.052 A 
ATOM     11  C   UNL     1       5.676   0.609   3.571  0.00  0.00    +0.025 A 
ATOM     12  C   UNL     1       6.964   0.806   4.041  0.00  0.00    +0.002 A 
ATOM     13  C   UNL     1       7.998   0.006   3.592  0.00  0.00    +0.002 A 
ATOM     14  C   UNL     1       7.763  -0.985   2.655  0.00  0.00    +0.025 A 
ATOM     15  C   UNL     1       6.479  -1.173   2.168  0.00  0.00    +0.049 A 
ATOM     16  N   UNL     1       6.207  -2.125   1.189  0.00  0.00    -0.331 N 
ATOM     17  H   UNL     1       3.460  -1.059   2.973  0.00  0.00    +0.152 HD
ATOM     18  H   UNL     1       6.333  -3.191   1.431  0.00  0.00    +0.147 HD
ENDROOT
BRANCH   1  22
ATOM     19  C   UNL     1       8.675   0.927  -1.786  0.00  0.00    +0.121 A 
ATOM     20  C   UNL     1       8.397  -0.278  -2.414  0.00  0.00    +0.046 A 
ATOM     21  C   UNL     1       7.457  -1.135  -1.877  0.00  0.00    +0.009 A 
ATOM     22  C   UNL     1       6.791  -0.793  -0.715  0.00  0.00    -0.023 A 
ATOM     23  C   UNL     1       7.062   0.410  -0.089  0.00  0.00    +0.009 A 
ATOM     24  C   UNL     1       8.006   1.269  -0.619  0.00  0.00    +0.046 A 
BRANCH  19  25
ATOM     25  O   UNL     1       9.600   1.772  -2.312  0.00  0.00    -0.492 OA
BRANCH  25  27
ATOM     26  C   UNL     1      10.899   3.809  -2.348  0.00  0.00    +0.048 C 
ATOM     27  C   UNL     1       9.834   2.996  -1.611  0.00  0.00    +0.225 C 
ENDBRANCH  25  27
ENDBRANCH  19  25
ENDBRANCH   1  22
BRANCH   5  28
ATOM     28  C   UNL     1       1.006   1.488  -0.769  0.00  0.00    -0.040 A 
ATOM     29  C   UNL     1      -0.139   0.715  -0.794  0.00  0.00    +0.008 A 
ATOM     30  C   UNL     1      -1.375   1.310  -0.961  0.00  0.00    +0.050 A 
ATOM     31  C   UNL     1      -1.470   2.686  -1.093  0.00  0.00    +0.162 A 
ATOM     32  C   UNL     1      -0.317   3.465  -1.067  0.00  0.00    +0.162 A 
ATOM     33  C   UNL     1       0.920   2.861  -0.905  0.00  0.00    +0.053 A 
BRANCH  32  34
ATOM     34  O   UNL     1      -0.403   4.816  -1.201  0.00  0.00    -0.491 OA
ATOM     35  C   UNL     1       0.821   5.551  -1.166  0.00  0.00    +0.277 C 
ENDBRANCH  32  34
BRANCH  31  36
ATOM     36  O   UNL     1      -2.686   3.274  -1.252  0.00  0.00    -0.489 OA
BRANCH  36  37
ATOM     37  C   UNL     1      -3.825   2.412  -1.269  0.00  0.00    +0.226 C 
ATOM     38  C   UNL     1      -5.093   3.248  -1.456  0.00  0.00    +0.048 C 
ENDBRANCH  36  37
ENDBRANCH  31  36
ENDBRANCH   5  28
TORSDOF 7
