REMARK  Name = ZINC42014671
REMARK  3 active torsions:
REMARK  status: ('A' for Active; 'I' for Inactive)
REMARK    1  A    between atoms: C_3  and  N_8
REMARK    2  A    between atoms: C_9  and  C_13
REMARK    3  A    between atoms: C_15  and  N_21
REMARK                            x       y       z     vdW  Elec       q    Type
REMARK                         _______ _______ _______ _____ _____    ______ ____
ROOT
ATOM      1  N   UNL     1       3.643   2.048  -0.135  0.00  0.00    -0.193 N 
ATOM      2  C   UNL     1       4.731   1.831   0.658  0.00  0.00    +0.190 A 
ATOM      3  N   UNL     1       5.551   2.844   0.468  0.00  0.00    -0.108 NA
ATOM      4  N   UNL     1       5.056   3.671  -0.379  0.00  0.00    -0.022 NA
ATOM      5  N   UNL     1       3.908   3.260  -0.796  0.00  0.00    -0.039 NA
ENDROOT
BRANCH   2   6
ATOM      6  C   UNL     1       4.949   0.678   1.559  0.00  0.00    +0.058 A 
ATOM      7  C   UNL     1       3.937   0.268   2.427  0.00  0.00    +0.040 A 
ATOM      8  C   UNL     1       4.147  -0.812   3.267  0.00  0.00    +0.061 A 
ATOM      9  C   UNL     1       5.365  -1.486   3.246  0.00  0.00    +0.147 A 
ATOM     10  C   UNL     1       6.370  -1.080   2.386  0.00  0.00    +0.079 A 
ATOM     11  C   UNL     1       6.167  -0.006   1.539  0.00  0.00    +0.137 A 
ATOM     12  F   UNL     1       7.148   0.385   0.697  0.00  0.00    -0.205 F 
ATOM     13  F   UNL     1       5.567  -2.539   4.067  0.00  0.00    -0.203 F 
BRANCH   8  14
ATOM     14  N   UNL     1       3.133  -1.227   4.140  0.00  0.00    -0.356 N 
ATOM     15  H   UNL     1       2.285  -0.758   4.155  0.00  0.00    +0.142 HD
ATOM     16  H   UNL     1       3.280  -1.984   4.729  0.00  0.00    +0.142 HD
ENDBRANCH   8  14
ENDBRANCH   2   6
BRANCH   1  19
ATOM     17  C   UNL     1       0.128   1.005  -0.447  0.00  0.00    +0.003 A 
ATOM     18  C   UNL     1       1.245   1.808  -0.317  0.00  0.00    +0.028 A 
ATOM     19  C   UNL     1       2.509   1.235  -0.267  0.00  0.00    +0.070 A 
ATOM     20  C   UNL     1       2.647  -0.144  -0.349  0.00  0.00    +0.043 A 
ATOM     21  C   UNL     1       1.526  -0.942  -0.479  0.00  0.00    +0.020 A 
ATOM     22  C   UNL     1       0.268  -0.368  -0.528  0.00  0.00    +0.015 A 
ATOM     23 BR   UNL     1       1.713  -2.821  -0.591  0.00  0.00    -0.050 Br
ENDBRANCH   1  19
TORSDOF 3
