REMARK  Name = ZINC39948780
REMARK  9 active torsions:
REMARK  status: ('A' for Active; 'I' for Inactive)
REMARK    1  A    between atoms: C_1  and  C_2
REMARK    2  A    between atoms: N_8  and  C_9
REMARK    3  A    between atoms: C_9  and  C_10
REMARK    4  A    between atoms: C_11  and  C_21
REMARK    5  A    between atoms: N_23  and  N_24
REMARK    6  A    between atoms: C_25  and  C_26
REMARK    7  A    between atoms: C_29  and  C_32
REMARK    8  A    between atoms: C_32  and  O_34
REMARK    9  A    between atoms: O_34  and  C_35
REMARK                            x       y       z     vdW  Elec       q    Type
REMARK                         _______ _______ _______ _____ _____    ______ ____
ROOT
ATOM      1  C   UNL     1       1.710  -0.831   2.862  0.00  0.00    +0.063 A 
ATOM      2  C   UNL     1       1.679  -0.110   4.022  0.00  0.00    +0.170 A 
ATOM      3  N   UNL     1       1.871  -0.952   5.052  0.00  0.00    -0.124 NA
ATOM      4  N   UNL     1       2.021  -2.151   4.607  0.00  0.00    -0.058 NA
ATOM      5  N   UNL     1       1.919  -2.120   3.209  0.00  0.00    -0.194 N 
ATOM      6  C   UNL     1       2.017  -3.213   2.341  0.00  0.00    +0.240 A 
ATOM      7  C   UNL     1       2.238  -4.607   2.737  0.00  0.00    +0.206 A 
ATOM      8  N   UNL     1       2.272  -5.340   1.658  0.00  0.00    -0.032 NA
ATOM      9  O   UNL     1       2.082  -4.483   0.546  0.00  0.00    -0.239 OA
ATOM     10  N   UNL     1       1.922  -3.166   1.042  0.00  0.00    -0.027 NA
ATOM     11  N   UNL     1       2.385  -5.069   4.040  0.00  0.00    -0.337 N 
ATOM     12  H   UNL     1       2.345  -4.446   4.783  0.00  0.00    +0.144 HD
ATOM     13  H   UNL     1       2.528  -6.014   4.207  0.00  0.00    +0.144 HD
ENDROOT
BRANCH   2  14
ATOM     14  C   UNL     1       1.470   1.346   4.127  0.00  0.00    +0.285 C 
ATOM     15  O   UNL     1       1.306   2.011   3.121  0.00  0.00    -0.267 OA
ATOM     16  N   UNL     1       1.461   1.940   5.336  0.00  0.00    -0.202 N 
ATOM     17  H   UNL     1       1.591   1.410   6.138  0.00  0.00    +0.178 HD
BRANCH  16  18
ATOM     18  N   UNL     1       1.262   3.324   5.436  0.00  0.00    -0.187 NA
ATOM     19  C   UNL     1       1.371   3.914   6.587  0.00  0.00    +0.138 C 
BRANCH  19  20
ATOM     20  C   UNL     1       2.140   3.279   7.671  0.00  0.00    -0.005 A 
ATOM     21  C   UNL     1       2.024   3.753   8.982  0.00  0.00    +0.010 A 
ATOM     22  C   UNL     1       2.737   3.163   9.987  0.00  0.00    +0.015 A 
ATOM     23  C   UNL     1       3.583   2.086   9.705  0.00  0.00    +0.059 A 
ATOM     24  C   UNL     1       3.699   1.612   8.395  0.00  0.00    +0.015 A 
ATOM     25  C   UNL     1       2.982   2.197   7.390  0.00  0.00    +0.010 A 
BRANCH  23  26
ATOM     26  C   UNL     1       4.354   1.450  10.790  0.00  0.00    +0.339 C 
ATOM     27  O   UNL     1       4.253   1.862  11.929  0.00  0.00    -0.245 OA
BRANCH  26  28
ATOM     28  O   UNL     1       5.169   0.412  10.519  0.00  0.00    -0.464 OA
ATOM     29  C   UNL     1       5.885  -0.155  11.618  0.00  0.00    +0.280 C 
ENDBRANCH  26  28
ENDBRANCH  23  26
ENDBRANCH  19  20
ENDBRANCH  16  18
ENDBRANCH   2  14
BRANCH   1  30
ATOM     30  C   UNL     1       1.539  -0.293   1.465  0.00  0.00    -0.019 C 
BRANCH  30  37
ATOM     31  C   UNL     1       0.501   1.741  -0.170  0.00  0.00    -0.013 C 
ATOM     32  C   UNL     1      -0.064   0.320  -0.209  0.00  0.00    -0.071 C 
ATOM     33  C   UNL     1      -1.554   0.373  -0.554  0.00  0.00    -0.016 C 
ATOM     34  C   UNL     1      -2.114  -1.052  -0.593  0.00  0.00    -0.003 C 
ATOM     35  C   UNL     1      -1.855  -1.729   0.756  0.00  0.00    -0.019 C 
ATOM     36  C   UNL     1      -0.354  -1.704   1.053  0.00  0.00    -0.078 C 
ATOM     37  N   UNL     1       0.116  -0.314   1.103  0.00  0.00    +0.385 N 
ATOM     38  H   UNL     1      -0.413   0.194   1.796  0.00  0.00    -0.081 HD
ENDBRANCH  30  37
ENDBRANCH   1  30
TORSDOF 7
