REMARK  Name = ZINC33810534
REMARK  8 active torsions:
REMARK  status: ('A' for Active; 'I' for Inactive)
REMARK    1  A    between atoms: C_1  and  C_2
REMARK    2  A    between atoms: C_2  and  C_3
REMARK    3  A    between atoms: C_3  and  S_4
REMARK    4  A    between atoms: S_4  and  C_5
REMARK    5  A    between atoms: C_12  and  C_24
REMARK    6  A    between atoms: C_18  and  C_22
REMARK    7  A    between atoms: C_18  and  C_23
REMARK    8  A    between atoms: C_28  and  O_30
REMARK                            x       y       z     vdW  Elec       q    Type
REMARK                         _______ _______ _______ _____ _____    ______ ____
ROOT
ATOM      1  C   UNL     1      -3.357   0.087   3.588  0.00  0.00    +0.171 A 
ATOM      2  N   UNL     1      -3.766   0.665   2.424  0.00  0.00    -0.208 NA
ATOM      3  C   UNL     1      -3.108   0.392   1.253  0.00  0.00    +0.135 A 
ATOM      4  C   UNL     1      -2.046  -0.457   1.269  0.00  0.00    +0.069 A 
ATOM      5  C   UNL     1      -1.656  -1.038   2.494  0.00  0.00    +0.258 A 
ATOM      6  O   UNL     1      -0.708  -1.809   2.536  0.00  0.00    -0.267 OA
ATOM      7  N   UNL     1      -2.332  -0.740   3.615  0.00  0.00    -0.302 N 
ATOM      8  C   UNL     1      -1.293  -0.775   0.010  0.00  0.00    +0.092 C 
ATOM      9  C   UNL     1      -2.093  -0.408  -1.214  0.00  0.00    +0.024 C 
ATOM     10  C   UNL     1      -3.143   0.436  -1.131  0.00  0.00    +0.017 C 
ATOM     11  N   UNL     1      -3.515   0.970   0.073  0.00  0.00    -0.302 N 
ATOM     12  C   UNL     1      -3.932   0.820  -2.359  0.00  0.00    +0.058 C 
ATOM     13  C   UNL     1      -3.921  -0.338  -3.360  0.00  0.00    -0.023 C 
ATOM     14  C   UNL     1      -2.465  -0.663  -3.710  0.00  0.00    +0.086 C 
ATOM     15  C   UNL     1      -1.714  -0.973  -2.444  0.00  0.00    +0.162 C 
ATOM     16  O   UNL     1      -0.760  -1.725  -2.486  0.00  0.00    -0.292 OA
ATOM     17  C   UNL     1      -4.585  -1.565  -2.733  0.00  0.00    +0.011 C 
ATOM     18  C   UNL     1      -4.680   0.069  -4.624  0.00  0.00    +0.011 C 
ATOM     19  H   UNL     1      -4.147   1.870   0.091  0.00  0.00    +0.153 HD
ATOM     20  H   UNL     1      -2.018  -1.196   4.565  0.00  0.00    +0.171 HD
ENDROOT
BRANCH   8  21
ATOM     21  C   UNL     1       0.002  -0.004   0.002  0.00  0.00    -0.032 A 
ATOM     22  C   UNL     1      -0.017   1.379   0.010  0.00  0.00    +0.005 A 
ATOM     23  C   UNL     1       1.170   2.088   0.002  0.00  0.00    +0.004 A 
ATOM     24  C   UNL     1       2.377   1.417  -0.013  0.00  0.00    +0.045 A 
ATOM     25  C   UNL     1       2.399   0.031  -0.020  0.00  0.00    +0.117 A 
ATOM     26  C   UNL     1       1.207  -0.679  -0.013  0.00  0.00    +0.050 A 
BRANCH  25  27
ATOM     27  O   UNL     1       3.586  -0.632  -0.034  0.00  0.00    -0.507 OA
ATOM     28  H   UNL     1       3.601  -1.732  -0.040  0.00  0.00    +0.292 HD
ENDBRANCH  25  27
ENDBRANCH   8  21
BRANCH   1  29
ATOM     29  S   UNL     1      -4.214   0.452   5.083  0.00  0.00    -0.088 S 
BRANCH  29  30
ATOM     30  C   UNL     1      -3.264  -0.560   6.245  0.00  0.00    +0.077 C 
BRANCH  30  32
ATOM     31  C   UNL     1      -3.039  -1.254   8.634  0.00  0.00    +0.004 C 
ATOM     32  C   UNL     1      -3.842  -0.399   7.652  0.00  0.00    +0.008 C 
ENDBRANCH  30  32
ENDBRANCH  29  30
ENDBRANCH   1  29
TORSDOF 5
