REMARK  Name = ZINC18227707
REMARK  6 active torsions:
REMARK  status: ('A' for Active; 'I' for Inactive)
REMARK    1  A    between atoms: C_1  and  C_2
REMARK    2  A    between atoms: C_2  and  C_3
REMARK    3  A    between atoms: C_3  and  C_4
REMARK    4  A    between atoms: C_4  and  N_5
REMARK    5  A    between atoms: C_13  and  C_14
REMARK    6  A    between atoms: N_15  and  N_16
REMARK                            x       y       z     vdW  Elec       q    Type
REMARK                         _______ _______ _______ _____ _____    ______ ____
ROOT
ATOM      1  C   UNL     1       3.763  -2.589  -1.532  0.00  0.00    +0.176 C 
ATOM      2  N   UNL     1       5.014  -2.858  -1.764  0.00  0.00    -0.185 NA
ENDROOT
BRANCH   2   3
ATOM      3  N   UNL     1       5.964  -2.703  -0.747  0.00  0.00    -0.206 N 
ATOM      4  C   UNL     1       7.292  -2.989  -0.993  0.00  0.00    +0.214 A 
ATOM      5  N   UNL     1       8.301  -2.880  -0.079  0.00  0.00    -0.325 N 
ATOM      6  H   UNL     1       8.213  -2.592   0.844  0.00  0.00    +0.169 HD
ATOM      7  C   UNL     1       9.473  -3.256  -0.713  0.00  0.00    +0.067 A 
ATOM      8  C   UNL     1      10.797  -3.349  -0.312  0.00  0.00    +0.028 A 
ATOM      9  C   UNL     1      11.758  -3.769  -1.208  0.00  0.00    +0.002 A 
ATOM     10  C   UNL     1      11.409  -4.099  -2.510  0.00  0.00    +0.002 A 
ATOM     11  C   UNL     1      10.100  -4.013  -2.925  0.00  0.00    +0.030 A 
ATOM     12  C   UNL     1       9.114  -3.589  -2.030  0.00  0.00    +0.091 A 
ATOM     13  N   UNL     1       7.772  -3.410  -2.137  0.00  0.00    -0.213 NA
ATOM     14  H   UNL     1       5.689  -2.395   0.131  0.00  0.00    +0.177 HD
ENDBRANCH   2   3
BRANCH   1  23
ATOM     15  N   UNL     1       1.425  -2.500  -2.470  0.00  0.00    -0.323 N 
ATOM     16  C   UNL     1       0.841  -2.769  -3.694  0.00  0.00    +0.069 A 
ATOM     17  C   UNL     1      -0.458  -2.700  -4.176  0.00  0.00    +0.028 A 
ATOM     18  C   UNL     1      -0.721  -3.048  -5.485  0.00  0.00    +0.002 A 
ATOM     19  C   UNL     1       0.304  -3.467  -6.321  0.00  0.00    +0.002 A 
ATOM     20  C   UNL     1       1.589  -3.542  -5.865  0.00  0.00    +0.030 A 
ATOM     21  C   UNL     1       1.881  -3.193  -4.541  0.00  0.00    +0.090 A 
ATOM     22  N   UNL     1       3.026  -3.165  -3.818  0.00  0.00    -0.227 NA
ATOM     23  C   UNL     1       2.767  -2.752  -2.598  0.00  0.00    +0.154 A 
BRANCH  15  24
ATOM     24  C   UNL     1       0.739  -2.027  -1.265  0.00  0.00    +0.124 C 
BRANCH  24  25
ATOM     25  C   UNL     1       0.718  -0.497  -1.257  0.00  0.00    +0.021 C 
BRANCH  25  27
ATOM     26  C   UNL     1      -0.019   1.526   0.010  0.00  0.00    +0.004 C 
ATOM     27  C   UNL     1       0.002  -0.004   0.002  0.00  0.00    -0.002 C 
ENDBRANCH  25  27
ENDBRANCH  24  25
ENDBRANCH  15  24
ENDBRANCH   1  23
TORSDOF 5
