REMARK  Name = ZINC00891621
REMARK  5 active torsions:
REMARK  status: ('A' for Active; 'I' for Inactive)
REMARK    1  A    between atoms: C_1  and  C_2
REMARK    2  A    between atoms: C_2  and  O_3
REMARK    3  A    between atoms: O_3  and  C_4
REMARK    4  A    between atoms: C_10  and  N_25
REMARK    5  A    between atoms: C_11  and  C_17
REMARK                            x       y       z     vdW  Elec       q    Type
REMARK                         _______ _______ _______ _____ _____    ______ ____
ROOT
ATOM      1  C   UNL     1      11.166   2.703   1.257  0.00  0.00    +0.123 A 
ATOM      2  C   UNL     1      11.514   1.351   1.323  0.00  0.00    +0.046 A 
ATOM      3  C   UNL     1      10.570   0.375   1.376  0.00  0.00    +0.013 A 
ATOM      4  C   UNL     1       9.206   0.727   1.365  0.00  0.00    +0.001 A 
ATOM      5  C   UNL     1       8.199  -0.238   1.418  0.00  0.00    +0.022 A 
ATOM      6  C   UNL     1       6.855   0.179   1.404  0.00  0.00    +0.030 A 
ATOM      7  C   UNL     1       5.661  -0.656   1.458  0.00  0.00    +0.053 A 
ATOM      8  C   UNL     1       4.431  -0.043   1.429  0.00  0.00    +0.097 A 
ATOM      9  S   UNL     1       4.830   1.691   1.341  0.00  0.00    -0.062 S 
ATOM     10  C   UNL     1       6.605   1.576   1.336  0.00  0.00    +0.111 A 
ATOM     11  N   UNL     1       7.549   2.484   1.286  0.00  0.00    -0.239 NA
ATOM     12  C   UNL     1       8.840   2.143   1.296  0.00  0.00    +0.076 A 
ATOM     13  C   UNL     1       9.860   3.105   1.243  0.00  0.00    +0.074 A 
ENDROOT
BRANCH   8  14
ATOM     14  C   UNL     1       3.149  -0.645   1.467  0.00  0.00    +0.255 C 
ATOM     15  O   UNL     1       2.906  -1.506   2.293  0.00  0.00    -0.269 OA
ATOM     16  N   UNL     1       2.200  -0.267   0.588  0.00  0.00    -0.297 N 
ATOM     17  C   UNL     1       0.897  -0.946   0.555  0.00  0.00    +0.108 C 
ATOM     18  C   UNL     1       0.625  -1.419  -0.877  0.00  0.00    +0.019 C 
ATOM     19  C   UNL     1       0.739  -0.230  -1.833  0.00  0.00    +0.003 C 
ATOM     20  C   UNL     1       2.158   0.340  -1.775  0.00  0.00    +0.019 C 
ATOM     21  C   UNL     1       2.448   0.833  -0.353  0.00  0.00    +0.108 C 
ENDBRANCH   8  14
BRANCH   7  22
ATOM     22  N   UNL     1       5.763  -2.037   1.532  0.00  0.00    -0.356 N 
ATOM     23  H   UNL     1       4.962  -2.582   1.564  0.00  0.00    +0.142 HD
ATOM     24  H   UNL     1       6.637  -2.458   1.552  0.00  0.00    +0.142 HD
ENDBRANCH   7  22
BRANCH   1  25
ATOM     25  O   UNL     1      12.148   3.639   1.206  0.00  0.00    -0.492 OA
BRANCH  25  27
ATOM     26  C   UNL     1      14.455   4.357   1.159  0.00  0.00    +0.048 C 
ATOM     27  C   UNL     1      13.496   3.166   1.223  0.00  0.00    +0.225 C 
ENDBRANCH  25  27
ENDBRANCH   1  25
TORSDOF 4
