REMARK  Name = ZINC32529283
REMARK  14 active torsions:
REMARK  status: ('A' for Active; 'I' for Inactive)
REMARK    1  A    between atoms: C_1  and  C_2
REMARK    2  A    between atoms: C_4  and  C_34
REMARK    3  A    between atoms: C_8  and  C_33
REMARK    4  A    between atoms: C_10  and  S_12
REMARK    5  A    between atoms: S_12  and  C_13
REMARK    6  A    between atoms: C_13  and  C_15
REMARK    7  A    between atoms: C_13  and  C_16
REMARK    8  A    between atoms: N_18  and  C_19
REMARK    9  A    between atoms: C_22  and  S_25
REMARK   10  A    between atoms: S_25  and  N_28
REMARK   11  A    between atoms: N_28  and  C_29
REMARK   12  A    between atoms: C_29  and  C_30
REMARK   13  A    between atoms: C_30  and  C_31
REMARK   14  A    between atoms: C_30  and  C_32
REMARK                            x       y       z     vdW  Elec       q    Type
REMARK                         _______ _______ _______ _____ _____    ______ ____
ROOT
ATOM      1  C   UNL     1      -2.806   4.216   5.426  0.00  0.00    +0.230 C 
ATOM      2  O   UNL     1      -2.000   4.979   4.938  0.00  0.00    -0.274 OA
ATOM      3  N   UNL     1      -3.077   3.043   4.819  0.00  0.00    -0.285 N 
ATOM      4  H   UNL     1      -3.870   2.390   5.214  0.00  0.00    +0.155 HD
ENDROOT
BRANCH   3   5
ATOM      5  C   UNL     1      -2.351   2.657   3.688  0.00  0.00    +0.034 A 
ATOM      6  C   UNL     1      -1.014   3.011   3.565  0.00  0.00    +0.025 A 
ATOM      7  C   UNL     1      -0.299   2.627   2.447  0.00  0.00    +0.030 A 
ATOM      8  C   UNL     1      -0.914   1.891   1.451  0.00  0.00    +0.105 A 
ATOM      9  C   UNL     1      -2.247   1.541   1.568  0.00  0.00    +0.030 A 
ATOM     10  C   UNL     1      -2.965   1.917   2.686  0.00  0.00    +0.025 A 
BRANCH   8  11
ATOM     11  S   UNL     1       0.001   1.403   0.026  0.00  0.00    +0.058 S 
ATOM     12  O   UNL     1       1.076   2.324  -0.101  0.00  0.00    -0.153 OA
ATOM     13  O   UNL     1      -0.946   1.190  -1.011  0.00  0.00    -0.153 OA
BRANCH  11  14
ATOM     14  N   UNL     1       0.678  -0.071   0.360  0.00  0.00    -0.190 NA
ATOM     15  H   UNL     1       1.754  -0.131   0.580  0.00  0.00    +0.148 HD
BRANCH  14  16
ATOM     16  C   UNL     1      -0.180  -1.239   0.574  0.00  0.00    +0.109 C 
BRANCH  16  17
ATOM     17  C   UNL     1       0.663  -2.513   0.490  0.00  0.00    -0.002 C 
ATOM     18  C   UNL     1      -0.206  -3.724   0.837  0.00  0.00    +0.008 C 
ATOM     19  C   UNL     1       1.212  -2.669  -0.930  0.00  0.00    +0.008 C 
ENDBRANCH  16  17
ENDBRANCH  14  16
ENDBRANCH  11  14
ENDBRANCH   8  11
ENDBRANCH   3   5
BRANCH   1  20
ATOM     20  C   UNL     1      -3.504   4.578   6.712  0.00  0.00    +0.136 C 
ATOM     21  C   UNL     1      -4.905   5.108   6.399  0.00  0.00    +0.029 C 
BRANCH  20  22
ATOM     22  S   UNL     1      -2.555   5.855   7.574  0.00  0.00    -0.093 S 
BRANCH  22  32
ATOM     23  C   UNL     1      -7.625   5.467  13.921  0.00  0.00    +0.044 C 
ATOM     24  C   UNL     1      -6.792   5.407  12.667  0.00  0.00    -0.050 A 
ATOM     25  C   UNL     1      -7.144   4.524  11.650  0.00  0.00    +0.008 A 
ATOM     26  C   UNL     1      -6.412   4.445  10.504  0.00  0.00    -0.024 A 
ATOM     27  C   UNL     1      -5.283   5.265  10.340  0.00  0.00    +0.075 A 
ATOM     28  C   UNL     1      -4.927   6.162  11.377  0.00  0.00    +0.004 A 
ATOM     29  C   UNL     1      -5.703   6.217  12.544  0.00  0.00    +0.013 A 
ATOM     30  C   UNL     1      -3.793   6.985  11.213  0.00  0.00    -0.039 A 
ATOM     31  C   UNL     1      -3.083   6.882  10.055  0.00  0.00    +0.038 A 
ATOM     32  C   UNL     1      -3.486   5.974   9.065  0.00  0.00    +0.099 A 
ATOM     33  N   UNL     1      -4.550   5.211   9.223  0.00  0.00    -0.240 NA
ATOM     34  C   UNL     1      -3.379   7.953  12.290  0.00  0.00    +0.044 C 
ATOM     35  C   UNL     1      -6.813   3.482   9.416  0.00  0.00    +0.046 C 
ENDBRANCH  22  32
ENDBRANCH  20  22
ENDBRANCH   1  20
TORSDOF 8
