REMARK  Name = ZINC09117062
REMARK  7 active torsions:
REMARK  status: ('A' for Active; 'I' for Inactive)
REMARK    1  A    between atoms: C_1  and  C_2
REMARK    2  A    between atoms: C_7  and  S_17
REMARK    3  A    between atoms: C_12  and  C_14
REMARK    4  A    between atoms: S_17  and  N_20
REMARK    5  A    between atoms: N_20  and  C_21
REMARK    6  A    between atoms: C_26  and  N_27
REMARK    7  A    between atoms: C_32  and  N_62
REMARK                            x       y       z     vdW  Elec       q    Type
REMARK                         _______ _______ _______ _____ _____    ______ ____
ROOT
ATOM      1  S   UNL     1      -5.049   4.476  -0.973  0.00  0.00    +0.072 S 
ATOM      2  O   UNL     1      -5.457   4.880   0.327  0.00  0.00    -0.150 OA
ATOM      3  O   UNL     1      -5.530   5.106  -2.152  0.00  0.00    -0.150 OA
ENDROOT
BRANCH   1   9
ATOM      4  C   UNL     1      -5.348  -2.773   0.428  0.00  0.00    +0.029 C 
ATOM      5  C   UNL     1      -6.405  -1.697   0.169  0.00  0.00    +0.083 C 
ATOM      6  C   UNL     1      -6.072  -0.422   0.961  0.00  0.00    +0.059 C 
ATOM      7  C   UNL     1      -5.882   0.643  -0.096  0.00  0.00    -0.022 A 
ATOM      8  C   UNL     1      -5.569   1.984   0.016  0.00  0.00    +0.034 A 
ATOM      9  C   UNL     1      -5.447   2.766  -1.117  0.00  0.00    +0.109 A 
ATOM     10  C   UNL     1      -5.645   2.203  -2.365  0.00  0.00    +0.030 A 
ATOM     11  C   UNL     1      -5.952   0.864  -2.482  0.00  0.00    +0.026 A 
ATOM     12  C   UNL     1      -6.077   0.068  -1.341  0.00  0.00    +0.040 A 
ATOM     13  N   UNL     1      -6.383  -1.292  -1.239  0.00  0.00    -0.268 N 
ATOM     14  C   UNL     1      -6.623  -2.111  -2.282  0.00  0.00    +0.223 C 
ATOM     15  O   UNL     1      -6.670  -1.661  -3.407  0.00  0.00    -0.275 OA
BRANCH  14  16
ATOM     16  C   UNL     1      -6.832  -3.585  -2.050  0.00  0.00    +0.076 C 
ATOM     17  C   UNL     1      -5.718  -4.535  -2.495  0.00  0.00    +0.013 C 
ATOM     18  C   UNL     1      -7.029  -4.473  -3.281  0.00  0.00    +0.013 C 
ENDBRANCH  14  16
ENDBRANCH   1   9
BRANCH   1  19
ATOM     19  N   UNL     1      -3.398   4.599  -1.010  0.00  0.00    -0.214 N 
ATOM     20  H   UNL     1      -2.918   4.918  -0.231  0.00  0.00    +0.174 HD
BRANCH  19  21
ATOM     21  C   UNL     1      -2.696   4.242  -2.168  0.00  0.00    +0.069 A 
ATOM     22  C   UNL     1      -2.554   5.153  -3.204  0.00  0.00    +0.026 A 
ATOM     23  C   UNL     1      -1.860   4.798  -4.346  0.00  0.00    +0.002 A 
ATOM     24  C   UNL     1      -1.306   3.537  -4.459  0.00  0.00    +0.002 A 
ATOM     25  C   UNL     1      -1.438   2.624  -3.429  0.00  0.00    +0.025 A 
ATOM     26  C   UNL     1      -2.136   2.970  -2.282  0.00  0.00    +0.052 A 
BRANCH  26  27
ATOM     27  N   UNL     1      -2.275   2.046  -1.239  0.00  0.00    -0.332 N 
ATOM     28  C   UNL     1      -1.559   2.496  -0.038  0.00  0.00    +0.086 C 
ATOM     29  C   UNL     1      -1.800   1.501   1.100  0.00  0.00    -0.060 C 
ATOM     30  C   UNL     1      -2.058  -0.283  -0.515  0.00  0.00    -0.060 C 
ATOM     31  C   UNL     1      -1.817   0.712  -1.653  0.00  0.00    +0.086 C 
ATOM     32  C   UNL     1      -1.488  -0.802   1.781  0.00  0.00    -0.096 C 
ATOM     33  N   UNL     1      -1.315   0.170   0.680  0.00  0.00    +0.380 N 
ATOM     34  H   UNL     1      -0.317   0.236   0.447  0.00  0.00    -0.082 HD
ENDBRANCH  26  27
ENDBRANCH  19  21
ENDBRANCH   1  19
TORSDOF 5
