REMARK  Name = ZINC14468181
REMARK  11 active torsions:
REMARK  status: ('A' for Active; 'I' for Inactive)
REMARK    1  A    between atoms: C_1  and  C_2
REMARK    2  A    between atoms: C_2  and  O_4
REMARK    3  A    between atoms: O_4  and  C_5
REMARK    4  A    between atoms: C_8  and  C_13
REMARK    5  A    between atoms: C_10  and  O_11
REMARK    6  A    between atoms: O_11  and  C_12
REMARK    7  A    between atoms: C_24  and  S_29
REMARK    8  A    between atoms: S_29  and  N_32
REMARK    9  A    between atoms: N_32  and  C_33
REMARK   10  A    between atoms: C_33  and  C_34
REMARK   11  A    between atoms: C_34  and  C_35
REMARK                            x       y       z     vdW  Elec       q    Type
REMARK                         _______ _______ _______ _____ _____    ______ ____
ROOT
ATOM      1  C   UNL     1       1.652   6.228   5.133  0.00  0.00    +0.105 C 
ATOM      2  C   UNL     1       0.440   6.618   4.309  0.00  0.00    +0.029 C 
ATOM      3  C   UNL     1      -0.845   5.956   4.862  0.00  0.00    +0.033 C 
ATOM      4  C   UNL     1      -1.724   5.842   3.630  0.00  0.00    -0.030 C 
ATOM      5  C   UNL     1      -0.996   5.873   2.542  0.00  0.00    -0.023 C 
ATOM      6  C   UNL     1       0.479   6.011   2.895  0.00  0.00    +0.049 C 
ATOM      7  C   UNL     1       1.077   4.630   2.880  0.00  0.00    -0.018 A 
ATOM      8  C   UNL     1       1.022   3.908   1.695  0.00  0.00    +0.034 A 
ATOM      9  C   UNL     1       1.545   2.632   1.627  0.00  0.00    +0.106 A 
ATOM     10  C   UNL     1       2.141   2.063   2.738  0.00  0.00    +0.030 A 
ATOM     11  C   UNL     1       2.207   2.775   3.919  0.00  0.00    +0.025 A 
ATOM     12  C   UNL     1       1.675   4.058   3.988  0.00  0.00    +0.031 A 
ATOM     13  N   UNL     1       1.755   4.765   5.193  0.00  0.00    -0.336 N 
ATOM     14  H   UNL     1       1.874   4.305   6.038  0.00  0.00    +0.147 HD
ENDROOT
BRANCH   1  18
ATOM     15  C   UNL     1       5.180   7.828   3.322  0.00  0.00    +0.173 A 
ATOM     16  C   UNL     1       4.609   6.667   2.827  0.00  0.00    +0.050 A 
ATOM     17  C   UNL     1       3.469   6.152   3.414  0.00  0.00    +0.009 A 
ATOM     18  C   UNL     1       2.896   6.793   4.497  0.00  0.00    -0.023 A 
ATOM     19  C   UNL     1       3.457   7.955   4.993  0.00  0.00    +0.055 A 
ATOM     20  C   UNL     1       4.603   8.474   4.412  0.00  0.00    +0.163 A 
BRANCH  20  21
ATOM     21  O   UNL     1       5.159   9.614   4.901  0.00  0.00    -0.491 OA
ATOM     22  C   UNL     1       4.513  10.222   6.021  0.00  0.00    +0.277 C 
ENDBRANCH  20  21
BRANCH  15  23
ATOM     23  O   UNL     1       6.302   8.336   2.745  0.00  0.00    -0.422 OA
BRANCH  23  25
ATOM     24  C   UNL     1       8.744   8.689   2.831  0.00  0.00    +0.136 C 
ATOM     25  C   UNL     1       7.472   8.061   3.341  0.00  0.00    +0.309 C 
ATOM     26  O   UNL     1       7.507   7.310   4.287  0.00  0.00    -0.251 OA
ENDBRANCH  23  25
ENDBRANCH  15  23
ENDBRANCH   1  18
BRANCH   9  27
ATOM     27  S   UNL     1       1.461   1.728   0.117  0.00  0.00    +0.058 S 
ATOM     28  O   UNL     1       2.511   0.772   0.157  0.00  0.00    -0.153 OA
ATOM     29  O   UNL     1       1.343   2.688  -0.924  0.00  0.00    -0.153 OA
BRANCH  27  30
ATOM     30  N   UNL     1       0.042   0.874   0.137  0.00  0.00    -0.190 NA
ATOM     31  H   UNL     1       0.060  -0.096   0.154  0.00  0.00    +0.148 HD
BRANCH  30  32
ATOM     32  C   UNL     1      -1.240   1.583   0.123  0.00  0.00    +0.110 C 
BRANCH  32  33
ATOM     33  C   UNL     1      -2.360   0.604  -0.234  0.00  0.00    +0.052 C 
BRANCH  33  34
ATOM     34  C   UNL     1      -3.679   1.333  -0.248  0.00  0.00    -0.046 A 
ATOM     35  C   UNL     1      -4.438   1.411   0.904  0.00  0.00    +0.003 A 
ATOM     36  C   UNL     1      -5.645   2.083   0.893  0.00  0.00    +0.000 A 
ATOM     37  C   UNL     1      -6.099   2.669  -0.274  0.00  0.00    +0.000 A 
ATOM     38  C   UNL     1      -5.342   2.587  -1.428  0.00  0.00    +0.000 A 
ATOM     39  C   UNL     1      -4.133   1.918  -1.416  0.00  0.00    +0.003 A 
ENDBRANCH  33  34
ENDBRANCH  32  33
ENDBRANCH  30  32
ENDBRANCH  27  30
ENDBRANCH   9  27
TORSDOF 9
