REMARK  Name = ZINC66824716
REMARK  6 active torsions:
REMARK  status: ('A' for Active; 'I' for Inactive)
REMARK    1  A    between atoms: C_1  and  C_2
REMARK    2  A    between atoms: C_2  and  C_4
REMARK    3  A    between atoms: C_2  and  N_19
REMARK    4  A    between atoms: C_15  and  C_17
REMARK    5  A    between atoms: C_15  and  C_18
REMARK    6  A    between atoms: C_20  and  C_22
REMARK                            x       y       z     vdW  Elec       q    Type
REMARK                         _______ _______ _______ _____ _____    ______ ____
ROOT
ATOM      1  C   UNL     1      -1.412  -0.526   0.013  0.00  0.00    +0.239 C 
ATOM      2  O   UNL     1      -1.790  -1.233   0.922  0.00  0.00    -0.273 OA
ATOM      3  N   UNL     1      -2.256  -0.206  -0.988  0.00  0.00    -0.263 N 
ATOM      4  C   UNL     1      -3.553  -0.684  -0.979  0.00  0.00    +0.165 A 
ATOM      5  N   UNL     1      -4.507  -0.479  -1.872  0.00  0.00    -0.229 NA
ATOM      6  C   UNL     1      -5.705  -0.995  -1.745  0.00  0.00    +0.062 A 
ATOM      7  C   UNL     1      -5.878  -1.775  -0.594  0.00  0.00    +0.079 A 
ATOM      8  S   UNL     1      -4.290  -1.674   0.171  0.00  0.00    -0.049 S 
ATOM      9  C   UNL     1      -7.050  -2.433  -0.235  0.00  0.00    +0.172 C 
ATOM     10  O   UNL     1      -7.127  -3.074   0.794  0.00  0.00    -0.291 OA
ATOM     11  C   UNL     1      -8.227  -2.317  -1.186  0.00  0.00    +0.087 C 
ATOM     12  C   UNL     1      -8.172  -0.967  -1.901  0.00  0.00    -0.022 C 
ATOM     13  C   UNL     1      -6.875  -0.822  -2.702  0.00  0.00    +0.063 C 
ATOM     14  C   UNL     1      -8.249   0.155  -0.863  0.00  0.00    +0.011 C 
ATOM     15  C   UNL     1      -9.365  -0.853  -2.852  0.00  0.00    +0.011 C 
ATOM     16  H   UNL     1      -1.953   0.360  -1.716  0.00  0.00    +0.157 HD
ENDROOT
BRANCH   1  18
ATOM     17  C   UNL     1      -0.019   1.526   0.010  0.00  0.00    +0.038 C 
ATOM     18  C   UNL     1       0.002  -0.004   0.002  0.00  0.00    +0.156 C 
BRANCH  18  19
ATOM     19  N   UNL     1       0.711  -0.489   1.189  0.00  0.00    -0.304 N 
ATOM     20  C   UNL     1       2.054  -0.600   1.174  0.00  0.00    +0.217 C 
ATOM     21  O   UNL     1       2.676  -0.297   0.177  0.00  0.00    -0.275 OA
ATOM     22  H   UNL     1       0.213  -0.731   1.986  0.00  0.00    +0.149 HD
BRANCH  20  23
ATOM     23  C   UNL     1       2.783  -1.099   2.395  0.00  0.00    +0.079 C 
ATOM     24  C   UNL     1       2.512  -0.159   3.573  0.00  0.00    +0.041 C 
ATOM     25  C   UNL     1       3.318  -0.629   4.787  0.00  0.00    +0.160 C 
ATOM     26  O   UNL     1       4.706  -0.664   4.450  0.00  0.00    -0.380 OA
ATOM     27  C   UNL     1       5.026  -1.562   3.385  0.00  0.00    +0.160 C 
ATOM     28  C   UNL     1       4.288  -1.129   2.116  0.00  0.00    +0.041 C 
ENDBRANCH  20  23
ENDBRANCH  18  19
ENDBRANCH   1  18
TORSDOF 3
