REMARK  Name = ZINC66787013
REMARK  4 active torsions:
REMARK  status: ('A' for Active; 'I' for Inactive)
REMARK    1  A    between atoms: C_1  and  C_2
REMARK    2  A    between atoms: C_12  and  C_14
REMARK    3  A    between atoms: C_14  and  C_16
REMARK    4  A    between atoms: C_14  and  N_17
REMARK                            x       y       z     vdW  Elec       q    Type
REMARK                         _______ _______ _______ _____ _____    ______ ____
ROOT
ATOM      1  C   UNL     1      -1.329   1.765   0.834  0.00  0.00    +0.045 C 
ATOM      2  C   UNL     1      -1.385   0.271   0.642  0.00  0.00    -0.029 A 
ATOM      3  C   UNL     1      -2.212  -0.270  -0.322  0.00  0.00    +0.008 A 
ATOM      4  C   UNL     1      -2.263  -1.640  -0.497  0.00  0.00    +0.039 A 
ATOM      5  C   UNL     1      -1.488  -2.470   0.293  0.00  0.00    +0.128 A 
ATOM      6  C   UNL     1      -0.656  -1.934   1.264  0.00  0.00    +0.009 A 
ATOM      7  C   UNL     1      -0.600  -0.559   1.433  0.00  0.00    +0.045 A 
ATOM      8  N   UNL     1       0.242   0.012   2.397  0.00  0.00    -0.269 N 
ATOM      9  C   UNL     1       0.840  -0.856   3.421  0.00  0.00    +0.114 C 
ATOM     10  C   UNL     1       1.361  -2.117   2.720  0.00  0.00    +0.024 C 
ATOM     11  C   UNL     1       0.171  -2.865   2.111  0.00  0.00    +0.041 C 
ATOM     12  C   UNL     1       0.499   1.335   2.385  0.00  0.00    +0.241 C 
ATOM     13  O   UNL     1       0.544   1.934   1.331  0.00  0.00    -0.273 OA
ATOM     14  F   UNL     1      -1.542  -3.809   0.118  0.00  0.00    -0.205 F 
ENDROOT
BRANCH  12  15
ATOM     15  C   UNL     1       0.731   2.070   3.680  0.00  0.00    +0.169 C 
ATOM     16  C   UNL     1      -0.508   1.942   4.568  0.00  0.00    +0.038 C 
BRANCH  15  17
ATOM     17  N   UNL     1       0.988   3.484   3.400  0.00  0.00    -0.212 N 
ATOM     18  C   UNL     1       2.127   4.130   3.731  0.00  0.00    +0.247 C 
ATOM     19  O   UNL     1       3.095   3.669   4.296  0.00  0.00    -0.273 OA
ATOM     20  C   UNL     1       1.937   5.545   3.249  0.00  0.00    +0.113 C 
ATOM     21  C   UNL     1       2.024   6.540   4.414  0.00  0.00    +0.035 C 
ATOM     22  C   UNL     1       3.475   7.082   4.337  0.00  0.00    +0.003 C 
ATOM     23  C   UNL     1       3.727   7.175   2.811  0.00  0.00    +0.003 C 
ATOM     24  C   UNL     1       3.011   5.934   2.231  0.00  0.00    +0.035 C 
ATOM     25  N   UNL     1       0.602   5.551   2.647  0.00  0.00    -0.285 N 
ATOM     26  C   UNL     1       0.124   4.297   2.777  0.00  0.00    +0.310 C 
ATOM     27  O   UNL     1      -0.968   3.945   2.378  0.00  0.00    -0.252 OA
ATOM     28  H   UNL     1       0.153   6.305   2.233  0.00  0.00    +0.151 HD
ENDBRANCH  15  17
ENDBRANCH  12  15
TORSDOF 2
