REMARK  Name = ZINC25383752
REMARK  8 active torsions:
REMARK  status: ('A' for Active; 'I' for Inactive)
REMARK    1  A    between atoms: C_3  and  C_6
REMARK    2  A    between atoms: C_6  and  C_8
REMARK    3  A    between atoms: C_6  and  N_27
REMARK    4  A    between atoms: C_8  and  N_9
REMARK    5  A    between atoms: C_10  and  C_12
REMARK    6  A    between atoms: C_14  and  S_20
REMARK    7  A    between atoms: S_20  and  N_23
REMARK    8  A    between atoms: N_23  and  C_24
REMARK                            x       y       z     vdW  Elec       q    Type
REMARK                         _______ _______ _______ _____ _____    ______ ____
ROOT
ATOM      1  N   UNL     1       0.417   2.348  -3.341  0.00  0.00    -0.313 N 
ATOM      2  C   UNL     1      -0.478   2.677  -4.294  0.00  0.00    +0.246 C 
ATOM      3  O   UNL     1      -1.123   1.808  -4.849  0.00  0.00    -0.270 OA
ATOM      4  H   UNL     1       1.000   3.134  -2.839  0.00  0.00    +0.149 HD
ENDROOT
BRANCH   2   5
ATOM      5  C   UNL     1      -0.676   4.093  -4.663  0.00  0.00    +0.057 A 
ATOM      6  C   UNL     1       0.058   5.094  -4.023  0.00  0.00    +0.044 A 
ATOM      7  C   UNL     1      -0.127   6.414  -4.377  0.00  0.00    +0.124 A 
ATOM      8  C   UNL     1      -1.047   6.750  -5.356  0.00  0.00    +0.069 A 
ATOM      9  C   UNL     1      -1.783   5.764  -5.991  0.00  0.00    +0.042 A 
ATOM     10  C   UNL     1      -1.603   4.438  -5.650  0.00  0.00    +0.055 A 
ATOM     11 CL   UNL     1      -2.526   3.202  -6.447  0.00  0.00    -0.083 Cl
ATOM     12 CL   UNL     1      -1.278   8.415  -5.790  0.00  0.00    -0.081 Cl
BRANCH   7  13
ATOM     13  S   UNL     1       0.805   7.677  -3.575  0.00  0.00    +0.060 S 
ATOM     14  O   UNL     1       1.567   7.037  -2.561  0.00  0.00    -0.153 OA
ATOM     15  O   UNL     1       1.405   8.453  -4.604  0.00  0.00    -0.153 OA
BRANCH  13  16
ATOM     16  N   UNL     1      -0.275   8.667  -2.804  0.00  0.00    -0.187 NA
ATOM     17  H   UNL     1      -0.464   9.673  -3.205  0.00  0.00    +0.148 HD
BRANCH  16  18
ATOM     18  C   UNL     1      -1.124   8.133  -1.736  0.00  0.00    +0.077 C 
ATOM     19  C   UNL     1      -2.500   8.773  -1.542  0.00  0.00    +0.022 C 
ATOM     20  C   UNL     1      -1.386   9.031  -0.526  0.00  0.00    +0.022 C 
ENDBRANCH  16  18
ENDBRANCH  13  16
ENDBRANCH   7  13
ENDBRANCH   2   5
BRANCH   1  21
ATOM     21  C   UNL     1       0.613   0.943  -2.975  0.00  0.00    +0.094 C 
BRANCH  21  22
ATOM     22  C   UNL     1       1.552   0.857  -1.770  0.00  0.00    -0.013 C 
BRANCH  22  23
ATOM     23  N   UNL     1       0.921   1.502  -0.611  0.00  0.00    +0.386 N 
ATOM     24  C   UNL     1       0.822   2.971  -0.808  0.00  0.00    -0.078 C 
ATOM     25  C   UNL     1       0.669   3.548   0.616  0.00  0.00    -0.020 C 
ATOM     26  C   UNL     1       1.289   2.481   1.546  0.00  0.00    -0.020 C 
ATOM     27  C   UNL     1       1.763   1.353   0.605  0.00  0.00    -0.078 C 
ATOM     28  H   UNL     1      -0.062   1.019  -0.510  0.00  0.00    -0.081 HD
ENDBRANCH  22  23
BRANCH  22  31
ATOM     29  C   UNL     1       2.983  -2.640  -1.287  0.00  0.00    +0.008 A 
ATOM     30  C   UNL     1       2.955  -1.312  -1.666  0.00  0.00    +0.009 A 
ATOM     31  C   UNL     1       1.828  -0.590  -1.451  0.00  0.00    -0.022 A 
ATOM     32  S   UNL     1       0.758  -1.796  -0.684  0.00  0.00    -0.103 S 
ATOM     33  C   UNL     1       1.883  -3.183  -0.711  0.00  0.00    +0.045 A 
ENDBRANCH  22  31
ENDBRANCH  21  22
ENDBRANCH   1  21
TORSDOF 8
