REMARK  Name = ZINC39850493
REMARK  8 active torsions:
REMARK  status: ('A' for Active; 'I' for Inactive)
REMARK    1  A    between atoms: C_1  and  C_2
REMARK    2  A    between atoms: C_2  and  C_3
REMARK    3  A    between atoms: C_3  and  N_4
REMARK    4  A    between atoms: C_5  and  C_7
REMARK    5  A    between atoms: C_10  and  C_18
REMARK    6  A    between atoms: C_11  and  C_12
REMARK    7  A    between atoms: C_11  and  C_13
REMARK    8  A    between atoms: N_15  and  O_16
REMARK                            x       y       z     vdW  Elec       q    Type
REMARK                         _______ _______ _______ _____ _____    ______ ____
ROOT
ATOM      1  C   UNL     1       1.385  -4.154   2.227  0.00  0.00    +0.058 C 
ATOM      2  C   UNL     1       2.122  -4.823   1.026  0.00  0.00    +0.018 C 
ATOM      3  C   UNL     1       2.417  -6.262   1.508  0.00  0.00    +0.014 C 
ATOM      4  C   UNL     1       1.838  -6.319   2.954  0.00  0.00    +0.015 C 
ATOM      5  C   UNL     1       2.109  -4.849   3.434  0.00  0.00    -0.010 C 
ATOM      6  C   UNL     1       3.607  -4.539   3.463  0.00  0.00    +0.013 C 
ATOM      7  C   UNL     1       1.436  -4.529   4.770  0.00  0.00    +0.013 C 
ATOM      8  C   UNL     1       0.316  -6.284   2.762  0.00  0.00    +0.065 C 
ATOM      9  N   UNL     1      -0.514  -7.237   2.963  0.00  0.00    -0.096 NA
ATOM     10  C   UNL     1      -0.005  -4.859   2.294  0.00  0.00    +0.071 C 
ATOM     11  C   UNL     1       2.387  -7.432   3.849  0.00  0.00    +0.018 C 
ENDROOT
BRANCH   1  13
ATOM     12  N   UNL     1       0.762  -1.976   1.234  0.00  0.00    -0.315 N 
ATOM     13  C   UNL     1       1.364  -2.647   2.235  0.00  0.00    +0.220 C 
ATOM     14  O   UNL     1       1.890  -2.038   3.143  0.00  0.00    -0.275 OA
ATOM     15  H   UNL     1       0.342  -2.462   0.507  0.00  0.00    +0.149 HD
BRANCH  12  16
ATOM     16  C   UNL     1       0.742  -0.511   1.242  0.00  0.00    +0.104 C 
BRANCH  16  18
ATOM     17  C   UNL     1      -0.019   1.526   0.010  0.00  0.00    +0.005 C 
ATOM     18  C   UNL     1       0.002  -0.004   0.002  0.00  0.00    +0.015 C 
ENDBRANCH  16  18
ENDBRANCH  12  16
ENDBRANCH   1  13
BRANCH   9  19
ATOM     19  O   UNL     1      -1.896  -7.033   2.735  0.00  0.00    -0.409 OA
ATOM     20  H   UNL     1      -2.443  -7.810   2.914  0.00  0.00    +0.328 HD
ENDBRANCH   9  19
TORSDOF 4
