REMARK  Name = ZINC08874903
REMARK  6 active torsions:
REMARK  status: ('A' for Active; 'I' for Inactive)
REMARK    1  A    between atoms: C_4  and  C_7
REMARK    2  A    between atoms: C_7  and  N_62
REMARK    3  A    between atoms: C_18  and  C_21
REMARK    4  A    between atoms: C_24  and  O_27
REMARK    5  A    between atoms: O_27  and  C_28
REMARK    6  A    between atoms: C_28  and  C_29
REMARK                            x       y       z     vdW  Elec       q    Type
REMARK                         _______ _______ _______ _____ _____    ______ ____
ROOT
ATOM      1  C   UNL     1       0.908   5.522   1.453  0.00  0.00    -0.073 C 
ATOM      2  C   UNL     1       0.548   5.940   2.881  0.00  0.00    +0.018 C 
ATOM      3  C   UNL     1       1.619   5.398   3.821  0.00  0.00    -0.027 A 
ATOM      4  C   UNL     1       2.441   4.405   3.408  0.00  0.00    -0.021 A 
ATOM      5  S   UNL     1       3.507   4.091   4.787  0.00  0.00    -0.080 S 
ATOM      6  C   UNL     1       2.875   5.246   5.882  0.00  0.00    +0.080 A 
ATOM      7  C   UNL     1       1.840   5.877   5.173  0.00  0.00    +0.068 A 
ATOM      8  C   UNL     1       1.085   6.943   5.871  0.00  0.00    +0.248 C 
ATOM      9  O   UNL     1       0.097   7.450   5.373  0.00  0.00    -0.270 OA
ATOM     10  N   UNL     1       1.537   7.329   7.082  0.00  0.00    -0.289 N 
ATOM     11  C   UNL     1       2.832   6.930   7.624  0.00  0.00    +0.190 C 
ATOM     12  N   UNL     1       3.206   5.577   7.171  0.00  0.00    -0.316 N 
ATOM     13  C   UNL     1       2.426   3.738   2.068  0.00  0.00    -0.035 C 
ATOM     14  H   UNL     1       0.972   7.904   7.622  0.00  0.00    +0.151 HD
ATOM     15  H   UNL     1       3.662   4.952   7.756  0.00  0.00    +0.149 HD
ATOM     16  N   UNL     1       1.137   4.063   1.412  0.00  0.00    +0.386 N 
ATOM     17  H   UNL     1       0.377   3.592   1.915  0.00  0.00    -0.081 HD
ENDROOT
BRANCH  11  18
ATOM     18  C   UNL     1       3.882   7.910   7.168  0.00  0.00    -0.009 A 
ATOM     19  C   UNL     1       5.195   7.500   7.028  0.00  0.00    +0.010 A 
ATOM     20  C   UNL     1       6.158   8.396   6.605  0.00  0.00    +0.046 A 
ATOM     21  C   UNL     1       5.809   9.710   6.332  0.00  0.00    +0.121 A 
ATOM     22  C   UNL     1       4.492  10.121   6.478  0.00  0.00    +0.046 A 
ATOM     23  C   UNL     1       3.531   9.220   6.896  0.00  0.00    +0.010 A 
BRANCH  21  24
ATOM     24  O   UNL     1       6.755  10.595   5.921  0.00  0.00    -0.487 OA
BRANCH  24  25
ATOM     25  C   UNL     1       8.091  10.103   5.793  0.00  0.00    +0.264 C 
BRANCH  25  26
ATOM     26  C   UNL     1       8.995  11.217   5.331  0.00  0.00    -0.010 A 
ATOM     27  C   UNL     1       9.195  11.430   3.980  0.00  0.00    +0.007 A 
ATOM     28  C   UNL     1      10.020  12.455   3.557  0.00  0.00    +0.000 A 
ATOM     29  C   UNL     1      10.653  13.261   4.485  0.00  0.00    +0.000 A 
ATOM     30  C   UNL     1      10.457  13.045   5.836  0.00  0.00    +0.000 A 
ATOM     31  C   UNL     1       9.627  12.023   6.259  0.00  0.00    +0.007 A 
ENDBRANCH  25  26
ENDBRANCH  24  25
ENDBRANCH  21  24
ENDBRANCH  11  18
BRANCH  16  32
ATOM     32  C   UNL     1       1.151   3.592   0.010  0.00  0.00    -0.043 C 
BRANCH  32  36
ATOM     33  C   UNL     1       1.208  -0.679  -0.014  0.00  0.00    +0.000 A 
ATOM     34  C   UNL     1       0.002  -0.004   0.002  0.00  0.00    +0.000 A 
ATOM     35  C   UNL     1      -0.017   1.378   0.010  0.00  0.00    +0.002 A 
ATOM     36  C   UNL     1       1.171   2.086   0.002  0.00  0.00    -0.064 A 
ATOM     37  C   UNL     1       2.377   1.411  -0.014  0.00  0.00    +0.002 A 
ATOM     38  C   UNL     1       2.396   0.029  -0.021  0.00  0.00    +0.000 A 
ENDBRANCH  32  36
ENDBRANCH  16  32
TORSDOF 6
