REMARK  Name = ZINC48796768
REMARK  5 active torsions:
REMARK  status: ('A' for Active; 'I' for Inactive)
REMARK    1  A    between atoms: C_1  and  O_2
REMARK    2  A    between atoms: O_2  and  C_3
REMARK    3  A    between atoms: C_6  and  C_10
REMARK    4  A    between atoms: C_10  and  C_12
REMARK    5  A    between atoms: C_10  and  N_22
REMARK                            x       y       z     vdW  Elec       q    Type
REMARK                         _______ _______ _______ _____ _____    ______ ____
ROOT
ATOM      1  C   UNL     1       2.505  -2.502  -4.385  0.00  0.00    +0.023 C 
ENDROOT
BRANCH   1   2
ATOM      2  C   UNL     1       3.892  -2.940  -3.990  0.00  0.00    +0.096 A 
ATOM      3  C   UNL     1       5.018  -2.273  -4.279  0.00  0.00    +0.051 A 
ATOM      4  C   UNL     1       6.117  -3.058  -3.705  0.00  0.00    +0.021 A 
ATOM      5  C   UNL     1       7.502  -2.909  -3.661  0.00  0.00    +0.012 A 
ATOM      6  C   UNL     1       8.266  -3.849  -3.026  0.00  0.00    +0.002 A 
ATOM      7  C   UNL     1       7.671  -4.949  -2.427  0.00  0.00    +0.019 A 
ATOM      8  C   UNL     1       6.302  -5.114  -2.460  0.00  0.00    +0.061 A 
ATOM      9  C   UNL     1       5.508  -4.170  -3.100  0.00  0.00    +0.149 A 
ATOM     10  O   UNL     1       4.178  -4.052  -3.291  0.00  0.00    -0.460 OA
ATOM     11 BR   UNL     1       5.508  -6.621  -1.638  0.00  0.00    -0.046 Br
ENDBRANCH   1   2
BRANCH   1  15
ATOM     12  C   UNL     1       0.606  -0.607  -1.056  0.00  0.00    +0.155 A 
ATOM     13  C   UNL     1       1.173   0.160  -2.062  0.00  0.00    +0.049 A 
ATOM     14  C   UNL     1       1.786  -0.455  -3.137  0.00  0.00    +0.006 A 
ATOM     15  C   UNL     1       1.835  -1.835  -3.211  0.00  0.00    -0.052 A 
ATOM     16  C   UNL     1       1.271  -2.604  -2.210  0.00  0.00    +0.044 A 
ATOM     17  C   UNL     1       0.661  -1.994  -1.128  0.00  0.00    +0.165 A 
ATOM     18  F   UNL     1       0.115  -2.744  -0.147  0.00  0.00    -0.202 F 
BRANCH  12  20
ATOM     19  C   UNL     1      -0.017   1.425   0.010  0.00  0.00    +0.277 C 
ATOM     20  O   UNL     1       0.002  -0.004   0.002  0.00  0.00    -0.492 OA
ENDBRANCH  12  20
ENDBRANCH   1  15
BRANCH   1  21
ATOM     21  N   UNL     1       1.720  -3.674  -4.795  0.00  0.00    +0.387 N 
ATOM     22  H   UNL     1       2.168  -4.121  -5.581  0.00  0.00    -0.089 HD
ATOM     23  H   UNL     1       1.661  -4.325  -4.026  0.00  0.00    -0.089 HD
ATOM     24  H   UNL     1       0.791  -3.381  -5.059  0.00  0.00    -0.089 HD
ENDBRANCH   1  21
TORSDOF 4
