REMARK  Name = ZINC33033310
REMARK  8 active torsions:
REMARK  status: ('A' for Active; 'I' for Inactive)
REMARK    1  A    between atoms: C_1  and  N_2
REMARK    2  A    between atoms: N_2  and  C_3
REMARK    3  A    between atoms: C_3  and  C_4
REMARK    4  A    between atoms: C_11  and  C_13
REMARK    5  A    between atoms: C_16  and  N_28
REMARK    6  A    between atoms: C_17  and  N_19
REMARK    7  A    between atoms: N_19  and  S_20
REMARK    8  A    between atoms: S_20  and  C_23
REMARK                            x       y       z     vdW  Elec       q    Type
REMARK                         _______ _______ _______ _____ _____    ______ ____
ROOT
ATOM      1  C   UNL     1      -0.109   0.024  -2.465  0.00  0.00    +0.039 A 
ATOM      2  C   UNL     1       0.089   1.407  -2.474  0.00  0.00    +0.015 A 
ATOM      3  C   UNL     1       0.070   2.099  -3.665  0.00  0.00    +0.026 A 
ATOM      4  C   UNL     1      -0.145   1.424  -4.861  0.00  0.00    +0.054 A 
ATOM      5  C   UNL     1      -0.344   0.041  -4.859  0.00  0.00    +0.096 A 
ATOM      6  C   UNL     1      -0.320  -0.658  -3.667  0.00  0.00    +0.041 A 
ENDROOT
BRANCH   4   7
ATOM      7  N   UNL     1      -0.164   2.128  -6.063  0.00  0.00    -0.332 N 
ATOM      8  C   UNL     1      -1.416   2.694  -6.589  0.00  0.00    +0.086 C 
ATOM      9  C   UNL     1      -1.173   4.166  -6.941  0.00  0.00    -0.063 C 
ATOM     10  N   UNL     1      -0.030   4.267  -7.857  0.00  0.00    +0.381 N 
ATOM     11  C   UNL     1       1.193   3.816  -7.182  0.00  0.00    -0.063 C 
ATOM     12  C   UNL     1       1.069   2.332  -6.840  0.00  0.00    +0.086 C 
ATOM     13  H   UNL     1      -0.198   3.690  -8.668  0.00  0.00    -0.086 HD
ATOM     14  H   UNL     1       0.082   5.227  -8.148  0.00  0.00    -0.086 HD
ENDBRANCH   4   7
BRANCH   1  17
ATOM     15  C   UNL     1      -1.247   1.155  -0.145  0.00  0.00    +0.133 C 
ATOM     16  N   UNL     1      -0.579  -0.146  -0.071  0.00  0.00    -0.292 N 
ATOM     17  C   UNL     1      -0.089  -0.717  -1.189  0.00  0.00    +0.247 C 
ATOM     18  O   UNL     1       0.370  -1.842  -1.147  0.00  0.00    -0.270 OA
BRANCH  16  19
ATOM     19  C   UNL     1      -0.444  -0.828   1.219  0.00  0.00    +0.203 C 
BRANCH  19  20
ATOM     20  C   UNL     1      -1.642  -1.712   1.448  0.00  0.00    +0.233 C 
ATOM     21  O   UNL     1      -2.522  -1.768   0.615  0.00  0.00    -0.274 OA
ATOM     22  N   UNL     1      -1.736  -2.442   2.577  0.00  0.00    -0.300 N 
ATOM     23  C   UNL     1      -0.749  -2.464   3.667  0.00  0.00    +0.108 C 
ATOM     24  C   UNL     1      -1.264  -3.456   4.731  0.00  0.00    +0.020 C 
ATOM     25  C   UNL     1      -2.230  -4.362   3.923  0.00  0.00    +0.020 C 
ATOM     26  C   UNL     1      -2.847  -3.344   2.927  0.00  0.00    +0.108 C 
ENDBRANCH  19  20
ENDBRANCH  16  19
ENDBRANCH   1  17
BRANCH   5  27
ATOM     27  N   UNL     1      -0.562  -0.637  -6.065  0.00  0.00    -0.095 NA
BRANCH  27  28
ATOM     28  S   UNL     1      -0.798  -2.277  -6.062  0.00  0.00    +0.098 S 
ATOM     29  O   UNL     1       0.425  -2.862  -5.635  0.00  0.00    -0.148 OA
ATOM     30  O   UNL     1      -2.029  -2.509  -5.391  0.00  0.00    -0.148 OA
BRANCH  28  31
ATOM     31  C   UNL     1      -1.036  -2.772  -7.736  0.00  0.00    +0.148 A 
ATOM     32  C   UNL     1      -0.115  -3.166  -8.649  0.00  0.00    +0.037 A 
ATOM     33  C   UNL     1      -0.535  -3.514  -9.919  0.00  0.00    +0.010 A 
ATOM     34  C   UNL     1      -1.857  -3.450 -10.214  0.00  0.00    +0.047 A 
ATOM     35  S   UNL     1      -2.554  -2.891  -8.668  0.00  0.00    -0.077 S 
ENDBRANCH  28  31
ENDBRANCH  27  28
ENDBRANCH   5  27
TORSDOF 7
