REMARK  Name = ZINC16860436
REMARK  9 active torsions:
REMARK  status: ('A' for Active; 'I' for Inactive)
REMARK    1  A    between atoms: C_1  and  C_2
REMARK    2  A    between atoms: C_5  and  N_9
REMARK    3  A    between atoms: C_6  and  C_8
REMARK    4  A    between atoms: C_10  and  C_12
REMARK    5  A    between atoms: C_12  and  C_14
REMARK    6  A    between atoms: C_12  and  O_15
REMARK    7  A    between atoms: O_15  and  C_16
REMARK    8  A    between atoms: C_16  and  C_18
REMARK    9  A    between atoms: C_19  and  C_31
REMARK                            x       y       z     vdW  Elec       q    Type
REMARK                         _______ _______ _______ _____ _____    ______ ____
ROOT
ATOM      1  C   UNL     1      -0.002   0.003  -0.023  0.00  0.00    +0.347 C 
ATOM      2  O   UNL     1       1.059  -0.591  -0.044  0.00  0.00    -0.244 OA
ENDROOT
BRANCH   1   3
ATOM      3  C   UNL     1      -1.260  -0.746  -0.017  0.00  0.00    +0.102 A 
ATOM      4  C   UNL     1      -1.447  -2.098  -0.037  0.00  0.00    -0.015 A 
ATOM      5  C   UNL     1      -2.742  -2.621  -0.023  0.00  0.00    +0.076 A 
ATOM      6  C   UNL     1      -3.789  -1.671   0.001  0.00  0.00    +0.116 A 
ATOM      7  S   UNL     1      -2.930  -0.118   0.012  0.00  0.00    -0.062 S 
ATOM      8  N   UNL     1      -5.060  -2.041   0.011  0.00  0.00    -0.226 NA
ATOM      9  C   UNL     1      -5.424  -3.300  -0.003  0.00  0.00    +0.114 A 
ATOM     10  N   UNL     1      -4.509  -4.303  -0.023  0.00  0.00    -0.296 N 
ATOM     11  C   UNL     1      -3.183  -4.032  -0.036  0.00  0.00    +0.263 A 
ATOM     12  O   UNL     1      -2.366  -4.936  -0.059  0.00  0.00    -0.267 OA
ATOM     13  C   UNL     1      -5.175  -5.618  -0.026  0.00  0.00    +0.127 C 
ATOM     14  C   UNL     1      -6.631  -5.346  -0.454  0.00  0.00    +0.029 C 
ATOM     15  C   UNL     1      -6.826  -3.883  -0.002  0.00  0.00    +0.076 C 
ATOM     16  C   UNL     1      -0.259  -3.024  -0.071  0.00  0.00    +0.046 C 
ENDBRANCH   1   3
BRANCH   1  17
ATOM     17  O   UNL     1      -0.020   1.352  -0.005  0.00  0.00    -0.448 OA
BRANCH  17  18
ATOM     18  C   UNL     1       1.265   2.028  -0.012  0.00  0.00    +0.259 C 
ATOM     19  C   UNL     1       1.698   2.284  -1.457  0.00  0.00    +0.062 C 
BRANCH  18  21
ATOM     20  N   UNL     1       2.220   4.146   0.837  0.00  0.00    -0.282 N 
ATOM     21  C   UNL     1       1.146   3.342   0.717  0.00  0.00    +0.258 C 
ATOM     22  O   UNL     1       0.082   3.675   1.195  0.00  0.00    -0.271 OA
ATOM     23  H   UNL     1       3.088   3.845   0.525  0.00  0.00    +0.155 HD
BRANCH  20  28
ATOM     24  C   UNL     1       1.667   9.290   3.164  0.00  0.00    +0.044 C 
ATOM     25  C   UNL     1       1.814   7.924   2.546  0.00  0.00    -0.050 A 
ATOM     26  C   UNL     1       0.723   7.313   1.954  0.00  0.00    +0.005 A 
ATOM     27  C   UNL     1       0.855   6.061   1.387  0.00  0.00    +0.024 A 
ATOM     28  C   UNL     1       2.084   5.415   1.411  0.00  0.00    +0.036 A 
ATOM     29  C   UNL     1       3.176   6.028   2.010  0.00  0.00    -0.029 A 
ATOM     30  C   UNL     1       3.039   7.283   2.571  0.00  0.00    +0.008 A 
ATOM     31  C   UNL     1       4.510   5.328   2.044  0.00  0.00    +0.045 C 
ENDBRANCH  20  28
ENDBRANCH  18  21
ENDBRANCH  17  18
ENDBRANCH   1  17
TORSDOF 5
