REMARK  Name = ZINC23550753
REMARK  9 active torsions:
REMARK  status: ('A' for Active; 'I' for Inactive)
REMARK    1  A    between atoms: C_1  and  N_2
REMARK    2  A    between atoms: C_6  and  C_8
REMARK    3  A    between atoms: C_8  and  C_10
REMARK    4  A    between atoms: C_8  and  O_16
REMARK    5  A    between atoms: O_16  and  C_17
REMARK    6  A    between atoms: C_17  and  C_19
REMARK    7  A    between atoms: C_19  and  N_20
REMARK    8  A    between atoms: C_21  and  C_23
REMARK    9  A    between atoms: C_26  and  C_29
REMARK                            x       y       z     vdW  Elec       q    Type
REMARK                         _______ _______ _______ _____ _____    ______ ____
ROOT
ATOM      1  C   UNL     1      -4.703   1.328  -0.704  0.00  0.00    +0.325 C 
ATOM      2  O   UNL     1      -4.739   0.200  -1.135  0.00  0.00    -0.249 OA
ENDROOT
BRANCH   1   3
ATOM      3  O   UNL     1      -3.596   1.777  -0.091  0.00  0.00    -0.446 OA
BRANCH   3   4
ATOM      4  C   UNL     1      -2.482   0.853   0.018  0.00  0.00    +0.292 C 
BRANCH   4  10
ATOM      5  C   UNL     1       3.582   1.747  -0.023  0.00  0.00    +0.129 C 
ATOM      6  N   UNL     1       2.323   0.998  -0.015  0.00  0.00    -0.302 N 
ATOM      7  C   UNL     1       1.147   1.655   0.000  0.00  0.00    +0.306 C 
ATOM      8  O   UNL     1       1.130   2.871   0.007  0.00  0.00    -0.252 OA
ATOM      9  N   UNL     1      -0.011   0.966   0.007  0.00  0.00    -0.237 N 
ATOM     10  C   UNL     1      -1.187   1.624   0.017  0.00  0.00    +0.266 C 
ATOM     11  O   UNL     1      -1.204   2.836   0.023  0.00  0.00    -0.271 OA
ATOM     12  H   UNL     1       2.338  -0.102  -0.021  0.00  0.00    +0.150 HD
ATOM     13  H   UNL     1       0.004  -0.134   0.006  0.00  0.00    +0.159 HD
ENDBRANCH   4  10
BRANCH   4  14
ATOM     14  C   UNL     1      -2.600   0.073   1.302  0.00  0.00    +0.002 A 
ATOM     15  C   UNL     1      -3.108   0.680   2.436  0.00  0.00    +0.008 A 
ATOM     16  C   UNL     1      -3.220  -0.037   3.613  0.00  0.00    +0.000 A 
ATOM     17  C   UNL     1      -2.817  -1.358   3.658  0.00  0.00    +0.000 A 
ATOM     18  C   UNL     1      -2.304  -1.964   2.526  0.00  0.00    +0.000 A 
ATOM     19  C   UNL     1      -2.196  -1.248   1.349  0.00  0.00    +0.008 A 
ENDBRANCH   4  14
ENDBRANCH   3   4
ENDBRANCH   1   3
BRANCH   1  20
ATOM     20  C   UNL     1      -5.900   2.232  -0.854  0.00  0.00    +0.225 C 
BRANCH  20  21
ATOM     21  N   UNL     1      -6.969   1.513  -1.551  0.00  0.00    -0.301 N 
ATOM     22  C   UNL     1      -8.143   2.127  -1.799  0.00  0.00    +0.245 C 
ATOM     23  O   UNL     1      -8.315   3.277  -1.444  0.00  0.00    -0.270 OA
ATOM     24  H   UNL     1      -6.814   0.472  -1.873  0.00  0.00    +0.150 HD
BRANCH  22  25
ATOM     25  C   UNL     1      -9.222   1.402  -2.502  0.00  0.00    +0.037 A 
ATOM     26  C   UNL     1      -9.023   0.083  -2.916  0.00  0.00    +0.013 A 
ATOM     27  C   UNL     1     -10.030  -0.593  -3.567  0.00  0.00    +0.009 A 
ATOM     28  C   UNL     1     -11.245   0.043  -3.823  0.00  0.00    -0.018 A 
ATOM     29  C   UNL     1     -11.443   1.362  -3.415  0.00  0.00    +0.009 A 
ATOM     30  C   UNL     1     -10.439   2.038  -2.760  0.00  0.00    +0.013 A 
BRANCH  28  31
ATOM     31  C   UNL     1     -12.327  -0.684  -4.529  0.00  0.00    -0.018 A 
ATOM     32  C   UNL     1     -13.545  -0.054  -4.782  0.00  0.00    +0.008 A 
ATOM     33  C   UNL     1     -14.547  -0.734  -5.444  0.00  0.00    +0.001 A 
ATOM     34  C   UNL     1     -14.348  -2.042  -5.847  0.00  0.00    +0.000 A 
ATOM     35  C   UNL     1     -13.144  -2.675  -5.595  0.00  0.00    +0.001 A 
ATOM     36  C   UNL     1     -12.133  -2.003  -4.938  0.00  0.00    +0.008 A 
ENDBRANCH  28  31
ENDBRANCH  22  25
ENDBRANCH  20  21
ENDBRANCH   1  20
TORSDOF 8
