REMARK  Name = ZINC08583598
REMARK  8 active torsions:
REMARK  status: ('A' for Active; 'I' for Inactive)
REMARK    1  A    between atoms: C_1  and  C_2
REMARK    2  A    between atoms: C_5  and  C_8
REMARK    3  A    between atoms: C_8  and  N_9
REMARK    4  A    between atoms: C_10  and  C_12
REMARK    5  A    between atoms: C_12  and  S_13
REMARK    6  A    between atoms: S_13  and  C_14
REMARK    7  A    between atoms: C_18  and  C_22
REMARK    8  A    between atoms: N_25  and  C_26
REMARK                            x       y       z     vdW  Elec       q    Type
REMARK                         _______ _______ _______ _____ _____    ______ ____
ROOT
ATOM      1  C   UNL     1       4.876  -8.769  -0.073  0.00  0.00    +0.178 A 
ATOM      2  N   UNL     1       5.739  -7.776  -0.067  0.00  0.00    -0.201 NA
ATOM      3  C   UNL     1       7.072  -8.065  -0.131  0.00  0.00    +0.187 A 
ATOM      4  C   UNL     1       7.505  -9.456  -0.409  0.00  0.00    +0.082 A 
ATOM      5  C   UNL     1       8.858  -9.457  -0.424  0.00  0.00    +0.046 A 
ATOM      6  N   UNL     1       9.269  -8.196  -0.177  0.00  0.00    -0.279 N 
ATOM      7  N   UNL     1       8.155  -7.360   0.001  0.00  0.00    -0.153 NA
ATOM      8  H   UNL     1      10.195  -7.910  -0.130  0.00  0.00    +0.189 HD
ATOM      9  C   UNL     1       9.745 -10.650  -0.672  0.00  0.00    +0.066 C 
ATOM     10  C   UNL     1       6.465 -10.492  -0.596  0.00  0.00    +0.124 A 
ATOM     11  N   UNL     1       6.684 -11.644  -1.171  0.00  0.00    -0.384 N 
ATOM     12  N   UNL     1       5.219 -10.099  -0.082  0.00  0.00    -0.273 N 
ATOM     13  H   UNL     1       7.569 -11.860  -1.504  0.00  0.00    +0.157 HD
ATOM     14  H   UNL     1       5.961 -12.284  -1.266  0.00  0.00    +0.157 HD
ENDROOT
BRANCH  12  15
ATOM     15  C   UNL     1       4.328 -11.058   0.416  0.00  0.00    +0.069 A 
ATOM     16  C   UNL     1       3.405 -11.656  -0.432  0.00  0.00    +0.028 A 
ATOM     17  C   UNL     1       2.527 -12.601   0.061  0.00  0.00    +0.002 A 
ATOM     18  C   UNL     1       2.566 -12.953   1.398  0.00  0.00    +0.002 A 
ATOM     19  C   UNL     1       3.482 -12.359   2.246  0.00  0.00    +0.022 A 
ATOM     20  C   UNL     1       4.368 -11.417   1.757  0.00  0.00    +0.065 A 
ATOM     21 CL   UNL     1       5.525 -10.678   2.820  0.00  0.00    -0.081 Cl
ENDBRANCH  12  15
BRANCH   1  22
ATOM     22  S   UNL     1       3.161  -8.365  -0.061  0.00  0.00    -0.078 S 
BRANCH  22  23
ATOM     23  C   UNL     1       3.137  -6.551  -0.051  0.00  0.00    +0.173 C 
BRANCH  23  25
ATOM     24  N   UNL     1       1.447  -4.746  -0.032  0.00  0.00    -0.311 N 
ATOM     25  C   UNL     1       1.710  -6.067  -0.040  0.00  0.00    +0.224 C 
ATOM     26  O   UNL     1       0.799  -6.867  -0.040  0.00  0.00    -0.275 OA
ATOM     27  H   UNL     1       2.176  -4.106  -0.032  0.00  0.00    +0.149 HD
BRANCH  24  28
ATOM     28  C   UNL     1       0.059  -4.275  -0.021  0.00  0.00    +0.139 C 
BRANCH  28  33
ATOM     29  C   UNL     1      -0.018   1.503   0.010  0.00  0.00    +0.044 C 
ATOM     30  C   UNL     1       0.002  -0.004   0.002  0.00  0.00    -0.050 A 
ATOM     31  C   UNL     1       0.006  -0.689  -1.199  0.00  0.00    +0.003 A 
ATOM     32  C   UNL     1       0.025  -2.071  -1.206  0.00  0.00    +0.005 A 
ATOM     33  C   UNL     1       0.040  -2.768  -0.013  0.00  0.00    -0.030 A 
ATOM     34  C   UNL     1       0.037  -2.084   1.188  0.00  0.00    +0.005 A 
ATOM     35  C   UNL     1       0.023  -0.702   1.195  0.00  0.00    +0.003 A 
ENDBRANCH  28  33
ENDBRANCH  24  28
ENDBRANCH  23  25
ENDBRANCH  22  23
ENDBRANCH   1  22
TORSDOF 6
