REMARK  Name = ZINC12716060
REMARK  10 active torsions:
REMARK  status: ('A' for Active; 'I' for Inactive)
REMARK    1  A    between atoms: C_1  and  C_2
REMARK    2  A    between atoms: C_6  and  N_8
REMARK    3  A    between atoms: N_8  and  C_9
REMARK    4  A    between atoms: C_9  and  C_11
REMARK    5  A    between atoms: C_9  and  C_18
REMARK    6  A    between atoms: N_20  and  C_21
REMARK    7  A    between atoms: C_21  and  C_22
REMARK    8  A    between atoms: C_28  and  C_30
REMARK    9  A    between atoms: C_31  and  N_38
REMARK   10  A    between atoms: C_32  and  C_35
REMARK                            x       y       z     vdW  Elec       q    Type
REMARK                         _______ _______ _______ _____ _____    ______ ____
ROOT
ATOM      1  N   UNL     1      -0.213   5.621   0.203  0.00  0.00    -0.251 N 
ATOM      2  C   UNL     1      -1.140   5.804  -0.758  0.00  0.00    +0.262 C 
ATOM      3  O   UNL     1      -0.906   6.543  -1.697  0.00  0.00    -0.269 OA
ENDROOT
BRANCH   1   9
ATOM      4  C   UNL     1      -1.373   5.361   4.973  0.00  0.00    +0.044 C 
ATOM      5  C   UNL     1      -1.081   4.695   3.653  0.00  0.00    -0.049 A 
ATOM      6  C   UNL     1      -1.113   3.316   3.554  0.00  0.00    +0.003 A 
ATOM      7  C   UNL     1      -0.852   2.701   2.343  0.00  0.00    +0.002 A 
ATOM      8  C   UNL     1      -0.553   3.463   1.230  0.00  0.00    +0.023 A 
ATOM      9  C   UNL     1      -0.515   4.847   1.328  0.00  0.00    +0.038 A 
ATOM     10  C   UNL     1      -0.778   5.462   2.546  0.00  0.00    +0.027 A 
ENDBRANCH   1   9
BRANCH   2  11
ATOM     11  C   UNL     1      -2.429   5.114  -0.673  0.00  0.00    +0.116 A 
ATOM     12  C   UNL     1      -3.516   5.159  -1.548  0.00  0.00    +0.076 A 
ATOM     13  C   UNL     1      -4.575   4.357  -1.124  0.00  0.00    +0.155 A 
ATOM     14  N   UNL     1      -4.459   3.674  -0.007  0.00  0.00    -0.203 NA
ATOM     15  S   UNL     1      -3.025   3.986   0.569  0.00  0.00    +0.019 S 
BRANCH  13  16
ATOM     16  C   UNL     1      -5.813   4.275  -1.921  0.00  0.00    +0.262 C 
ATOM     17  O   UNL     1      -5.914   4.910  -2.954  0.00  0.00    -0.269 OA
ATOM     18  N   UNL     1      -6.833   3.498  -1.505  0.00  0.00    -0.324 N 
ATOM     19  H   UNL     1      -6.752   2.992  -0.682  0.00  0.00    +0.145 HD
ATOM     20  H   UNL     1      -7.647   3.444  -2.030  0.00  0.00    +0.145 HD
ENDBRANCH  13  16
BRANCH  12  21
ATOM     21  N   UNL     1      -3.540   5.917  -2.711  0.00  0.00    -0.355 N 
ATOM     22  H   UNL     1      -2.771   6.457  -2.954  0.00  0.00    +0.142 HD
ATOM     23  H   UNL     1      -4.325   5.908  -3.280  0.00  0.00    +0.142 HD
ENDBRANCH  12  21
ENDBRANCH   2  11
BRANCH   1  24
ATOM     24  C   UNL     1       1.111   6.233   0.069  0.00  0.00    +0.197 C 
BRANCH  24  25
ATOM     25  C   UNL     1       1.917   5.965   1.314  0.00  0.00    -0.018 A 
ATOM     26  C   UNL     1       2.140   4.664   1.725  0.00  0.00    +0.009 A 
ATOM     27  C   UNL     1       2.883   4.416   2.863  0.00  0.00    +0.038 A 
ATOM     28  C   UNL     1       3.394   5.472   3.599  0.00  0.00    +0.123 A 
ATOM     29  C   UNL     1       3.165   6.774   3.190  0.00  0.00    +0.038 A 
ATOM     30  C   UNL     1       2.426   7.019   2.048  0.00  0.00    +0.009 A 
ATOM     31  F   UNL     1       4.117   5.231   4.715  0.00  0.00    -0.205 F 
ENDBRANCH  24  25
BRANCH  24  32
ATOM     32  C   UNL     1       1.819   5.644  -1.124  0.00  0.00    +0.239 C 
ATOM     33  O   UNL     1       1.270   4.796  -1.796  0.00  0.00    -0.273 OA
ATOM     34  N   UNL     1       3.060   6.059  -1.444  0.00  0.00    -0.311 N 
ATOM     35  H   UNL     1       3.499   6.737  -0.906  0.00  0.00    +0.149 HD
BRANCH  34  36
ATOM     36  C   UNL     1       3.748   5.486  -2.603  0.00  0.00    +0.135 C 
BRANCH  36  37
ATOM     37  C   UNL     1       5.131   6.125  -2.743  0.00  0.00    +0.135 C 
ATOM     38  C   UNL     1       5.863   5.529  -3.961  0.00  0.00    +0.035 C 
ATOM     39  C   UNL     1       6.164   6.753  -4.860  0.00  0.00    +0.031 C 
ATOM     40  C   UNL     1       6.076   7.926  -3.850  0.00  0.00    +0.160 C 
ATOM     41  O   UNL     1       4.996   7.537  -2.975  0.00  0.00    -0.375 OA
ENDBRANCH  36  37
ENDBRANCH  34  36
ENDBRANCH  24  32
ENDBRANCH   1  24
TORSDOF 9
