REMARK  Name = ZINC09723286
REMARK  8 active torsions:
REMARK  status: ('A' for Active; 'I' for Inactive)
REMARK    1  A    between atoms: C_1  and  O_2
REMARK    2  A    between atoms: O_2  and  C_3
REMARK    3  A    between atoms: C_3  and  C_4
REMARK    4  A    between atoms: C_4  and  N_5
REMARK    5  A    between atoms: C_9  and  S_24
REMARK    6  A    between atoms: N_14  and  C_15
REMARK    7  A    between atoms: C_15  and  C_17
REMARK    8  A    between atoms: S_24  and  N_27
REMARK                            x       y       z     vdW  Elec       q    Type
REMARK                         _______ _______ _______ _____ _____    ______ ____
ROOT
ATOM      1  N   UNL     1       3.526  -4.974  -0.072  0.00  0.00    -0.319 N 
ATOM      2  C   UNL     1       3.362  -6.346  -0.118  0.00  0.00    +0.058 A 
ATOM      3  C   UNL     1       4.352  -7.340  -0.164  0.00  0.00    +0.029 A 
ATOM      4  C   UNL     1       4.010  -8.671  -0.206  0.00  0.00    +0.030 A 
ATOM      5  C   UNL     1       2.685  -9.072  -0.205  0.00  0.00    +0.106 A 
ATOM      6  C   UNL     1       1.688  -8.113  -0.160  0.00  0.00    +0.045 A 
ATOM      7  C   UNL     1       2.029  -6.782  -0.118  0.00  0.00    +0.041 A 
ATOM      8  S   UNL     1       1.106  -5.267  -0.048  0.00  0.00    -0.052 S 
ATOM      9  C   UNL     1       2.439  -4.158  -0.031  0.00  0.00    +0.167 A 
ATOM     10  N   UNL     1       2.405  -2.830   0.016  0.00  0.00    -0.152 NA
ENDROOT
BRANCH   5  11
ATOM     11  S   UNL     1       2.271 -10.784  -0.260  0.00  0.00    +0.056 S 
ATOM     12  O   UNL     1       0.959 -10.868  -0.799  0.00  0.00    -0.153 OA
ATOM     13  O   UNL     1       3.380 -11.451  -0.847  0.00  0.00    -0.153 OA
BRANCH  11  14
ATOM     14  N   UNL     1       2.175 -11.315   1.306  0.00  0.00    -0.204 NA
ATOM     15  H   UNL     1       1.573 -12.040   1.536  0.00  0.00    +0.144 HD
ATOM     16  H   UNL     1       2.720 -10.901   1.993  0.00  0.00    +0.144 HD
ENDBRANCH  11  14
ENDBRANCH   5  11
BRANCH  10  17
ATOM     17  C   UNL     1       1.232  -2.192   0.051  0.00  0.00    +0.269 C 
ATOM     18  O   UNL     1       0.192  -2.828   0.041  0.00  0.00    -0.268 OA
BRANCH  17  19
ATOM     19  C   UNL     1       1.195  -0.712   0.104  0.00  0.00    +0.040 A 
ATOM     20  C   UNL     1      -0.029  -0.043   0.141  0.00  0.00    +0.013 A 
ATOM     21  C   UNL     1      -0.058   1.335   0.191  0.00  0.00    +0.002 A 
ATOM     22  C   UNL     1       1.124   2.055   0.203  0.00  0.00    +0.015 A 
ATOM     23  C   UNL     1       2.342   1.397   0.166  0.00  0.00    +0.019 A 
ATOM     24  C   UNL     1       2.383   0.018   0.117  0.00  0.00    +0.028 A 
ATOM     25 BR   UNL     1       3.951   2.389   0.183  0.00  0.00    -0.050 Br
ENDBRANCH  17  19
ENDBRANCH  10  17
BRANCH   1  26
ATOM     26  C   UNL     1       4.873  -4.398  -0.068  0.00  0.00    +0.152 C 
BRANCH  26  27
ATOM     27  C   UNL     1       4.879  -3.107  -0.890  0.00  0.00    +0.181 C 
BRANCH  27  29
ATOM     28  C   UNL     1       6.333  -1.408  -1.752  0.00  0.00    +0.194 C 
ATOM     29  O   UNL     1       6.217  -2.617  -0.999  0.00  0.00    -0.381 OA
ENDBRANCH  27  29
ENDBRANCH  26  27
ENDBRANCH   1  26
TORSDOF 7
