REMARK  Name = ZINC63637656
REMARK  1 active torsions:
REMARK  status: ('A' for Active; 'I' for Inactive)
REMARK    1  A    between atoms: C_3  and  C_6
REMARK                            x       y       z     vdW  Elec       q    Type
REMARK                         _______ _______ _______ _____ _____    ______ ____
ROOT
ATOM      1  C   UNL     1       3.761   1.845  -0.024  0.00  0.00    +0.079 C 
ATOM      2  C   UNL     1       4.467   1.351  -1.289  0.00  0.00    +0.149 C 
ATOM      3  C   UNL     1       5.949   1.564  -1.094  0.00  0.00    +0.106 C 
ATOM      4  N   UNL     1       6.663   2.269  -1.916  0.00  0.00    -0.151 NA
ATOM      5  C   UNL     1       6.137   2.881  -2.986  0.00  0.00    +0.331 C 
ATOM      6  O   UNL     1       6.868   3.506  -3.731  0.00  0.00    -0.250 OA
ATOM      7  N   UNL     1       4.823   2.822  -3.255  0.00  0.00    -0.238 N 
ATOM      8  C   UNL     1       3.976   2.114  -2.485  0.00  0.00    +0.231 C 
ATOM      9  O   UNL     1       2.795   2.091  -2.757  0.00  0.00    -0.275 OA
ATOM     10  N   UNL     1       6.505   0.983   0.013  0.00  0.00    -0.307 N 
ATOM     11  C   UNL     1       5.773   0.968   1.179  0.00  0.00    +0.016 C 
ATOM     12  C   UNL     1       4.482   1.344   1.205  0.00  0.00    +0.021 C 
ATOM     13  C   UNL     1       3.741   1.288   2.404  0.00  0.00    +0.161 C 
ATOM     14  O   UNL     1       2.579   1.640   2.401  0.00  0.00    -0.292 OA
ATOM     15  C   UNL     1       4.358   0.800   3.685  0.00  0.00    +0.080 C 
ATOM     16  C   UNL     1       5.478  -0.192   3.354  0.00  0.00    +0.014 C 
ATOM     17  C   UNL     1       6.476   0.511   2.435  0.00  0.00    +0.051 C 
ATOM     18  H   UNL     1       4.475   3.300  -4.025  0.00  0.00    +0.159 HD
ATOM     19  H   UNL     1       7.392   0.592  -0.023  0.00  0.00    +0.153 HD
ENDROOT
BRANCH   1  22
ATOM     20  C   UNL     1      -0.016   1.351   0.009  0.00  0.00    +0.008 A 
ATOM     21  C   UNL     1       1.183   2.038   0.002  0.00  0.00    +0.012 A 
ATOM     22  C   UNL     1       2.343   1.336  -0.013  0.00  0.00    -0.002 A 
ATOM     23  S   UNL     1       1.754  -0.349  -0.017  0.00  0.00    -0.101 S 
ATOM     24  C   UNL     1       0.002  -0.004   0.002  0.00  0.00    +0.045 A 
ENDBRANCH   1  22
TORSDOF 1
