REMARK  Name = ZINC04698370
REMARK  3 active torsions:
REMARK  status: ('A' for Active; 'I' for Inactive)
REMARK    1  A    between atoms: C_9  and  C_14
REMARK    2  A    between atoms: C_19  and  C_22
REMARK    3  A    between atoms: C_19  and  N_57
REMARK                            x       y       z     vdW  Elec       q    Type
REMARK                         _______ _______ _______ _____ _____    ______ ____
ROOT
ATOM      1  C   UNL     1      -4.264  -2.974   1.470  0.00  0.00    +0.247 C 
ATOM      2  O   UNL     1      -5.296  -2.520   1.926  0.00  0.00    -0.270 OA
ATOM      3  N   UNL     1      -3.244  -2.150   1.160  0.00  0.00    -0.298 N 
ATOM      4  C   UNL     1      -2.005  -2.680   0.575  0.00  0.00    +0.107 C 
ATOM      5  C   UNL     1      -0.819  -2.208   1.421  0.00  0.00    +0.016 C 
ATOM      6  C   UNL     1      -0.856  -0.683   1.539  0.00  0.00    +0.015 C 
ATOM      7  C   UNL     1      -2.148  -0.255   2.238  0.00  0.00    +0.016 C 
ATOM      8  C   UNL     1      -3.350  -0.705   1.401  0.00  0.00    +0.107 C 
ENDROOT
BRANCH   1  17
ATOM      9  C   UNL     1      -6.276  -9.381   4.083  0.00  0.00    +0.001 A 
ATOM     10  C   UNL     1      -5.775 -10.463   3.378  0.00  0.00    +0.004 A 
ATOM     11  C   UNL     1      -4.966 -10.270   2.278  0.00  0.00    +0.047 A 
ATOM     12  C   UNL     1      -4.645  -8.982   1.866  0.00  0.00    +0.136 A 
ATOM     13  C   UNL     1      -5.154  -7.889   2.582  0.00  0.00    +0.028 A 
ATOM     14  C   UNL     1      -5.968  -8.095   3.690  0.00  0.00    +0.012 A 
ATOM     15  C   UNL     1      -4.635  -6.688   1.899  0.00  0.00    +0.029 A 
ATOM     16  C   UNL     1      -4.766  -5.324   2.115  0.00  0.00    +0.025 A 
ATOM     17  C   UNL     1      -4.130  -4.429   1.256  0.00  0.00    +0.038 A 
ATOM     18  C   UNL     1      -3.358  -4.913   0.194  0.00  0.00    +0.016 A 
ATOM     19  C   UNL     1      -3.226  -6.256  -0.014  0.00  0.00    +0.047 A 
ATOM     20  C   UNL     1      -3.859  -7.165   0.831  0.00  0.00    +0.136 A 
ATOM     21  O   UNL     1      -3.891  -8.514   0.847  0.00  0.00    -0.455 OA
ENDBRANCH   1  17
BRANCH   6  27
ATOM     22  C   UNL     1       0.340   1.242   2.391  0.00  0.00    -0.077 C 
ATOM     23  C   UNL     1       1.629   1.686   3.087  0.00  0.00    -0.019 C 
ATOM     24  C   UNL     1       1.674   1.089   4.496  0.00  0.00    -0.004 C 
ATOM     25  C   UNL     1       1.582  -0.437   4.399  0.00  0.00    -0.019 C 
ATOM     26  C   UNL     1       0.294  -0.819   3.665  0.00  0.00    -0.077 C 
ATOM     27  N   UNL     1       0.324  -0.234   2.308  0.00  0.00    +0.389 N 
ATOM     28  H   UNL     1       1.175  -0.550   1.827  0.00  0.00    -0.080 HD
ENDBRANCH   6  27
BRANCH   6  29
ATOM     29  C   UNL     1      -0.804  -0.071   0.163  0.00  0.00    +0.200 C 
ATOM     30  O   UNL     1      -1.825   0.302  -0.374  0.00  0.00    -0.278 OA
ATOM     31  N   UNL     1       0.378   0.060  -0.472  0.00  0.00    -0.330 N 
ATOM     32  H   UNL     1       1.185  -0.303  -0.075  0.00  0.00    +0.145 HD
ATOM     33  H   UNL     1       0.422   0.519  -1.326  0.00  0.00    +0.145 HD
ENDBRANCH   6  29
TORSDOF 3
