REMARK  Name = ZINC43735641
REMARK  8 active torsions:
REMARK  status: ('A' for Active; 'I' for Inactive)
REMARK    1  A    between atoms: C_1  and  C_2
REMARK    2  A    between atoms: C_6  and  C_24
REMARK    3  A    between atoms: N_8  and  C_21
REMARK    4  A    between atoms: N_14  and  C_18
REMARK    5  A    between atoms: C_18  and  C_19
REMARK    6  A    between atoms: C_18  and  C_20
REMARK    7  A    between atoms: C_21  and  C_22
REMARK    8  A    between atoms: C_21  and  C_23
REMARK                            x       y       z     vdW  Elec       q    Type
REMARK                         _______ _______ _______ _____ _____    ______ ____
ROOT
ATOM      1  C   UNL     1      -0.001   1.345  -0.103  0.00  0.00    +0.028 C 
ATOM      2  C   UNL     1      -0.129  -0.179  -0.052  0.00  0.00    +0.080 C 
ATOM      3  C   UNL     1      -1.593  -0.562   0.188  0.00  0.00    +0.073 C 
ATOM      4  C   UNL     1      -2.471   0.089  -0.884  0.00  0.00    +0.116 C 
ATOM      5  N   UNL     1      -2.389   1.544  -0.759  0.00  0.00    -0.276 N 
ATOM      6  C   UNL     1      -2.161   2.130   0.425  0.00  0.00    +0.304 C 
ATOM      7  O   UNL     1      -2.120   3.345   0.478  0.00  0.00    -0.253 OA
ATOM      8  N   UNL     1      -1.974   1.430   1.553  0.00  0.00    -0.280 N 
ATOM      9  C   UNL     1      -2.011  -0.053   1.573  0.00  0.00    +0.173 C 
ATOM     10  N   UNL     1      -1.089  -0.584   2.578  0.00  0.00    -0.264 N 
ATOM     11  C   UNL     1       0.186  -0.870   2.274  0.00  0.00    +0.304 C 
ATOM     12  O   UNL     1       0.913  -1.297   3.149  0.00  0.00    -0.253 OA
ATOM     13  N   UNL     1       0.692  -0.703   1.041  0.00  0.00    -0.296 N 
ATOM     14  H   UNL     1      -1.806   1.904   2.383  0.00  0.00    +0.152 HD
ATOM     15  H   UNL     1       1.618  -0.933   0.871  0.00  0.00    +0.151 HD
ENDROOT
BRANCH   4  16
ATOM     16  C   UNL     1      -3.900  -0.353  -0.700  0.00  0.00    -0.027 A 
ATOM     17  C   UNL     1      -4.692   0.251   0.258  0.00  0.00    +0.005 A 
ATOM     18  C   UNL     1      -6.003  -0.154   0.426  0.00  0.00    +0.000 A 
ATOM     19  C   UNL     1      -6.521  -1.164  -0.363  0.00  0.00    +0.000 A 
ATOM     20  C   UNL     1      -5.729  -1.768  -1.322  0.00  0.00    +0.000 A 
ATOM     21  C   UNL     1      -4.420  -1.359  -1.493  0.00  0.00    +0.005 A 
ENDBRANCH   4  16
BRANCH  10  22
ATOM     22  C   UNL     1      -1.567  -0.806   3.944  0.00  0.00    +0.073 C 
ATOM     23  C   UNL     1      -1.415  -2.286   4.303  0.00  0.00    +0.028 C 
ATOM     24  C   UNL     1      -0.745   0.042   4.917  0.00  0.00    +0.028 C 
ENDBRANCH  10  22
BRANCH   5  25
ATOM     25  C   UNL     1      -2.561   2.378  -1.952  0.00  0.00    +0.072 C 
ATOM     26  C   UNL     1      -3.790   3.273  -1.776  0.00  0.00    +0.028 C 
ATOM     27  C   UNL     1      -1.319   3.251  -2.147  0.00  0.00    +0.028 C 
ENDBRANCH   5  25
TORSDOF 3
