REMARK  Name = ZINC06282907
REMARK  9 active torsions:
REMARK  status: ('A' for Active; 'I' for Inactive)
REMARK    1  A    between atoms: C_1  and  O_2
REMARK    2  A    between atoms: O_2  and  C_3
REMARK    3  A    between atoms: C_8  and  C_15
REMARK    4  A    between atoms: C_15  and  C_17
REMARK    5  A    between atoms: C_15  and  N_72
REMARK    6  A    between atoms: N_21  and  C_22
REMARK    7  A    between atoms: C_22  and  C_23
REMARK    8  A    between atoms: C_31  and  C_34
REMARK    9  A    between atoms: C_34  and  C_35
REMARK                            x       y       z     vdW  Elec       q    Type
REMARK                         _______ _______ _______ _____ _____    ______ ____
ROOT
ATOM      1  C   UNL     1       3.644   2.283  -0.019  0.00  0.00    +0.039 C 
ENDROOT
BRANCH   1   7
ATOM      2  C   UNL     1      -1.131  -2.117   0.000  0.00  0.00    +0.122 A 
ATOM      3  C   UNL     1       0.093  -2.784  -0.015  0.00  0.00    +0.046 A 
ATOM      4  C   UNL     1       1.263  -2.083  -0.022  0.00  0.00    +0.013 A 
ATOM      5  C   UNL     1       1.236  -0.683  -0.013  0.00  0.00    -0.001 A 
ATOM      6  C   UNL     1       2.474   0.096  -0.021  0.00  0.00    +0.017 A 
ATOM      7  C   UNL     1       2.387   1.450  -0.012  0.00  0.00    +0.011 A 
ATOM      8  C   UNL     1       1.127   2.082   0.003  0.00  0.00    +0.251 A 
ATOM      9  O   UNL     1       1.073   3.300   0.009  0.00  0.00    -0.268 OA
ATOM     10  N   UNL     1      -0.017   1.375   0.010  0.00  0.00    -0.322 N 
ATOM     11  H   UNL     1      -0.867   1.841   0.016  0.00  0.00    +0.169 HD
ATOM     12  C   UNL     1       0.002  -0.004   0.002  0.00  0.00    +0.053 A 
ATOM     13  C   UNL     1      -1.179  -0.734   0.009  0.00  0.00    +0.072 A 
BRANCH   2  15
ATOM     14  C   UNL     1      -2.169  -4.255  -0.002  0.00  0.00    +0.277 C 
ATOM     15  O   UNL     1      -2.286  -2.831   0.007  0.00  0.00    -0.495 OA
ENDBRANCH   2  15
ENDBRANCH   1   7
BRANCH   1  21
ATOM     16  C   UNL     1       3.405   2.510  -2.417  0.00  0.00    -0.077 C 
ATOM     17  C   UNL     1       3.222   3.524  -3.549  0.00  0.00    -0.015 C 
ATOM     18  C   UNL     1       4.462   4.419  -3.631  0.00  0.00    -0.010 C 
ATOM     19  C   UNL     1       4.673   5.111  -2.282  0.00  0.00    -0.015 C 
ATOM     20  C   UNL     1       4.814   4.051  -1.187  0.00  0.00    -0.077 C 
ATOM     21  N   UNL     1       3.579   3.239  -1.143  0.00  0.00    +0.389 N 
ATOM     22  H   UNL     1       2.775   3.863  -1.004  0.00  0.00    -0.080 HD
BRANCH  18  23
ATOM     23  C   UNL     1       4.261   5.474  -4.721  0.00  0.00    +0.038 C 
BRANCH  23  24
ATOM     24  C   UNL     1       4.176   4.799  -6.065  0.00  0.00    -0.047 A 
ATOM     25  C   UNL     1       5.324   4.592  -6.808  0.00  0.00    +0.003 A 
ATOM     26  C   UNL     1       5.247   3.968  -8.039  0.00  0.00    +0.000 A 
ATOM     27  C   UNL     1       4.021   3.559  -8.531  0.00  0.00    +0.000 A 
ATOM     28  C   UNL     1       2.873   3.771  -7.791  0.00  0.00    +0.000 A 
ATOM     29  C   UNL     1       2.951   4.391  -6.558  0.00  0.00    +0.003 A 
ENDBRANCH  23  24
ENDBRANCH  18  23
ENDBRANCH   1  21
BRANCH   1  30
ATOM     30  C   UNL     1       3.743   3.053   1.272  0.00  0.00    +0.143 A 
ATOM     31  N   UNL     1       3.052   4.117   1.604  0.00  0.00    -0.115 NA
ATOM     32  N   UNL     1       3.422   4.479   2.784  0.00  0.00    -0.023 NA
ATOM     33  N   UNL     1       4.337   3.680   3.209  0.00  0.00    -0.044 NA
ATOM     34  N   UNL     1       4.563   2.787   2.306  0.00  0.00    -0.228 N 
BRANCH  34  35
ATOM     35  C   UNL     1       5.529   1.689   2.390  0.00  0.00    +0.178 C 
BRANCH  35  36
ATOM     36  C   UNL     1       6.877   2.153   1.835  0.00  0.00    +0.140 C 
ATOM     37  C   UNL     1       7.869   0.970   1.812  0.00  0.00    +0.035 C 
ATOM     38  C   UNL     1       9.198   1.647   2.245  0.00  0.00    +0.031 C 
ATOM     39  C   UNL     1       8.675   2.714   3.240  0.00  0.00    +0.160 C 
ATOM     40  O   UNL     1       7.430   3.165   2.684  0.00  0.00    -0.375 OA
ENDBRANCH  35  36
ENDBRANCH  34  35
ENDBRANCH   1  30
TORSDOF 8
