REMARK  Name = ZINC04066872
REMARK  9 active torsions:
REMARK  status: ('A' for Active; 'I' for Inactive)
REMARK    1  A    between atoms: C_1  and  C_2
REMARK    2  A    between atoms: C_3  and  C_26
REMARK    3  A    between atoms: C_4  and  C_16
REMARK    4  A    between atoms: C_10  and  C_14
REMARK    5  A    between atoms: C_10  and  C_15
REMARK    6  A    between atoms: C_19  and  O_24
REMARK    7  A    between atoms: C_20  and  O_22
REMARK    8  A    between atoms: O_22  and  C_23
REMARK    9  A    between atoms: O_24  and  C_25
REMARK                            x       y       z     vdW  Elec       q    Type
REMARK                         _______ _______ _______ _____ _____    ______ ____
ROOT
ATOM      1  C   UNL     1       0.165   1.711  -4.833  0.00  0.00    +0.062 C 
ATOM      2  C   UNL     1      -0.641   1.889  -3.572  0.00  0.00    +0.034 C 
ATOM      3  C   UNL     1      -1.962   2.110  -3.651  0.00  0.00    +0.147 C 
ATOM      4  C   UNL     1      -2.797   2.293  -2.419  0.00  0.00    +0.077 C 
ATOM      5  C   UNL     1      -2.076   1.790  -1.194  0.00  0.00    +0.025 C 
ATOM      6  C   UNL     1      -0.741   1.585  -1.215  0.00  0.00    +0.049 C 
ATOM      7  N   UNL     1      -0.019   1.826  -2.352  0.00  0.00    -0.259 NA
ATOM      8  C   UNL     1      -0.012   1.085   0.008  0.00  0.00    +0.062 C 
ATOM      9  C   UNL     1      -0.729   1.568   1.268  0.00  0.00    -0.023 C 
ATOM     10  C   UNL     1      -2.175   1.062   1.232  0.00  0.00    +0.086 C 
ATOM     11  C   UNL     1      -2.829   1.542  -0.034  0.00  0.00    +0.162 C 
ATOM     12  O   UNL     1      -4.032   1.718  -0.055  0.00  0.00    -0.292 OA
ATOM     13  C   UNL     1      -0.022   1.014   2.507  0.00  0.00    +0.011 C 
ATOM     14  C   UNL     1      -0.720   3.097   1.306  0.00  0.00    +0.011 C 
ENDROOT
BRANCH   4  15
ATOM     15  C   UNL     1      -3.098   3.759  -2.249  0.00  0.00    -0.035 A 
ATOM     16  C   UNL     1      -2.064   4.660  -2.070  0.00  0.00    +0.008 A 
ATOM     17  C   UNL     1      -2.335   6.006  -1.913  0.00  0.00    +0.050 A 
ATOM     18  C   UNL     1      -3.646   6.456  -1.935  0.00  0.00    +0.162 A 
ATOM     19  C   UNL     1      -4.686   5.550  -2.116  0.00  0.00    +0.162 A 
ATOM     20  C   UNL     1      -4.407   4.202  -2.277  0.00  0.00    +0.053 A 
BRANCH  19  21
ATOM     21  O   UNL     1      -5.974   5.987  -2.138  0.00  0.00    -0.491 OA
ATOM     22  C   UNL     1      -6.990   5.001  -2.327  0.00  0.00    +0.277 C 
ENDBRANCH  19  21
BRANCH  18  23
ATOM     23  O   UNL     1      -3.914   7.780  -1.781  0.00  0.00    -0.491 OA
ATOM     24  C   UNL     1      -2.796   8.652  -1.600  0.00  0.00    +0.277 C 
ENDBRANCH  18  23
ENDBRANCH   4  15
BRANCH   3  25
ATOM     25  C   UNL     1      -2.589   2.168  -4.938  0.00  0.00    +0.073 C 
ATOM     26  N   UNL     1      -3.085   2.214  -5.958  0.00  0.00    -0.196 NA
ENDBRANCH   3  25
TORSDOF 4
