REMARK  Name = ZINC50960301
REMARK  2 active torsions:
REMARK  status: ('A' for Active; 'I' for Inactive)
REMARK    1  A    between atoms: C_2  and  C_13
REMARK    2  A    between atoms: C_13  and  C_15
REMARK                            x       y       z     vdW  Elec       q    Type
REMARK                         _______ _______ _______ _____ _____    ______ ____
ROOT
ATOM      1  C   UNL     1      -0.017   1.373   0.010  0.00  0.00    +0.060 A 
ATOM      2  C   UNL     1       1.191   2.086   0.002  0.00  0.00    +0.042 A 
ATOM      3  C   UNL     1       2.409   1.394  -0.013  0.00  0.00    +0.054 A 
ATOM      4  C   UNL     1       2.418   0.015  -0.020  0.00  0.00    +0.047 A 
ATOM      5  C   UNL     1       1.222  -0.688  -0.012  0.00  0.00    +0.077 A 
ATOM      6  C   UNL     1       0.002  -0.004   0.002  0.00  0.00    +0.143 A 
ATOM      7  O   UNL     1      -1.161  -0.711   0.007  0.00  0.00    -0.481 OA
ATOM      8  C   UNL     1      -1.157  -1.957  -0.694  0.00  0.00    +0.325 C 
ATOM      9  C   UNL     1       0.079  -2.739  -0.327  0.00  0.00    +0.255 C 
ATOM     10  O   UNL     1       0.050  -3.951  -0.309  0.00  0.00    -0.272 OA
ATOM     11  N   UNL     1       1.220  -2.085  -0.017  0.00  0.00    -0.280 N 
ATOM     12 CL   UNL     1       3.906   2.272  -0.024  0.00  0.00    -0.083 Cl
ATOM     13  H   UNL     1       2.026  -2.578   0.198  0.00  0.00    +0.155 HD
ENDROOT
BRANCH   2  14
ATOM     14  C   UNL     1       1.179   3.553   0.009  0.00  0.00    +0.193 C 
ATOM     15  O   UNL     1       2.224   4.169   0.002  0.00  0.00    -0.289 OA
BRANCH  14  16
ATOM     16  C   UNL     1      -0.133   4.296   0.025  0.00  0.00    +0.189 C 
ATOM     17  C   UNL     1      -0.687   4.323   1.452  0.00  0.00    +0.040 C 
ATOM     18  C   UNL     1      -1.988   5.131   1.470  0.00  0.00    +0.005 C 
ATOM     19  C   UNL     1      -1.712   6.536   0.927  0.00  0.00    +0.028 C 
ATOM     20  C   UNL     1      -1.118   6.424  -0.480  0.00  0.00    +0.161 C 
ATOM     21  O   UNL     1       0.073   5.635  -0.431  0.00  0.00    -0.369 OA
ENDBRANCH  14  16
ENDBRANCH   2  14
TORSDOF 2
