REMARK  Name = ZINC22240240
REMARK  7 active torsions:
REMARK  status: ('A' for Active; 'I' for Inactive)
REMARK    1  A    between atoms: C_1  and  C_2
REMARK    2  A    between atoms: C_2  and  N_3
REMARK    3  A    between atoms: C_4  and  C_29
REMARK    4  A    between atoms: C_7  and  S_8
REMARK    5  A    between atoms: S_8  and  C_9
REMARK    6  A    between atoms: C_9  and  C_10
REMARK    7  A    between atoms: C_23  and  C_25
REMARK                            x       y       z     vdW  Elec       q    Type
REMARK                         _______ _______ _______ _____ _____    ______ ____
ROOT
ATOM      1  C   UNL     1      -2.063  -3.665   3.905  0.00  0.00    +0.231 C 
ATOM      2  O   UNL     1      -2.873  -3.685   3.003  0.00  0.00    -0.274 OA
ATOM      3  N   UNL     1      -2.004  -4.688   4.781  0.00  0.00    -0.257 N 
ATOM      4  C   UNL     1      -1.072  -4.678   5.828  0.00  0.00    +0.058 A 
ATOM      5  C   UNL     1      -1.229  -3.821   6.905  0.00  0.00    +0.025 A 
ATOM      6  C   UNL     1      -0.312  -3.842   7.940  0.00  0.00    +0.002 A 
ATOM      7  C   UNL     1       0.759  -4.716   7.905  0.00  0.00    +0.002 A 
ATOM      8  C   UNL     1       0.928  -5.569   6.829  0.00  0.00    +0.025 A 
ATOM      9  C   UNL     1       0.020  -5.546   5.784  0.00  0.00    +0.055 A 
ATOM     10  N   UNL     1       0.200  -6.360   4.659  0.00  0.00    -0.284 N 
ATOM     11  C   UNL     1      -0.825  -7.095   4.174  0.00  0.00    +0.219 C 
ATOM     12  O   UNL     1      -0.679  -7.731   3.151  0.00  0.00    -0.275 OA
ATOM     13  C   UNL     1      -2.146  -7.131   4.896  0.00  0.00    +0.128 C 
ATOM     14  C   UNL     1      -2.916  -5.827   4.659  0.00  0.00    +0.194 C 
ATOM     15  H   UNL     1       1.181  -6.404   4.163  0.00  0.00    +0.155 HD
ENDROOT
BRANCH  14  16
ATOM     16  C   UNL     1      -4.034  -5.696   5.695  0.00  0.00    +0.409 C 
ATOM     17  F   UNL     1      -4.738  -4.508   5.473  0.00  0.00    -0.169 F 
ATOM     18  F   UNL     1      -4.906  -6.784   5.580  0.00  0.00    -0.169 F 
ATOM     19  F   UNL     1      -3.480  -5.677   6.979  0.00  0.00    -0.169 F 
ENDBRANCH  14  16
BRANCH   1  20
ATOM     20  C   UNL     1      -1.121  -2.497   4.047  0.00  0.00    +0.173 C 
BRANCH  20  21
ATOM     21  S   UNL     1      -1.446  -1.298   2.731  0.00  0.00    -0.077 S 
BRANCH  21  26
ATOM     22  N   UNL     1      -0.020   1.094   2.454  0.00  0.00    -0.300 N 
ATOM     23  C   UNL     1       1.004   1.723   3.127  0.00  0.00    +0.200 A 
ATOM     24  N   UNL     1       1.344   0.940   4.128  0.00  0.00    -0.125 NA
ATOM     25  N   UNL     1       0.613  -0.117   4.125  0.00  0.00    -0.122 NA
ATOM     26  C   UNL     1      -0.241  -0.074   3.128  0.00  0.00    +0.192 A 
BRANCH  23  27
ATOM     27  C   UNL     1       1.603   3.023   2.791  0.00  0.00    +0.172 A 
ATOM     28  C   UNL     1       2.403   3.770   3.604  0.00  0.00    +0.053 A 
ATOM     29  C   UNL     1       2.746   4.929   2.881  0.00  0.00    +0.042 A 
ATOM     30  C   UNL     1       2.147   4.837   1.677  0.00  0.00    +0.196 A 
ATOM     31  O   UNL     1       1.462   3.682   1.624  0.00  0.00    -0.460 OA
ENDBRANCH  23  27
BRANCH  22  33
ATOM     32  C   UNL     1      -0.013   1.086   0.008  0.00  0.00    +0.027 C 
ATOM     33  C   UNL     1      -0.729   1.579   1.267  0.00  0.00    +0.122 C 
ENDBRANCH  22  33
ENDBRANCH  21  26
ENDBRANCH  20  21
ENDBRANCH   1  20
TORSDOF 6
