REMARK  Name = ZINC15672494
REMARK  10 active torsions:
REMARK  status: ('A' for Active; 'I' for Inactive)
REMARK    1  A    between atoms: C_1  and  C_2
REMARK    2  A    between atoms: C_4  and  C_31
REMARK    3  A    between atoms: C_6  and  C_8
REMARK    4  A    between atoms: C_16  and  C_18
REMARK    5  A    between atoms: C_18  and  O_19
REMARK    6  A    between atoms: O_19  and  C_20
REMARK    7  A    between atoms: N_22  and  C_23
REMARK    8  A    between atoms: C_34  and  N_37
REMARK    9  A    between atoms: N_37  and  C_38
REMARK   10  A    between atoms: N_37  and  C_39
REMARK                            x       y       z     vdW  Elec       q    Type
REMARK                         _______ _______ _______ _____ _____    ______ ____
ROOT
ATOM      1  C   UNL     1       4.982   1.350   3.410  0.00  0.00    +0.024 C 
ATOM      2  C   UNL     1       3.720   0.714   2.820  0.00  0.00    -0.068 C 
ATOM      3  C   UNL     1       5.018  -0.413   1.115  0.00  0.00    -0.078 C 
ATOM      4  C   UNL     1       6.332   0.188   1.669  0.00  0.00    -0.015 C 
ATOM      5  C   UNL     1       6.006   1.553   2.286  0.00  0.00    -0.007 C 
ATOM      6  C   UNL     1       5.383   2.457   1.214  0.00  0.00    -0.008 C 
ATOM      7  C   UNL     1       4.110   1.791   0.685  0.00  0.00    -0.030 C 
ATOM      8  N   UNL     1       3.882   0.498   1.367  0.00  0.00    +0.384 N 
ATOM      9  H   UNL     1       3.024   0.072   0.996  0.00  0.00    -0.081 HD
ENDROOT
BRANCH   1  15
ATOM     10  C   UNL     1       1.661   4.334   5.404  0.00  0.00    +0.088 C 
ATOM     11  C   UNL     1       3.082   4.095   4.965  0.00  0.00    +0.127 A 
ATOM     12  N   UNL     1       3.972   5.051   5.130  0.00  0.00    -0.232 NA
ATOM     13  C   UNL     1       5.238   4.875   4.753  0.00  0.00    +0.075 A 
ATOM     14  C   UNL     1       5.608   3.653   4.182  0.00  0.00    +0.052 A 
ATOM     15  C   UNL     1       4.637   2.682   4.024  0.00  0.00    +0.047 A 
ATOM     16  N   UNL     1       3.399   2.935   4.425  0.00  0.00    -0.237 NA
BRANCH  13  17
ATOM     17  C   UNL     1       6.237   5.952   4.941  0.00  0.00    +0.001 A 
ATOM     18  C   UNL     1       7.526   5.806   4.428  0.00  0.00    +0.012 A 
ATOM     19  C   UNL     1       8.452   6.812   4.600  0.00  0.00    +0.024 A 
ATOM     20  C   UNL     1       8.106   7.967   5.293  0.00  0.00    +0.029 A 
ATOM     21  C   UNL     1       6.823   8.113   5.809  0.00  0.00    +0.024 A 
ATOM     22  C   UNL     1       5.892   7.112   5.636  0.00  0.00    +0.012 A 
BRANCH  20  23
ATOM     23  N   UNL     1       9.046   8.981   5.469  0.00  0.00    -0.336 N 
ATOM     24  C   UNL     1       8.674  10.210   6.176  0.00  0.00    +0.129 C 
ATOM     25  C   UNL     1      10.406   8.818   4.949  0.00  0.00    +0.129 C 
ENDBRANCH  20  23
ENDBRANCH  13  17
ENDBRANCH   1  15
BRANCH   7  26
ATOM     26  C   UNL     1       2.911   2.706   0.942  0.00  0.00    +0.219 C 
BRANCH  26  27
ATOM     27  O   UNL     1       1.720   2.120   0.353  0.00  0.00    -0.452 OA
BRANCH  27  28
ATOM     28  C   UNL     1       0.553   2.754   0.574  0.00  0.00    +0.405 C 
ATOM     29  O   UNL     1       0.540   3.814   1.169  0.00  0.00    -0.226 OA
ATOM     30  N   UNL     1      -0.602   2.214   0.136  0.00  0.00    -0.248 N 
ATOM     31  H   UNL     1      -0.586   1.410  -0.407  0.00  0.00    +0.158 HD
BRANCH  30  32
ATOM     32  C   UNL     1      -1.825   2.817   0.461  0.00  0.00    +0.072 A 
ATOM     33  C   UNL     1      -1.890   4.186   0.676  0.00  0.00    +0.029 A 
ATOM     34  C   UNL     1      -3.096   4.778   0.995  0.00  0.00    +0.040 A 
ATOM     35  C   UNL     1      -4.242   4.007   1.100  0.00  0.00    +0.126 A 
ATOM     36  C   UNL     1      -4.181   2.641   0.886  0.00  0.00    +0.078 A 
ATOM     37  C   UNL     1      -2.977   2.044   0.561  0.00  0.00    +0.147 A 
ATOM     38  F   UNL     1      -2.918   0.712   0.346  0.00  0.00    -0.203 F 
ATOM     39  F   UNL     1      -5.420   4.589   1.413  0.00  0.00    -0.205 F 
ENDBRANCH  30  32
ENDBRANCH  27  28
ENDBRANCH  26  27
ENDBRANCH   7  26
TORSDOF 7
