REMARK  Name = ZINC44941349
REMARK  7 active torsions:
REMARK  status: ('A' for Active; 'I' for Inactive)
REMARK    1  A    between atoms: C_4  and  C_7
REMARK    2  A    between atoms: C_7  and  N_8
REMARK    3  A    between atoms: C_14  and  C_16
REMARK    4  A    between atoms: C_22  and  C_24
REMARK    5  A    between atoms: N_26  and  C_27
REMARK    6  A    between atoms: N_31  and  C_33
REMARK    7  A    between atoms: C_33  and  C_34
REMARK                            x       y       z     vdW  Elec       q    Type
REMARK                         _______ _______ _______ _____ _____    ______ ____
ROOT
ATOM      1  C   UNL     1       7.087  -3.736   4.381  0.00  0.00    +0.091 C 
ATOM      2  C   UNL     1       8.063  -2.737   5.006  0.00  0.00    +0.040 C 
ATOM      3  C   UNL     1       9.381  -3.401   5.274  0.00  0.00    -0.030 C 
ATOM      4  C   UNL     1       9.553  -4.684   5.314  0.00  0.00    -0.030 C 
ATOM      5  C   UNL     1       8.459  -5.685   5.086  0.00  0.00    +0.040 C 
ATOM      6  C   UNL     1       7.090  -5.017   5.225  0.00  0.00    +0.091 C 
ENDROOT
BRANCH   1  13
ATOM      7  N   UNL     1       4.615  -0.964   1.096  0.00  0.00    -0.295 NA
ATOM      8  C   UNL     1       3.615  -1.691   1.890  0.00  0.00    +0.103 C 
ATOM      9  C   UNL     1       4.021  -1.661   3.368  0.00  0.00    +0.123 C 
ATOM     10  N   UNL     1       5.396  -2.169   3.485  0.00  0.00    -0.299 N 
ATOM     11  C   UNL     1       6.431  -1.582   2.619  0.00  0.00    +0.123 C 
ATOM     12  C   UNL     1       5.930  -1.615   1.171  0.00  0.00    +0.103 C 
ATOM     13  C   UNL     1       5.700  -3.146   4.362  0.00  0.00    +0.220 C 
ATOM     14  O   UNL     1       4.859  -3.549   5.136  0.00  0.00    -0.275 OA
BRANCH   7  15
ATOM     15  C   UNL     1       4.177  -0.821  -0.299  0.00  0.00    +0.119 C 
BRANCH  15  19
ATOM     16  C   UNL     1       0.715   1.676  -0.458  0.00  0.00    +0.000 A 
ATOM     17  C   UNL     1       1.976   2.235  -0.552  0.00  0.00    +0.000 A 
ATOM     18  C   UNL     1       3.096   1.427  -0.500  0.00  0.00    +0.005 A 
ATOM     19  C   UNL     1       2.956   0.060  -0.354  0.00  0.00    -0.033 A 
ATOM     20  C   UNL     1       1.696  -0.499  -0.259  0.00  0.00    +0.005 A 
ATOM     21  C   UNL     1       0.575   0.309  -0.312  0.00  0.00    +0.000 A 
ENDBRANCH  15  19
ENDBRANCH   7  15
ENDBRANCH   1  13
BRANCH   6  22
ATOM     22  C   UNL     1       6.845  -4.671   6.671  0.00  0.00    +0.217 C 
ATOM     23  O   UNL     1       7.744  -4.218   7.347  0.00  0.00    -0.275 OA
ATOM     24  N   UNL     1       5.626  -4.866   7.214  0.00  0.00    -0.314 N 
ATOM     25  H   UNL     1       4.907  -5.229   6.673  0.00  0.00    +0.149 HD
BRANCH  24  26
ATOM     26  C   UNL     1       5.388  -4.530   8.620  0.00  0.00    +0.055 C 
ATOM     27  C   UNL     1       5.695  -5.741   9.540  0.00  0.00    +0.002 C 
ATOM     28  C   UNL     1       4.796  -5.481  10.767  0.00  0.00    -0.077 C 
ATOM     29  N   UNL     1       3.706  -4.589  10.329  0.00  0.00    +0.384 N 
ATOM     30  C   UNL     1       3.879  -4.306   8.888  0.00  0.00    -0.056 C 
ATOM     31  H   UNL     1       3.744  -3.726  10.851  0.00  0.00    -0.081 HD
BRANCH  29  32
ATOM     32  C   UNL     1       2.411  -5.244  10.554  0.00  0.00    -0.043 C 
BRANCH  32  33
ATOM     33  C   UNL     1       2.179  -5.406  12.034  0.00  0.00    -0.064 A 
ATOM     34  C   UNL     1       2.613  -6.548  12.681  0.00  0.00    +0.002 A 
ATOM     35  C   UNL     1       2.401  -6.697  14.038  0.00  0.00    +0.000 A 
ATOM     36  C   UNL     1       1.755  -5.703  14.750  0.00  0.00    +0.000 A 
ATOM     37  C   UNL     1       1.321  -4.560  14.103  0.00  0.00    +0.000 A 
ATOM     38  C   UNL     1       1.538  -4.410  12.746  0.00  0.00    +0.002 A 
ENDBRANCH  32  33
ENDBRANCH  29  32
ENDBRANCH  24  26
ENDBRANCH   6  22
TORSDOF 7
