REMARK  Name = ZINC39634644
REMARK  9 active torsions:
REMARK  status: ('A' for Active; 'I' for Inactive)
REMARK    1  A    between atoms: C_1  and  O_2
REMARK    2  A    between atoms: O_2  and  C_3
REMARK    3  A    between atoms: C_6  and  C_11
REMARK    4  A    between atoms: C_8  and  O_9
REMARK    5  A    between atoms: O_9  and  C_10
REMARK    6  A    between atoms: C_11  and  C_12
REMARK    7  A    between atoms: C_12  and  N_13
REMARK    8  A    between atoms: C_14  and  C_16
REMARK    9  A    between atoms: C_27  and  C_29
REMARK                            x       y       z     vdW  Elec       q    Type
REMARK                         _______ _______ _______ _____ _____    ______ ____
ROOT
ATOM      1  C   UNL     1       6.615  -4.317  -6.334  0.00  0.00    +0.100 C 
ATOM      2  C   UNL     1       6.461  -3.464  -7.613  0.00  0.00    +0.121 C 
ATOM      3  N   UNL     1       7.699  -2.652  -7.673  0.00  0.00    -0.295 N 
ATOM      4  C   UNL     1       8.770  -3.579  -7.234  0.00  0.00    +0.115 C 
ATOM      5  C   UNL     1       8.132  -4.393  -6.090  0.00  0.00    -0.004 C 
ATOM      6  C   UNL     1       8.604  -5.843  -6.147  0.00  0.00    -0.010 C 
ATOM      7  C   UNL     1      10.104  -5.898  -5.844  0.00  0.00    -0.082 C 
ATOM      8  N   UNL     1      10.358  -5.332  -4.514  0.00  0.00    +0.379 N 
ATOM      9  C   UNL     1       9.987  -3.911  -4.496  0.00  0.00    -0.082 C 
ATOM     10  C   UNL     1       8.482  -3.772  -4.742  0.00  0.00    -0.010 C 
ATOM     11  C   UNL     1       7.824  -1.362  -8.044  0.00  0.00    +0.265 C 
ATOM     12  O   UNL     1       6.833  -0.701  -8.284  0.00  0.00    -0.268 OA
ATOM     13  H   UNL     1       9.812  -5.830  -3.828  0.00  0.00    -0.086 HD
ATOM     14  H   UNL     1      11.338  -5.425  -4.292  0.00  0.00    -0.086 HD
ENDROOT
BRANCH  11  15
ATOM     15  C   UNL     1       9.169  -0.750  -8.158  0.00  0.00    +0.126 A 
ATOM     16  C   UNL     1       9.278   0.622  -8.429  0.00  0.00    +0.033 A 
ATOM     17  C   UNL     1      10.511   1.197  -8.536  0.00  0.00    +0.012 A 
ATOM     18  C   UNL     1      11.644   0.380  -8.368  0.00  0.00    +0.000 A 
ATOM     19  C   UNL     1      12.943   0.905  -8.464  0.00  0.00    +0.010 A 
ATOM     20  C   UNL     1      14.016   0.085  -8.294  0.00  0.00    +0.001 A 
ATOM     21  C   UNL     1      13.844  -1.273  -8.026  0.00  0.00    +0.002 A 
ATOM     22  C   UNL     1      12.602  -1.817  -7.926  0.00  0.00    +0.028 A 
ATOM     23  C   UNL     1      11.466  -1.001  -8.095  0.00  0.00    +0.072 A 
ATOM     24  N   UNL     1      10.237  -1.507  -7.996  0.00  0.00    -0.242 NA
ENDBRANCH  11  15
BRANCH   1  26
ATOM     25  N   UNL     1       5.401  -4.393  -4.180  0.00  0.00    -0.315 N 
ATOM     26  C   UNL     1       5.930  -3.647  -5.170  0.00  0.00    +0.218 C 
ATOM     27  O   UNL     1       5.855  -2.438  -5.125  0.00  0.00    -0.275 OA
ATOM     28  H   UNL     1       5.461  -5.360  -4.216  0.00  0.00    +0.149 HD
BRANCH  25  29
ATOM     29  C   UNL     1       4.735  -3.741  -3.049  0.00  0.00    +0.109 C 
BRANCH  29  30
ATOM     30  C   UNL     1       4.227  -4.806  -2.075  0.00  0.00    +0.054 C 
BRANCH  30  34
ATOM     31  C   UNL     1       2.277  -2.906   1.224  0.00  0.00    +0.161 A 
ATOM     32  C   UNL     1       1.553  -3.259   0.096  0.00  0.00    +0.049 A 
ATOM     33  C   UNL     1       2.186  -3.873  -0.968  0.00  0.00    +0.007 A 
ATOM     34  C   UNL     1       3.542  -4.136  -0.911  0.00  0.00    -0.042 A 
ATOM     35  C   UNL     1       4.271  -3.787   0.210  0.00  0.00    +0.053 A 
ATOM     36  C   UNL     1       3.643  -3.166   1.278  0.00  0.00    +0.162 A 
BRANCH  31  38
ATOM     37  C   UNL     1       0.253  -2.066   2.145  0.00  0.00    +0.277 C 
ATOM     38  O   UNL     1       1.656  -2.302   2.272  0.00  0.00    -0.491 OA
ENDBRANCH  31  38
BRANCH  36  39
ATOM     39  O   UNL     1       4.360  -2.817   2.380  0.00  0.00    -0.491 OA
ATOM     40  C   UNL     1       5.757  -3.115   2.367  0.00  0.00    +0.277 C 
ENDBRANCH  36  39
ENDBRANCH  30  34
ENDBRANCH  29  30
ENDBRANCH  25  29
ENDBRANCH   1  26
TORSDOF 7
