REMARK  Name = ZINC09209331
REMARK  7 active torsions:
REMARK  status: ('A' for Active; 'I' for Inactive)
REMARK    1  A    between atoms: C_1  and  C_2
REMARK    2  A    between atoms: C_2  and  C_4
REMARK    3  A    between atoms: C_7  and  N_11
REMARK    4  A    between atoms: C_16  and  N_17
REMARK    5  A    between atoms: C_16  and  N_62
REMARK    6  A    between atoms: C_20  and  C_24
REMARK    7  A    between atoms: C_20  and  C_25
REMARK                            x       y       z     vdW  Elec       q    Type
REMARK                         _______ _______ _______ _____ _____    ______ ____
ROOT
ATOM      1  N   UNL     1      -7.293   0.520  -1.619  0.00  0.00    -0.241 N 
ATOM      2  C   UNL     1      -6.767  -0.639  -2.062  0.00  0.00    +0.249 C 
ATOM      3  O   UNL     1      -6.023  -1.383  -1.459  0.00  0.00    -0.272 OA
ATOM      4  C   UNL     1      -7.297  -0.818  -3.470  0.00  0.00    +0.136 C 
ATOM      5  N   UNL     1      -8.140   0.373  -3.677  0.00  0.00    -0.281 N 
ATOM      6  C   UNL     1      -8.078   1.089  -2.540  0.00  0.00    +0.308 C 
ATOM      7  O   UNL     1      -8.667   2.139  -2.370  0.00  0.00    -0.252 OA
ATOM      8  C   UNL     1      -6.147  -0.844  -4.479  0.00  0.00    +0.047 C 
ATOM      9  H   UNL     1      -8.644   0.595  -4.475  0.00  0.00    +0.152 HD
ENDROOT
BRANCH   4  10
ATOM     10  C   UNL     1      -8.118  -2.077  -3.572  0.00  0.00    -0.008 A 
ATOM     11  C   UNL     1      -9.443  -2.007  -3.878  0.00  0.00    +0.007 A 
ATOM     12  C   UNL     1     -10.219  -3.160  -3.976  0.00  0.00    +0.001 A 
ATOM     13  C   UNL     1      -9.674  -4.391  -3.769  0.00  0.00    +0.008 A 
ATOM     14  C   UNL     1      -8.310  -4.503  -3.452  0.00  0.00    -0.018 A 
ATOM     15  C   UNL     1      -7.520  -3.330  -3.357  0.00  0.00    -0.012 A 
ATOM     16  C   UNL     1      -6.157  -3.442  -3.034  0.00  0.00    +0.009 A 
ATOM     17  C   UNL     1      -5.612  -4.672  -2.827  0.00  0.00    +0.001 A 
ATOM     18  C   UNL     1      -6.388  -5.826  -2.926  0.00  0.00    +0.001 A 
ATOM     19  C   UNL     1      -7.713  -5.756  -3.231  0.00  0.00    +0.008 A 
ENDBRANCH   4  10
BRANCH   1  20
ATOM     20  C   UNL     1      -7.042   1.083  -0.290  0.00  0.00    +0.043 C 
BRANCH  20  26
ATOM     21  N   UNL     1      -3.094   2.577  -0.113  0.00  0.00    -0.331 N 
ATOM     22  C   UNL     1      -3.732   2.469  -1.433  0.00  0.00    +0.086 C 
ATOM     23  C   UNL     1      -4.904   1.488  -1.352  0.00  0.00    -0.057 C 
ATOM     24  C   UNL     1      -5.226   2.066   0.976  0.00  0.00    -0.057 C 
ATOM     25  C   UNL     1      -4.054   3.047   0.895  0.00  0.00    +0.086 C 
ATOM     26  N   UNL     1      -5.872   1.984  -0.351  0.00  0.00    +0.392 N 
ATOM     27  H   UNL     1      -6.187   2.922  -0.627  0.00  0.00    -0.079 HD
BRANCH  21  31
ATOM     28  C   UNL     1       0.237   5.061  -0.273  0.00  0.00    +0.020 A 
ATOM     29  C   UNL     1      -1.040   5.574  -0.530  0.00  0.00    +0.013 A 
ATOM     30  C   UNL     1      -2.131   4.755  -0.472  0.00  0.00    +0.027 A 
ATOM     31  C   UNL     1      -1.979   3.406  -0.164  0.00  0.00    +0.065 A 
ATOM     32  C   UNL     1      -0.713   2.885   0.099  0.00  0.00    +0.145 A 
ATOM     33  C   UNL     1       0.393   3.704   0.043  0.00  0.00    +0.051 A 
ATOM     34  F   UNL     1      -0.569   1.576   0.403  0.00  0.00    -0.204 F 
BRANCH  28  36
ATOM     35  C   UNL     1       1.241   7.399  -0.675  0.00  0.00    +0.091 C 
ATOM     36  C   UNL     1       1.410   5.940  -0.335  0.00  0.00    +0.160 C 
ATOM     37  O   UNL     1       2.516   5.494  -0.113  0.00  0.00    -0.292 OA
ENDBRANCH  28  36
ENDBRANCH  21  31
ENDBRANCH  20  26
ENDBRANCH   1  20
TORSDOF 5
