REMARK  Name = ZINC05679901
REMARK  4 active torsions:
REMARK  status: ('A' for Active; 'I' for Inactive)
REMARK    1  A    between atoms: C_1  and  C_2
REMARK    2  A    between atoms: C_8  and  N_10
REMARK    3  A    between atoms: C_11  and  C_13
REMARK    4  A    between atoms: C_13  and  N_14
REMARK                            x       y       z     vdW  Elec       q    Type
REMARK                         _______ _______ _______ _____ _____    ______ ____
ROOT
ATOM      1  N   UNL     1       4.722   0.698   3.749  0.00  0.00    -0.215 N 
ATOM      2  C   UNL     1       4.599   1.764   4.568  0.00  0.00    +0.251 C 
ATOM      3  O   UNL     1       4.064   2.824   4.319  0.00  0.00    -0.272 OA
ATOM      4  C   UNL     1       5.268   1.357   5.858  0.00  0.00    +0.139 C 
ATOM      5  C   UNL     1       4.285   1.399   7.019  0.00  0.00    +0.040 C 
ATOM      6  C   UNL     1       5.019   1.157   8.342  0.00  0.00    +0.008 C 
ATOM      7  C   UNL     1       5.919   2.365   8.639  0.00  0.00    +0.043 C 
ATOM      8  C   UNL     1       6.697   2.694   7.408  0.00  0.00    -0.005 A 
ATOM      9  C   UNL     1       6.451   2.269   6.136  0.00  0.00    -0.005 A 
ATOM     10  C   UNL     1       7.331   2.716   5.151  0.00  0.00    +0.014 A 
ATOM     11  C   UNL     1       8.361   3.529   5.479  0.00  0.00    +0.046 A 
ATOM     12  S   UNL     1       8.137   3.713   7.242  0.00  0.00    -0.101 S 
ATOM     13  N   UNL     1       5.735  -0.009   5.608  0.00  0.00    -0.281 N 
ATOM     14  C   UNL     1       5.366  -0.312   4.348  0.00  0.00    +0.310 C 
ATOM     15  O   UNL     1       5.594  -1.379   3.814  0.00  0.00    -0.252 OA
ATOM     16  H   UNL     1       6.213  -0.583   6.228  0.00  0.00    +0.152 HD
ENDROOT
BRANCH   1  17
ATOM     17  C   UNL     1       4.209   0.649   2.377  0.00  0.00    +0.213 C 
BRANCH  17  19
ATOM     18  N   UNL     1       2.116  -0.004   1.231  0.00  0.00    -0.311 N 
ATOM     19  C   UNL     1       2.795   0.128   2.388  0.00  0.00    +0.231 C 
ATOM     20  O   UNL     1       2.268  -0.174   3.438  0.00  0.00    -0.274 OA
ATOM     21  H   UNL     1       2.538   0.237   0.392  0.00  0.00    +0.149 HD
BRANCH  18  28
ATOM     22  C   UNL     1      -0.019   1.526   0.010  0.00  0.00    +0.009 C 
ATOM     23  C   UNL     1       0.002  -0.004   0.002  0.00  0.00    +0.006 C 
ATOM     24  C   UNL     1      -1.433  -0.534   0.013  0.00  0.00    +0.005 C 
ATOM     25  C   UNL     1      -1.413  -2.063   0.004  0.00  0.00    +0.000 C 
ATOM     26  C   UNL     1      -0.673  -2.570   1.244  0.00  0.00    +0.002 C 
ATOM     27  C   UNL     1       0.763  -2.041   1.233  0.00  0.00    +0.022 C 
ATOM     28  C   UNL     1       0.742  -0.511   1.242  0.00  0.00    +0.076 C 
ENDBRANCH  18  28
ENDBRANCH  17  19
ENDBRANCH   1  17
TORSDOF 3
