REMARK  Name = ZINC14986140
REMARK  9 active torsions:
REMARK  status: ('A' for Active; 'I' for Inactive)
REMARK    1  A    between atoms: C_5  and  N_7
REMARK    2  A    between atoms: C_10  and  C_13
REMARK    3  A    between atoms: C_10  and  O_34
REMARK    4  A    between atoms: C_23  and  C_24
REMARK    5  A    between atoms: C_23  and  N_69
REMARK    6  A    between atoms: C_28  and  O_30
REMARK    7  A    between atoms: O_30  and  C_31
REMARK    8  A    between atoms: C_31  and  C_32
REMARK    9  A    between atoms: C_32  and  O_33
REMARK                            x       y       z     vdW  Elec       q    Type
REMARK                         _______ _______ _______ _____ _____    ______ ____
ROOT
ATOM      1  C   UNL     1       2.781   8.371  -3.929  0.00  0.00    -0.016 A 
ATOM      2  C   UNL     1       2.066   8.273  -5.108  0.00  0.00    +0.010 A 
ATOM      3  C   UNL     1       0.754   7.838  -5.094  0.00  0.00    +0.046 A 
ATOM      4  C   UNL     1       0.155   7.500  -3.888  0.00  0.00    +0.122 A 
ATOM      5  C   UNL     1       0.870   7.617  -2.710  0.00  0.00    -0.022 A 
ATOM      6  C   UNL     1       2.182   8.042  -2.725  0.00  0.00    +0.011 A 
ATOM      7  C   UNL     1       0.188   7.289  -1.395  0.00  0.00    -0.039 C 
ATOM      8  C   UNL     1      -1.331   5.491  -2.020  0.00  0.00    -0.036 C 
ATOM      9  C   UNL     1      -1.287   5.667  -3.522  0.00  0.00    +0.210 C 
ATOM     10  O   UNL     1      -1.128   7.049  -3.866  0.00  0.00    -0.494 OA
ATOM     11  N   UNL     1      -0.051   5.826  -1.362  0.00  0.00    +0.387 N 
ATOM     12  H   UNL     1       0.711   5.356  -1.865  0.00  0.00    -0.081 HD
ENDROOT
BRANCH   1  16
ATOM     13  N   UNL     1       6.286  10.422  -5.192  0.00  0.00    -0.327 N 
ATOM     14  C   UNL     1       6.296   8.960  -5.327  0.00  0.00    +0.108 C 
ATOM     15  C   UNL     1       4.860   8.432  -5.282  0.00  0.00    +0.058 C 
ATOM     16  C   UNL     1       4.214   8.836  -3.954  0.00  0.00    +0.094 C 
ATOM     17  C   UNL     1       4.260  10.361  -3.817  0.00  0.00    +0.058 C 
ATOM     18  C   UNL     1       5.713  10.832  -3.904  0.00  0.00    +0.108 C 
BRANCH  13  23
ATOM     19  C   UNL     1       9.521  11.273  -6.716  0.00  0.00    +0.002 A 
ATOM     20  C   UNL     1      10.112  11.993  -5.694  0.00  0.00    +0.003 A 
ATOM     21  C   UNL     1       9.435  12.194  -4.505  0.00  0.00    +0.040 A 
ATOM     22  C   UNL     1       8.165  11.675  -4.334  0.00  0.00    +0.144 A 
ATOM     23  C   UNL     1       7.569  10.950  -5.361  0.00  0.00    +0.065 A 
ATOM     24  C   UNL     1       8.255  10.747  -6.551  0.00  0.00    +0.026 A 
ATOM     25  F   UNL     1       7.505  11.870  -3.172  0.00  0.00    -0.204 F 
ENDBRANCH  13  23
BRANCH  16  26
ATOM     26  O   UNL     1       4.930   8.236  -2.872  0.00  0.00    -0.384 OA
ATOM     27  H   UNL     1       4.575   8.452  -1.999  0.00  0.00    +0.211 HD
ENDBRANCH  16  26
ENDBRANCH   1  16
BRANCH  11  28
ATOM     28  C   UNL     1      -0.065   5.351   0.031  0.00  0.00    -0.042 C 
BRANCH  28  29
ATOM     29  C   UNL     1      -0.049   3.844   0.023  0.00  0.00    -0.060 A 
ATOM     30  C   UNL     1       1.156   3.166   0.008  0.00  0.00    +0.002 A 
ATOM     31  C   UNL     1       1.174   1.783   0.000  0.00  0.00    +0.004 A 
ATOM     32  C   UNL     1      -0.013   1.076   0.008  0.00  0.00    +0.045 A 
ATOM     33  C   UNL     1      -1.223   1.754   0.017  0.00  0.00    +0.121 A 
ATOM     34  C   UNL     1      -1.238   3.141   0.029  0.00  0.00    +0.047 A 
BRANCH  33  35
ATOM     35  O   UNL     1      -2.391   1.060   0.019  0.00  0.00    -0.490 OA
BRANCH  35  36
ATOM     36  C   UNL     1      -2.299  -0.366   0.011  0.00  0.00    +0.256 C 
BRANCH  36  37
ATOM     37  C   UNL     1      -3.706  -0.968   0.014  0.00  0.00    +0.196 C 
BRANCH  37  38
ATOM     38  O   UNL     1      -4.374  -0.625  -1.202  0.00  0.00    -0.392 OA
ATOM     39  H   UNL     1      -5.273  -0.975  -1.269  0.00  0.00    +0.210 HD
ENDBRANCH  37  38
ENDBRANCH  36  37
ENDBRANCH  35  36
ENDBRANCH  33  35
ENDBRANCH  28  29
ENDBRANCH  11  28
TORSDOF 9
