REMARK  Name = ZINC12479794
REMARK  19 active torsions:
REMARK  status: ('A' for Active; 'I' for Inactive)
REMARK    1  A    between atoms: C_1  and  C_2
REMARK    2  A    between atoms: C_5  and  C_8
REMARK    3  A    between atoms: N_11  and  C_13
REMARK    4  A    between atoms: C_13  and  C_14
REMARK    5  A    between atoms: N_16  and  C_17
REMARK    6  A    between atoms: N_16  and  C_21
REMARK    7  A    between atoms: C_17  and  C_18
REMARK    8  A    between atoms: C_18  and  C_19
REMARK    9  A    between atoms: C_19  and  O_20
REMARK   10  A    between atoms: C_21  and  C_23
REMARK   11  A    between atoms: C_21  and  C_32
REMARK   12  A    between atoms: C_26  and  O_31
REMARK   13  A    between atoms: C_27  and  O_29
REMARK   14  A    between atoms: O_29  and  C_30
REMARK   15  A    between atoms: N_34  and  C_35
REMARK   16  A    between atoms: C_35  and  C_36
REMARK   17  A    between atoms: C_36  and  C_37
REMARK   18  A    between atoms: C_37  and  C_38
REMARK   19  A    between atoms: C_37  and  C_39
REMARK                            x       y       z     vdW  Elec       q    Type
REMARK                         _______ _______ _______ _____ _____    ______ ____
ROOT
ATOM      1  C   UNL     1      -0.348   1.295   0.231  0.00  0.00    +0.240 C 
ATOM      2  O   UNL     1      -0.669   1.421   1.393  0.00  0.00    -0.273 OA
ATOM      3  N   UNL     1      -0.751   0.215  -0.467  0.00  0.00    -0.284 N 
ENDROOT
BRANCH   1   4
ATOM      4  C   UNL     1       0.498   2.350  -0.435  0.00  0.00    +0.264 C 
BRANCH   4   8
ATOM      5  C   UNL     1       0.676   5.183   1.661  0.00  0.00    +0.205 A 
ATOM      6  N   UNL     1       1.781   4.514   2.019  0.00  0.00    -0.108 NA
ATOM      7  N   UNL     1       1.825   3.439   1.307  0.00  0.00    -0.045 NA
ATOM      8  N   UNL     1       0.802   3.412   0.527  0.00  0.00    -0.154 N 
ATOM      9  N   UNL     1       0.089   4.468   0.722  0.00  0.00    -0.130 NA
BRANCH   5  14
ATOM     10  C   UNL     1      -1.141  10.216   3.792  0.00  0.00    +0.044 C 
ATOM     11  C   UNL     1      -0.666   8.899   3.235  0.00  0.00    -0.050 A 
ATOM     12  C   UNL     1       0.502   8.331   3.710  0.00  0.00    +0.004 A 
ATOM     13  C   UNL     1       0.942   7.125   3.203  0.00  0.00    +0.012 A 
ATOM     14  C   UNL     1       0.207   6.480   2.211  0.00  0.00    +0.023 A 
ATOM     15  C   UNL     1      -0.965   7.059   1.731  0.00  0.00    +0.012 A 
ATOM     16  C   UNL     1      -1.399   8.264   2.249  0.00  0.00    +0.004 A 
ENDBRANCH   5  14
ENDBRANCH   4   8
ENDBRANCH   1   4
BRANCH   3  17
ATOM     17  C   UNL     1      -0.368   0.066  -1.873  0.00  0.00    +0.111 C 
BRANCH  17  18
ATOM     18  C   UNL     1       1.030  -0.551  -1.958  0.00  0.00    +0.047 C 
BRANCH  18  19
ATOM     19  C   UNL     1       1.469  -0.620  -3.422  0.00  0.00    +0.157 C 
BRANCH  19  20
ATOM     20  O   UNL     1       2.774  -1.196  -3.502  0.00  0.00    -0.395 OA
ATOM     21  H   UNL     1       3.117  -1.271  -4.403  0.00  0.00    +0.209 HD
ENDBRANCH  19  20
ENDBRANCH  18  19
ENDBRANCH  17  18
ENDBRANCH   3  17
BRANCH   3  22
ATOM     22  C   UNL     1      -1.573  -0.810   0.180  0.00  0.00    +0.192 C 
BRANCH  22  23
ATOM     23  C   UNL     1      -0.791  -1.448   1.300  0.00  0.00    -0.015 A 
ATOM     24  C   UNL     1       0.567  -1.665   1.156  0.00  0.00    +0.010 A 
ATOM     25  C   UNL     1       1.289  -2.245   2.182  0.00  0.00    +0.049 A 
ATOM     26  C   UNL     1       0.651  -2.619   3.354  0.00  0.00    +0.158 A 
ATOM     27  C   UNL     1      -0.717  -2.406   3.496  0.00  0.00    +0.162 A 
ATOM     28  C   UNL     1      -1.434  -1.819   2.466  0.00  0.00    +0.055 A 
BRANCH  27  29
ATOM     29  O   UNL     1      -1.348  -2.771   4.644  0.00  0.00    -0.491 OA
ATOM     30  C   UNL     1      -2.753  -2.521   4.720  0.00  0.00    +0.277 C 
ENDBRANCH  27  29
BRANCH  26  31
ATOM     31  O   UNL     1       1.359  -3.195   4.362  0.00  0.00    -0.503 OA
ATOM     32  H   UNL     1       1.404  -4.159   4.311  0.00  0.00    +0.292 HD
ENDBRANCH  26  31
ENDBRANCH  22  23
BRANCH  22  33
ATOM     33  C   UNL     1      -1.952  -1.862  -0.830  0.00  0.00    +0.238 C 
ATOM     34  O   UNL     1      -1.111  -2.317  -1.577  0.00  0.00    -0.273 OA
ATOM     35  N   UNL     1      -3.225  -2.298  -0.904  0.00  0.00    -0.313 N 
ATOM     36  H   UNL     1      -3.898  -1.934  -0.307  0.00  0.00    +0.149 HD
BRANCH  35  37
ATOM     37  C   UNL     1      -3.594  -3.320  -1.886  0.00  0.00    +0.104 C 
BRANCH  37  38
ATOM     38  C   UNL     1      -5.086  -3.633  -1.761  0.00  0.00    +0.022 C 
BRANCH  38  39
ATOM     39  C   UNL     1      -5.471  -4.701  -2.787  0.00  0.00    -0.016 C 
ATOM     40  C   UNL     1      -4.754  -6.011  -2.454  0.00  0.00    +0.007 C 
ATOM     41  C   UNL     1      -6.984  -4.925  -2.748  0.00  0.00    +0.007 C 
ENDBRANCH  38  39
ENDBRANCH  37  38
ENDBRANCH  35  37
ENDBRANCH  22  33
ENDBRANCH   3  22
TORSDOF 15
