REMARK  Name = ZINC18148598
REMARK  3 active torsions:
REMARK  status: ('A' for Active; 'I' for Inactive)
REMARK    1  A    between atoms: C_4  and  C_8
REMARK    2  A    between atoms: N_9  and  N_10
REMARK    3  A    between atoms: C_11  and  C_13
REMARK                            x       y       z     vdW  Elec       q    Type
REMARK                         _______ _______ _______ _____ _____    ______ ____
ROOT
ATOM      1  N   UNL     1       4.939  -2.663  -0.060  0.00  0.00    -0.202 N 
ATOM      2  C   UNL     1       4.961  -4.010  -0.068  0.00  0.00    +0.284 C 
ATOM      3  O   UNL     1       3.918  -4.635  -0.060  0.00  0.00    -0.267 OA
ATOM      4  H   UNL     1       5.771  -2.164  -0.066  0.00  0.00    +0.178 HD
ENDROOT
BRANCH   2   5
ATOM      5  C   UNL     1       6.251  -4.728  -0.084  0.00  0.00    +0.152 A 
ATOM      6  C   UNL     1       6.437  -6.121  -0.099  0.00  0.00    +0.005 A 
ATOM      7  C   UNL     1       7.779  -6.318  -0.110  0.00  0.00    +0.040 A 
ATOM      8  N   UNL     1       8.358  -5.106  -0.105  0.00  0.00    -0.281 N 
ATOM      9  H   UNL     1       9.315  -4.947  -0.112  0.00  0.00    +0.189 HD
ATOM     10  N   UNL     1       7.457  -4.185  -0.094  0.00  0.00    -0.169 NA
ATOM     11  C   UNL     1       8.428  -7.678  -0.123  0.00  0.00    +0.055 C 
ATOM     12  C   UNL     1       7.380  -8.717   0.293  0.00  0.00    +0.006 C 
ATOM     13  C   UNL     1       6.105  -8.522  -0.532  0.00  0.00    +0.005 C 
ATOM     14  C   UNL     1       5.412  -7.221  -0.105  0.00  0.00    +0.039 C 
ENDBRANCH   2   5
BRANCH   1  16
ATOM     15  C   UNL     1       3.694  -0.684  -0.037  0.00  0.00    +0.142 C 
ATOM     16  N   UNL     1       3.715  -1.982  -0.044  0.00  0.00    -0.187 NA
BRANCH  15  20
ATOM     17  C   UNL     1      -0.017   1.379   0.010  0.00  0.00    +0.004 A 
ATOM     18  C   UNL     1       1.167   2.095   0.002  0.00  0.00    +0.039 A 
ATOM     19  C   UNL     1       2.379   1.431  -0.013  0.00  0.00    +0.133 A 
ATOM     20  C   UNL     1       2.406   0.032  -0.021  0.00  0.00    +0.048 A 
ATOM     21  C   UNL     1       1.205  -0.682  -0.013  0.00  0.00    +0.052 A 
ATOM     22  C   UNL     1       0.002  -0.004   0.002  0.00  0.00    +0.021 A 
ATOM     23 CL   UNL     1       1.225  -2.418  -0.023  0.00  0.00    -0.083 Cl
ATOM     24  F   UNL     1       3.535   2.131  -0.021  0.00  0.00    -0.205 F 
ENDBRANCH  15  20
ENDBRANCH   1  16
TORSDOF 3
