REMARK  Name = ZINC11872857
REMARK  6 active torsions:
REMARK  status: ('A' for Active; 'I' for Inactive)
REMARK    1  A    between atoms: C_4  and  O_28
REMARK    2  A    between atoms: C_5  and  C_7
REMARK    3  A    between atoms: C_7  and  N_57
REMARK    4  A    between atoms: C_13  and  C_16
REMARK    5  A    between atoms: C_16  and  N_17
REMARK    6  A    between atoms: C_18  and  C_20
REMARK                            x       y       z     vdW  Elec       q    Type
REMARK                         _______ _______ _______ _____ _____    ______ ____
ROOT
ATOM      1  C   UNL     1       1.118  -0.999   1.683  0.00  0.00    -0.076 C 
ATOM      2  C   UNL     1       1.647  -2.411   1.949  0.00  0.00    +0.016 C 
ATOM      3  C   UNL     1       1.149  -2.888   3.310  0.00  0.00    +0.067 C 
ATOM      4  C   UNL     1       1.706  -4.291   3.616  0.00  0.00    +0.037 C 
ATOM      5  C   UNL     1       0.537  -5.006   4.332  0.00  0.00    +0.036 C 
ATOM      6  C   UNL     1      -0.583  -3.942   4.378  0.00  0.00    +0.136 C 
ATOM      7  O   UNL     1      -0.281  -3.038   3.292  0.00  0.00    -0.369 OA
ATOM      8  C   UNL     1       1.563  -1.908   4.403  0.00  0.00    +0.016 C 
ATOM      9  C   UNL     1       1.038  -0.512   4.057  0.00  0.00    -0.076 C 
ATOM     10  N   UNL     1       1.600  -0.099   2.754  0.00  0.00    +0.383 N 
ATOM     11  H   UNL     1       2.624  -0.155   2.800  0.00  0.00    -0.081 HD
ENDROOT
BRANCH  10  12
ATOM     12  C   UNL     1       1.209   1.294   2.455  0.00  0.00    -0.039 C 
BRANCH  12  17
ATOM     13  C   UNL     1       2.329   2.400  -0.977  0.00  0.00    +0.000 A 
ATOM     14  C   UNL     1       3.650   2.740  -0.744  0.00  0.00    +0.004 A 
ATOM     15  C   UNL     1       4.182   2.616   0.525  0.00  0.00    +0.045 A 
ATOM     16  C   UNL     1       3.391   2.151   1.565  0.00  0.00    +0.118 A 
ATOM     17  C   UNL     1       2.069   1.806   1.328  0.00  0.00    -0.022 A 
ATOM     18  C   UNL     1       1.540   1.936   0.058  0.00  0.00    +0.005 A 
BRANCH  16  19
ATOM     19  O   UNL     1       3.913   2.029   2.815  0.00  0.00    -0.507 OA
ATOM     20  H   UNL     1       3.892   2.846   3.331  0.00  0.00    +0.292 HD
ENDBRANCH  16  19
ENDBRANCH  12  17
ENDBRANCH  10  12
BRANCH   6  21
ATOM     21  C   UNL     1      -1.949  -4.597   4.163  0.00  0.00    +0.135 C 
BRANCH  21  22
ATOM     22  N   UNL     1      -2.994  -3.572   4.210  0.00  0.00    -0.311 N 
ATOM     23  C   UNL     1      -4.286  -3.919   4.044  0.00  0.00    +0.242 C 
ATOM     24  O   UNL     1      -4.583  -5.080   3.855  0.00  0.00    -0.273 OA
ATOM     25  H   UNL     1      -2.757  -2.644   4.361  0.00  0.00    +0.149 HD
BRANCH  23  26
ATOM     26  C   UNL     1      -5.362  -2.865   4.093  0.00  0.00    +0.204 C 
ATOM     27  C   UNL     1      -5.435  -2.256   5.510  0.00  0.00    +0.043 C 
ATOM     28  C   UNL     1      -6.964  -2.084   5.716  0.00  0.00    +0.031 C 
ATOM     29  C   UNL     1      -7.506  -3.313   4.944  0.00  0.00    +0.161 C 
ATOM     30  O   UNL     1      -6.635  -3.457   3.810  0.00  0.00    -0.367 OA
ENDBRANCH  23  26
ENDBRANCH  21  22
ENDBRANCH   6  21
TORSDOF 6
