REMARK  Name = ZINC07827812
REMARK  4 active torsions:
REMARK  status: ('A' for Active; 'I' for Inactive)
REMARK    1  A    between atoms: C_1  and  N_2
REMARK    2  A    between atoms: C_3  and  C_5
REMARK    3  A    between atoms: C_16  and  C_18
REMARK    4  A    between atoms: C_21  and  C_23
REMARK                            x       y       z     vdW  Elec       q    Type
REMARK                         _______ _______ _______ _____ _____    ______ ____
ROOT
ATOM      1  C   UNL     1       5.551   4.258   0.465  0.00  0.00    +0.276 C 
ATOM      2  C   UNL     1       5.257   3.037  -0.411  0.00  0.00    +0.168 C 
ATOM      3  N   UNL     1       3.856   2.643  -0.181  0.00  0.00    -0.259 N 
ATOM      4  C   UNL     1       2.898   3.667  -0.087  0.00  0.00    +0.079 A 
ATOM      5  C   UNL     1       1.548   3.362  -0.152  0.00  0.00    +0.027 A 
ATOM      6  C   UNL     1       0.609   4.372  -0.056  0.00  0.00    +0.002 A 
ATOM      7  C   UNL     1       1.016   5.684   0.106  0.00  0.00    +0.004 A 
ATOM      8  C   UNL     1       2.361   5.993   0.171  0.00  0.00    +0.047 A 
ATOM      9  C   UNL     1       3.311   4.987   0.073  0.00  0.00    +0.143 A 
ATOM     10  O   UNL     1       4.632   5.301   0.130  0.00  0.00    -0.476 OA
ATOM     11  C   UNL     1       3.507   1.348  -0.059  0.00  0.00    +0.270 C 
ATOM     12  O   UNL     1       2.361   1.050   0.222  0.00  0.00    -0.268 OA
ENDROOT
BRANCH   1  15
ATOM     13  C   UNL     1       9.373   4.404   0.326  0.00  0.00    +0.128 C 
ATOM     14  N   UNL     1       8.002   3.945   0.564  0.00  0.00    -0.315 N 
ATOM     15  C   UNL     1       6.961   4.729   0.221  0.00  0.00    +0.255 C 
ATOM     16  O   UNL     1       7.159   5.814  -0.284  0.00  0.00    -0.272 OA
ATOM     17  H   UNL     1       7.844   3.078   0.968  0.00  0.00    +0.148 HD
ENDBRANCH   1  15
BRANCH  11  18
ATOM     18  C   UNL     1       4.512   0.291  -0.266  0.00  0.00    +0.134 A 
ATOM     19  C   UNL     1       4.207  -1.019   0.002  0.00  0.00    +0.080 A 
ATOM     20  S   UNL     1       5.699  -1.812  -0.402  0.00  0.00    -0.075 S 
ATOM     21  C   UNL     1       6.616  -0.362  -0.894  0.00  0.00    +0.110 A 
ATOM     22  N   UNL     1       5.723   0.595  -0.713  0.00  0.00    -0.234 NA
BRANCH  21  23
ATOM     23  C   UNL     1       8.010  -0.258  -1.373  0.00  0.00    +0.014 A 
ATOM     24  C   UNL     1       8.834  -1.382  -1.427  0.00  0.00    +0.018 A 
ATOM     25  C   UNL     1      10.098  -1.214  -1.875  0.00  0.00    +0.046 A 
ATOM     26  S   UNL     1      10.148   0.533  -2.228  0.00  0.00    -0.104 S 
ATOM     27  C   UNL     1       8.525   0.942  -1.779  0.00  0.00    +0.055 A 
ENDBRANCH  21  23
ENDBRANCH  11  18
TORSDOF 3
