REMARK  Name = ZINC39928665
REMARK  16 active torsions:
REMARK  status: ('A' for Active; 'I' for Inactive)
REMARK    1  A    between atoms: C_1  and  C_2
REMARK    2  A    between atoms: C_2  and  O_3
REMARK    3  A    between atoms: O_3  and  C_4
REMARK    4  A    between atoms: C_6  and  C_16
REMARK    5  A    between atoms: C_8  and  O_13
REMARK    6  A    between atoms: C_9  and  O_10
REMARK    7  A    between atoms: O_10  and  C_11
REMARK    8  A    between atoms: C_11  and  C_12
REMARK    9  A    between atoms: O_13  and  C_14
REMARK   10  A    between atoms: C_14  and  C_15
REMARK   11  A    between atoms: N_18  and  C_19
REMARK   12  A    between atoms: N_18  and  C_34
REMARK   13  A    between atoms: C_19  and  C_20
REMARK   14  A    between atoms: C_25  and  O_32
REMARK   15  A    between atoms: O_32  and  C_33
REMARK   16  A    between atoms: C_39  and  C_40
REMARK                            x       y       z     vdW  Elec       q    Type
REMARK                         _______ _______ _______ _____ _____    ______ ____
ROOT
ATOM      1  C   UNL     1       1.044  -5.105   0.076  0.00  0.00    +0.251 C 
ATOM      2  O   UNL     1       2.237  -4.906   0.203  0.00  0.00    -0.270 OA
ATOM      3  N   UNL     1       0.561  -6.362   0.136  0.00  0.00    -0.266 N 
ENDROOT
BRANCH   3   4
ATOM      4  C   UNL     1      -0.819  -6.585   0.078  0.00  0.00    +0.039 A 
ATOM      5  C   UNL     1      -1.645  -6.102   1.085  0.00  0.00    +0.024 A 
ATOM      6  C   UNL     1      -3.006  -6.323   1.024  0.00  0.00    +0.002 A 
ATOM      7  C   UNL     1      -3.548  -7.025  -0.037  0.00  0.00    +0.000 A 
ATOM      8  C   UNL     1      -2.728  -7.507  -1.041  0.00  0.00    +0.005 A 
ATOM      9  C   UNL     1      -1.366  -7.284  -0.990  0.00  0.00    -0.029 A 
ATOM     10  C   UNL     1      -0.475  -7.805  -2.088  0.00  0.00    +0.045 C 
ENDBRANCH   3   4
BRANCH   1  13
ATOM     11  C   UNL     1      -0.500  -1.687   0.284  0.00  0.00    +0.166 A 
ATOM     12  C   UNL     1       0.362  -2.748   0.490  0.00  0.00    +0.062 A 
ATOM     13  C   UNL     1       0.125  -3.971  -0.141  0.00  0.00    +0.044 A 
ATOM     14  C   UNL     1      -0.983  -4.119  -0.979  0.00  0.00    +0.062 A 
ATOM     15  C   UNL     1      -1.842  -3.055  -1.181  0.00  0.00    +0.166 A 
ATOM     16  C   UNL     1      -1.607  -1.839  -0.547  0.00  0.00    +0.204 A 
BRANCH  11  17
ATOM     17  O   UNL     1      -0.270  -0.495   0.898  0.00  0.00    -0.488 OA
BRANCH  17  19
ATOM     18  C   UNL     1       0.976   0.995   2.337  0.00  0.00    +0.048 C 
ATOM     19  C   UNL     1       0.884  -0.410   1.737  0.00  0.00    +0.226 C 
ENDBRANCH  17  19
ENDBRANCH  11  17
BRANCH  16  20
ATOM     20  O   UNL     1      -2.455  -0.796  -0.744  0.00  0.00    -0.485 OA
BRANCH  20  21
ATOM     21  C   UNL     1      -2.164   0.081  -1.834  0.00  0.00    +0.226 C 
ATOM     22  C   UNL     1      -3.221   1.186  -1.897  0.00  0.00    +0.048 C 
ENDBRANCH  20  21
ENDBRANCH  16  20
BRANCH  15  23
ATOM     23  O   UNL     1      -2.921  -3.199  -1.997  0.00  0.00    -0.488 OA
BRANCH  23  24
ATOM     24  C   UNL     1      -3.157  -4.500  -2.538  0.00  0.00    +0.226 C 
ATOM     25  C   UNL     1      -4.335  -4.442  -3.513  0.00  0.00    +0.048 C 
ENDBRANCH  23  24
ENDBRANCH  15  23
ENDBRANCH   1  13
BRANCH   3  26
ATOM     26  C   UNL     1       1.481  -7.495   0.261  0.00  0.00    +0.131 C 
BRANCH  26  27
ATOM     27  C   UNL     1       1.871  -7.676   1.729  0.00  0.00    +0.116 C 
ATOM     28  C   UNL     1       3.137  -8.509   1.775  0.00  0.00    -0.003 C 
ATOM     29  C   UNL     1       3.092  -9.675   2.480  0.00  0.00    -0.004 A 
ATOM     30  C   UNL     1       4.269 -10.539   2.575  0.00  0.00    +0.055 A 
ATOM     31  C   UNL     1       4.178 -11.695   3.290  0.00  0.00    +0.121 A 
ATOM     32  C   UNL     1       2.988 -12.063   3.929  0.00  0.00    +0.047 A 
ATOM     33  C   UNL     1       1.865 -11.303   3.876  0.00  0.00    +0.027 A 
ATOM     34  C   UNL     1       1.854 -10.089   3.163  0.00  0.00    +0.041 A 
ATOM     35  N   UNL     1       0.744  -9.353   3.120  0.00  0.00    -0.284 N 
ATOM     36  C   UNL     1       0.664  -8.206   2.469  0.00  0.00    +0.226 C 
ATOM     37  O   UNL     1      -0.378  -7.578   2.466  0.00  0.00    -0.275 OA
ATOM     38  H   UNL     1      -0.042  -9.674   3.589  0.00  0.00    +0.155 HD
BRANCH  31  39
ATOM     39  O   UNL     1       5.265 -12.507   3.386  0.00  0.00    -0.495 OA
ATOM     40  C   UNL     1       5.114 -13.706   4.148  0.00  0.00    +0.277 C 
ENDBRANCH  31  39
ENDBRANCH  26  27
ENDBRANCH   3  26
TORSDOF 11
