REMARK  Name = ZINC38773494
REMARK  4 active torsions:
REMARK  status: ('A' for Active; 'I' for Inactive)
REMARK    1  A    between atoms: C_1  and  C_2
REMARK    2  A    between atoms: C_2  and  C_3
REMARK    3  A    between atoms: C_17  and  C_20
REMARK    4  A    between atoms: C_23  and  O_27
REMARK                            x       y       z     vdW  Elec       q    Type
REMARK                         _______ _______ _______ _____ _____    ______ ____
ROOT
ATOM      1  C   UNL     1       1.918  -0.397   1.064  0.00  0.00    -0.047 A 
ATOM      2  C   UNL     1       3.239  -0.722   1.313  0.00  0.00    +0.005 A 
ATOM      3  C   UNL     1       3.602  -1.236   2.541  0.00  0.00    +0.023 A 
ATOM      4  C   UNL     1       2.640  -1.427   3.529  0.00  0.00    +0.033 A 
ATOM      5  C   UNL     1       1.318  -1.097   3.278  0.00  0.00    +0.003 A 
ATOM      6  C   UNL     1       0.962  -0.579   2.045  0.00  0.00    +0.011 A 
ATOM      7  C   UNL     1       0.251  -1.277   4.329  0.00  0.00    +0.155 C 
ATOM      8  C   UNL     1       0.709  -2.296   5.369  0.00  0.00    +0.047 C 
ATOM      9  C   UNL     1      -0.278  -2.358   6.531  0.00  0.00    +0.011 C 
ATOM     10  C   UNL     1      -0.474  -0.955   7.112  0.00  0.00    +0.028 C 
ATOM     11  C   UNL     1      -0.945  -0.020   5.994  0.00  0.00    +0.160 C 
ATOM     12  O   UNL     1       0.011  -0.015   4.957  0.00  0.00    -0.372 OA
ATOM     13  C   UNL     1       2.090  -1.894   5.894  0.00  0.00    +0.106 C 
ATOM     14  N   UNL     1       3.030  -1.956   4.764  0.00  0.00    -0.336 N 
ATOM     15  H   UNL     1       3.908  -2.355   4.874  0.00  0.00    +0.147 HD
ENDROOT
BRANCH  13  16
ATOM     16  C   UNL     1       2.039  -0.493   6.446  0.00  0.00    -0.026 A 
ATOM     17  C   UNL     1       2.125  -0.285   7.810  0.00  0.00    +0.009 A 
ATOM     18  C   UNL     1       2.078   0.999   8.319  0.00  0.00    +0.047 A 
ATOM     19  C   UNL     1       1.944   2.080   7.460  0.00  0.00    +0.131 A 
ATOM     20  C   UNL     1       1.858   1.869   6.091  0.00  0.00    +0.060 A 
ATOM     21  C   UNL     1       1.911   0.583   5.587  0.00  0.00    +0.024 A 
ATOM     22 BR   UNL     1       1.675   3.340   4.917  0.00  0.00    -0.047 Br
BRANCH  19  23
ATOM     23  O   UNL     1       1.897   3.343   7.959  0.00  0.00    -0.506 OA
ATOM     24  H   UNL     1       2.762   3.767   8.040  0.00  0.00    +0.292 HD
ENDBRANCH  19  23
ENDBRANCH  13  16
BRANCH   1  26
ATOM     25  C   UNL     1       1.631   1.688  -0.247  0.00  0.00    +0.009 C 
ATOM     26  C   UNL     1       1.522   0.162  -0.278  0.00  0.00    +0.032 C 
ENDBRANCH   1  26
TORSDOF 3
