REMARK  Name = ZINC59816547
REMARK  6 active torsions:
REMARK  status: ('A' for Active; 'I' for Inactive)
REMARK    1  A    between atoms: C_1  and  C_2
REMARK    2  A    between atoms: C_9  and  C_11
REMARK    3  A    between atoms: C_11  and  S_12
REMARK    4  A    between atoms: S_12  and  C_13
REMARK    5  A    between atoms: N_18  and  N_19
REMARK    6  A    between atoms: C_20  and  C_21
REMARK                            x       y       z     vdW  Elec       q    Type
REMARK                         _______ _______ _______ _____ _____    ______ ____
ROOT
ATOM      1  C   UNL     1       4.254   0.472   5.022  0.00  0.00    +0.211 A 
ATOM      2  N   UNL     1       5.019   1.114   5.910  0.00  0.00    -0.186 NA
ATOM      3  C   UNL     1       5.633   0.240   6.680  0.00  0.00    +0.232 A 
ATOM      4  N   UNL     1       5.261  -0.997   6.286  0.00  0.00    -0.245 N 
ATOM      5  N   UNL     1       4.366  -0.821   5.218  0.00  0.00    -0.144 NA
ATOM      6  N   UNL     1       6.506   0.536   7.711  0.00  0.00    -0.205 N 
ATOM      7  H   UNL     1       6.911  -0.180   8.224  0.00  0.00    +0.177 HD
ATOM      8  H   UNL     1       5.551  -1.840   6.668  0.00  0.00    +0.192 HD
ENDROOT
BRANCH   6   9
ATOM      9  N   UNL     1       6.805   1.871   8.014  0.00  0.00    -0.188 NA
ATOM     10  C   UNL     1       7.627   2.150   8.985  0.00  0.00    +0.139 C 
BRANCH  10  11
ATOM     11  C   UNL     1       7.939   3.545   9.302  0.00  0.00    +0.010 A 
ATOM     12  C   UNL     1       8.921   3.855  10.266  0.00  0.00    -0.009 A 
ATOM     13  C   UNL     1       9.620   2.841  10.943  0.00  0.00    +0.009 A 
ATOM     14  C   UNL     1      10.560   3.174  11.867  0.00  0.00    +0.001 A 
ATOM     15  C   UNL     1      10.854   4.503  12.165  0.00  0.00    +0.001 A 
ATOM     16  C   UNL     1      10.215   5.530  11.547  0.00  0.00    +0.008 A 
ATOM     17  C   UNL     1       9.228   5.253  10.577  0.00  0.00    -0.017 A 
ATOM     18  C   UNL     1       8.554   6.285   9.924  0.00  0.00    +0.017 A 
ATOM     19  C   UNL     1       7.581   5.987   8.968  0.00  0.00    -0.017 A 
ATOM     20  C   UNL     1       7.267   4.595   8.642  0.00  0.00    -0.009 A 
ATOM     21  C   UNL     1       6.285   4.331   7.671  0.00  0.00    +0.009 A 
ATOM     22  C   UNL     1       5.655   5.366   7.054  0.00  0.00    +0.001 A 
ATOM     23  C   UNL     1       5.957   6.692   7.358  0.00  0.00    +0.001 A 
ATOM     24  C   UNL     1       6.886   7.015   8.295  0.00  0.00    +0.008 A 
ENDBRANCH  10  11
ENDBRANCH   6   9
BRANCH   1  25
ATOM     25  S   UNL     1       3.251   1.237   3.792  0.00  0.00    -0.075 S 
BRANCH  25  26
ATOM     26  C   UNL     1       2.472  -0.156   2.931  0.00  0.00    +0.173 C 
BRANCH  26  34
ATOM     27  C   UNL     1       0.074   1.523  -0.068  0.00  0.00    +0.028 C 
ATOM     28  C   UNL     1       0.093  -0.007  -0.074  0.00  0.00    +0.073 C 
ATOM     29  C   UNL     1      -1.338  -0.539   0.057  0.00  0.00    +0.022 C 
ATOM     30  C   UNL     1      -1.301  -2.063   0.190  0.00  0.00    +0.003 C 
ATOM     31  C   UNL     1      -0.525  -2.448   1.452  0.00  0.00    +0.019 C 
ATOM     32  C   UNL     1       0.914  -1.938   1.337  0.00  0.00    +0.108 C 
ATOM     33  N   UNL     1       0.887  -0.494   1.062  0.00  0.00    -0.298 N 
ATOM     34  C   UNL     1       1.575   0.366   1.839  0.00  0.00    +0.226 C 
ATOM     35  O   UNL     1       1.471   1.561   1.659  0.00  0.00    -0.275 OA
ENDBRANCH  26  34
ENDBRANCH  25  26
ENDBRANCH   1  25
TORSDOF 5
