REMARK  Name = ZINC56062480
REMARK  8 active torsions:
REMARK  status: ('A' for Active; 'I' for Inactive)
REMARK    1  A    between atoms: C_1  and  C_2
REMARK    2  A    between atoms: C_5  and  S_9
REMARK    3  A    between atoms: C_6  and  C_8
REMARK    4  A    between atoms: S_9  and  N_12
REMARK    5  A    between atoms: N_12  and  C_13
REMARK    6  A    between atoms: C_13  and  C_14
REMARK    7  A    between atoms: C_22  and  C_29
REMARK    8  A    between atoms: C_25  and  C_28
REMARK                            x       y       z     vdW  Elec       q    Type
REMARK                         _______ _______ _______ _____ _____    ______ ____
ROOT
ATOM      1  C   UNL     1       3.271  -6.222   2.352  0.00  0.00    -0.016 A 
ATOM      2  C   UNL     1       3.032  -7.519   2.787  0.00  0.00    +0.009 A 
ATOM      3  C   UNL     1       4.115  -8.344   3.031  0.00  0.00    +0.042 A 
ATOM      4  C   UNL     1       5.400  -7.849   2.832  0.00  0.00    +0.099 A 
ATOM      5  N   UNL     1       5.587  -6.606   2.416  0.00  0.00    -0.349 N 
ATOM      6  C   UNL     1       4.572  -5.799   2.170  0.00  0.00    +0.089 A 
ATOM      7  N   UNL     1       6.498  -8.666   3.074  0.00  0.00    -0.312 N 
ATOM      8  C   UNL     1       7.869  -8.135   3.001  0.00  0.00    +0.137 C 
ATOM      9  C   UNL     1       8.610  -8.531   4.283  0.00  0.00    +0.133 C 
ATOM     10  O   UNL     1       8.485  -9.942   4.482  0.00  0.00    -0.371 OA
ATOM     11  C   UNL     1       7.141 -10.389   4.673  0.00  0.00    +0.133 C 
ATOM     12  C   UNL     1       6.324 -10.087   3.416  0.00  0.00    +0.137 C 
ATOM     13  C   UNL     1       7.136 -11.896   4.938  0.00  0.00    +0.039 C 
ATOM     14  C   UNL     1       8.001  -7.790   5.475  0.00  0.00    +0.039 C 
ATOM     15  H   UNL     1       6.491  -6.282   2.285  0.00  0.00    +0.167 HD
ENDROOT
BRANCH   1  16
ATOM     16  C   UNL     1       2.120  -5.289   2.074  0.00  0.00    +0.142 C 
BRANCH  16  17
ATOM     17  N   UNL     1       1.708  -5.425   0.674  0.00  0.00    -0.186 NA
ATOM     18  H   UNL     1       2.292  -5.866   0.038  0.00  0.00    +0.148 HD
BRANCH  17  19
ATOM     19  S   UNL     1       0.246  -4.825   0.180  0.00  0.00    +0.059 S 
ATOM     20  O   UNL     1      -0.723  -5.307   1.102  0.00  0.00    -0.153 OA
ATOM     21  O   UNL     1       0.157  -5.072  -1.216  0.00  0.00    -0.153 OA
BRANCH  19  26
ATOM     22  C   UNL     1       0.453   1.165   0.867  0.00  0.00    +0.044 C 
ATOM     23  C   UNL     1       0.401  -0.331   0.695  0.00  0.00    -0.050 A 
ATOM     24  C   UNL     1      -0.483  -1.083   1.446  0.00  0.00    +0.005 A 
ATOM     25  C   UNL     1      -0.531  -2.455   1.289  0.00  0.00    +0.029 A 
ATOM     26  C   UNL     1       0.305  -3.076   0.380  0.00  0.00    +0.108 A 
ATOM     27  C   UNL     1       1.189  -2.324  -0.372  0.00  0.00    -0.024 A 
ATOM     28  C   UNL     1       1.233  -0.951  -0.217  0.00  0.00    +0.008 A 
ATOM     29  C   UNL     1       2.101  -3.001  -1.362  0.00  0.00    +0.046 C 
ENDBRANCH  19  26
ENDBRANCH  17  19
ENDBRANCH  16  17
ENDBRANCH   1  16
TORSDOF 4
