REMARK  Name = ZINC46695193
REMARK  8 active torsions:
REMARK  status: ('A' for Active; 'I' for Inactive)
REMARK    1  A    between atoms: C_1  and  C_2
REMARK    2  A    between atoms: C_2  and  C_3
REMARK    3  A    between atoms: N_12  and  C_13
REMARK    4  A    between atoms: C_13  and  C_15
REMARK    5  A    between atoms: C_13  and  C_16
REMARK    6  A    between atoms: C_19  and  N_22
REMARK    7  A    between atoms: C_23  and  C_25
REMARK    8  A    between atoms: C_25  and  C_26
REMARK                            x       y       z     vdW  Elec       q    Type
REMARK                         _______ _______ _______ _____ _____    ______ ____
ROOT
ATOM      1  C   UNL     1       4.272   2.088  -0.939  0.00  0.00    +0.102 C 
ATOM      2  C   UNL     1       4.633   1.157  -2.098  0.00  0.00    +0.033 C 
ENDROOT
BRANCH   1  11
ATOM      3  C   UNL     1       0.742  -0.428   1.300  0.00  0.00    +0.077 C 
ATOM      4  C   UNL     1       0.792  -1.954   1.413  0.00  0.00    +0.022 C 
ATOM      5  C   UNL     1       1.638  -2.345   2.627  0.00  0.00    +0.003 C 
ATOM      6  C   UNL     1       3.067  -1.827   2.443  0.00  0.00    +0.019 C 
ATOM      7  C   UNL     1       3.042  -0.298   2.341  0.00  0.00    +0.109 C 
ATOM      8  N   UNL     1       2.116   0.092   1.270  0.00  0.00    -0.283 N 
ATOM      9  C   UNL     1       2.519   0.909   0.277  0.00  0.00    +0.303 C 
ATOM     10  O   UNL     1       1.719   1.301  -0.551  0.00  0.00    -0.253 OA
ATOM     11  N   UNL     1       3.809   1.292   0.201  0.00  0.00    -0.293 N 
ATOM     12  H   UNL     1       4.431   1.041   0.901  0.00  0.00    +0.151 HD
BRANCH   3  14
ATOM     13  C   UNL     1      -1.400  -0.612   0.027  0.00  0.00    +0.006 C 
ATOM     14  C   UNL     1       0.016  -0.032   0.013  0.00  0.00    +0.019 C 
ENDBRANCH   3  14
ENDBRANCH   1  11
BRANCH   1  15
ATOM     15  C   UNL     1       5.487   2.883  -0.536  0.00  0.00    -0.027 A 
ATOM     16  C   UNL     1       6.454   2.307   0.266  0.00  0.00    +0.007 A 
ATOM     17  C   UNL     1       7.569   3.033   0.636  0.00  0.00    +0.023 A 
ATOM     18  C   UNL     1       7.718   4.343   0.202  0.00  0.00    +0.033 A 
ATOM     19  C   UNL     1       6.745   4.920  -0.604  0.00  0.00    +0.023 A 
ATOM     20  C   UNL     1       5.635   4.186  -0.975  0.00  0.00    +0.007 A 
BRANCH  18  21
ATOM     21  N   UNL     1       8.846   5.082   0.576  0.00  0.00    -0.286 N 
ATOM     22  C   UNL     1      10.038   4.468   0.715  0.00  0.00    +0.217 C 
ATOM     23  O   UNL     1      10.153   3.296   0.427  0.00  0.00    -0.275 OA
ATOM     24  H   UNL     1       8.770   6.036   0.736  0.00  0.00    +0.155 HD
BRANCH  22  25
ATOM     25  C   UNL     1      11.227   5.239   1.228  0.00  0.00    +0.093 C 
ATOM     26  C   UNL     1      12.445   4.315   1.290  0.00  0.00    +0.013 C 
ENDBRANCH  22  25
ENDBRANCH  18  21
ENDBRANCH   1  15
TORSDOF 5
