REMARK  Name = ZINC12487872
REMARK  12 active torsions:
REMARK  status: ('A' for Active; 'I' for Inactive)
REMARK    1  A    between atoms: C_1  and  C_2
REMARK    2  A    between atoms: C_2  and  C_3
REMARK    3  A    between atoms: C_8  and  N_9
REMARK    4  A    between atoms: N_9  and  C_10
REMARK    5  A    between atoms: C_10  and  C_12
REMARK    6  A    between atoms: C_10  and  C_19
REMARK    7  A    between atoms: C_15  and  C_18
REMARK    8  A    between atoms: N_21  and  C_22
REMARK    9  A    between atoms: C_22  and  C_23
REMARK   10  A    between atoms: C_28  and  C_30
REMARK   11  A    between atoms: C_30  and  N_31
REMARK   12  A    between atoms: C_32  and  C_34
REMARK                            x       y       z     vdW  Elec       q    Type
REMARK                         _______ _______ _______ _____ _____    ______ ____
ROOT
ATOM      1  N   UNL     1       1.500   3.411  -0.115  0.00  0.00    -0.254 N 
ATOM      2  C   UNL     1       1.841   4.081   1.004  0.00  0.00    +0.238 C 
ATOM      3  O   UNL     1       2.261   5.216   0.928  0.00  0.00    -0.274 OA
ENDROOT
BRANCH   1   9
ATOM      4  C   UNL     1      -0.218   1.758   0.275  0.00  0.00    -0.026 A 
ATOM      5  C   UNL     1      -0.610   0.436   0.354  0.00  0.00    +0.005 A 
ATOM      6  C   UNL     1       0.306  -0.573   0.125  0.00  0.00    +0.000 A 
ATOM      7  C   UNL     1       1.619  -0.263  -0.183  0.00  0.00    +0.002 A 
ATOM      8  C   UNL     1       2.017   1.056  -0.264  0.00  0.00    +0.024 A 
ATOM      9  C   UNL     1       1.099   2.073  -0.034  0.00  0.00    +0.041 A 
BRANCH   4  11
ATOM     10  C   UNL     1      -1.780   3.349  -0.811  0.00  0.00    +0.009 C 
ATOM     11  C   UNL     1      -1.217   2.858   0.525  0.00  0.00    +0.033 C 
ENDBRANCH   4  11
ENDBRANCH   1   9
BRANCH   1  12
ATOM     12  C   UNL     1       1.549   4.085  -1.415  0.00  0.00    +0.197 C 
BRANCH  12  13
ATOM     13  C   UNL     1       2.972   4.472  -1.726  0.00  0.00    -0.018 A 
ATOM     14  C   UNL     1       3.996   3.566  -1.521  0.00  0.00    +0.006 A 
ATOM     15  C   UNL     1       5.300   3.920  -1.811  0.00  0.00    +0.004 A 
ATOM     16  C   UNL     1       5.582   5.183  -2.296  0.00  0.00    -0.050 A 
ATOM     17  C   UNL     1       4.559   6.091  -2.497  0.00  0.00    +0.004 A 
ATOM     18  C   UNL     1       3.254   5.735  -2.211  0.00  0.00    +0.006 A 
ATOM     19  C   UNL     1       7.005   5.571  -2.607  0.00  0.00    +0.044 C 
ENDBRANCH  12  13
BRANCH  12  20
ATOM     20  C   UNL     1       1.037   3.153  -2.483  0.00  0.00    +0.239 C 
ATOM     21  O   UNL     1       0.630   2.051  -2.182  0.00  0.00    -0.273 OA
ATOM     22  N   UNL     1       1.032   3.544  -3.772  0.00  0.00    -0.306 N 
ATOM     23  H   UNL     1       1.358   4.425  -4.013  0.00  0.00    +0.149 HD
BRANCH  22  24
ATOM     24  C   UNL     1       0.534   2.638  -4.811  0.00  0.00    +0.178 C 
BRANCH  24  25
ATOM     25  C   UNL     1       0.636   3.311  -6.155  0.00  0.00    +0.122 A 
ATOM     26  C   UNL     1       1.694   3.256  -6.984  0.00  0.00    +0.046 A 
ATOM     27  C   UNL     1       1.361   4.024  -8.124  0.00  0.00    +0.041 A 
ATOM     28  C   UNL     1       0.120   4.502  -7.923  0.00  0.00    +0.195 A 
ATOM     29  O   UNL     1      -0.317   4.062  -6.731  0.00  0.00    -0.466 OA
ENDBRANCH  24  25
ENDBRANCH  22  24
ENDBRANCH  12  20
ENDBRANCH   1  12
BRANCH   2  30
ATOM     30  C   UNL     1       1.699   3.419   2.351  0.00  0.00    +0.201 C 
BRANCH  30  31
ATOM     31  N   UNL     1       2.017   4.385   3.406  0.00  0.00    -0.302 N 
ATOM     32  C   UNL     1       1.957   4.014   4.700  0.00  0.00    +0.251 C 
ATOM     33  O   UNL     1       1.640   2.876   4.992  0.00  0.00    -0.270 OA
ATOM     34  H   UNL     1       2.270   5.292   3.172  0.00  0.00    +0.150 HD
BRANCH  32  35
ATOM     35  C   UNL     1       2.276   4.980   5.755  0.00  0.00    +0.074 A 
ATOM     36  C   UNL     1       2.270   4.806   7.130  0.00  0.00    +0.021 A 
ATOM     37  C   UNL     1       2.616   5.889   7.899  0.00  0.00    +0.008 A 
ATOM     38  C   UNL     1       2.932   7.062   7.289  0.00  0.00    +0.046 A 
ATOM     39  S   UNL     1       2.763   6.690   5.604  0.00  0.00    -0.092 S 
ENDBRANCH  32  35
ENDBRANCH  30  31
ENDBRANCH   2  30
TORSDOF 10
