REMARK  Name = ZINC37372386
REMARK  8 active torsions:
REMARK  status: ('A' for Active; 'I' for Inactive)
REMARK    1  A    between atoms: C_1  and  C_2
REMARK    2  A    between atoms: C_2  and  C_3
REMARK    3  A    between atoms: C_2  and  N_4
REMARK    4  A    between atoms: N_4  and  C_5
REMARK    5  A    between atoms: C_5  and  C_6
REMARK    6  A    between atoms: C_6  and  C_8
REMARK    7  A    between atoms: C_6  and  O_21
REMARK    8  A    between atoms: C_8  and  N_9
REMARK                            x       y       z     vdW  Elec       q    Type
REMARK                         _______ _______ _______ _____ _____    ______ ____
ROOT
ATOM      1  N   UNL     1      -4.149  -4.525  -0.249  0.00  0.00    -0.263 N 
ATOM      2  C   UNL     1      -4.838  -4.749  -1.450  0.00  0.00    +0.079 A 
ATOM      3  C   UNL     1      -4.158  -4.813  -2.655  0.00  0.00    +0.042 A 
ATOM      4  C   UNL     1      -4.857  -5.034  -3.828  0.00  0.00    +0.020 A 
ATOM      5  C   UNL     1      -6.231  -5.191  -3.800  0.00  0.00    +0.019 A 
ATOM      6  C   UNL     1      -6.915  -5.129  -2.599  0.00  0.00    +0.048 A 
ATOM      7  C   UNL     1      -6.223  -4.909  -1.422  0.00  0.00    +0.143 A 
ATOM      8  O   UNL     1      -6.879  -4.848  -0.232  0.00  0.00    -0.481 OA
ATOM      9  C   UNL     1      -6.176  -5.332   0.915  0.00  0.00    +0.325 C 
ATOM     10  C   UNL     1      -4.772  -4.785   0.921  0.00  0.00    +0.258 C 
ATOM     11  O   UNL     1      -4.205  -4.574   1.972  0.00  0.00    -0.272 OA
ATOM     12 BR   UNL     1      -3.931  -5.122  -5.475  0.00  0.00    -0.050 Br
ENDROOT
BRANCH   1  13
ATOM     13  C   UNL     1      -2.773  -4.022  -0.264  0.00  0.00    +0.143 C 
BRANCH  13  14
ATOM     14  C   UNL     1      -2.789  -2.496  -0.369  0.00  0.00    +0.115 C 
BRANCH  14  15
ATOM     15  O   UNL     1      -3.374  -1.943   0.812  0.00  0.00    -0.392 OA
ATOM     16  H   UNL     1      -2.860  -2.099   1.616  0.00  0.00    +0.210 HD
ENDBRANCH  14  15
BRANCH  14  17
ATOM     17  C   UNL     1      -1.356  -1.980  -0.518  0.00  0.00    -0.049 C 
BRANCH  17  18
ATOM     18  N   UNL     1      -1.371  -0.515  -0.619  0.00  0.00    +0.382 N 
ATOM     19  H   UNL     1      -1.784  -0.124   0.215  0.00  0.00    -0.085 HD
ATOM     20  H   UNL     1      -1.914  -0.239  -1.424  0.00  0.00    -0.085 HD
BRANCH  18  22
ATOM     21  C   UNL     1      -0.019   1.493  -0.992  0.00  0.00    -0.014 C 
ATOM     22  C   UNL     1       0.004  -0.020  -0.762  0.00  0.00    -0.078 C 
ATOM     23  C   UNL     1       0.793  -0.330   0.512  0.00  0.00    -0.014 C 
ENDBRANCH  18  22
ENDBRANCH  17  18
ENDBRANCH  14  17
ENDBRANCH  13  14
ENDBRANCH   1  13
TORSDOF 6
