REMARK  Name = ZINC56782936
REMARK  4 active torsions:
REMARK  status: ('A' for Active; 'I' for Inactive)
REMARK    1  A    between atoms: C_1  and  C_2
REMARK    2  A    between atoms: C_7  and  N_12
REMARK    3  A    between atoms: C_9  and  C_11
REMARK    4  A    between atoms: C_19  and  C_22
REMARK                            x       y       z     vdW  Elec       q    Type
REMARK                         _______ _______ _______ _____ _____    ______ ____
ROOT
ATOM      1  N   UNL     1       1.472  -2.526   2.420  0.00  0.00    -0.296 N 
ATOM      2  C   UNL     1       2.056  -3.740   2.406  0.00  0.00    +0.302 C 
ATOM      3  O   UNL     1       1.919  -4.470   1.444  0.00  0.00    -0.253 OA
ATOM      4  N   UNL     1       2.793  -4.145   3.459  0.00  0.00    -0.285 N 
ATOM      5  C   UNL     1       3.531  -5.415   3.413  0.00  0.00    +0.109 C 
ATOM      6  C   UNL     1       4.999  -5.145   3.759  0.00  0.00    +0.020 C 
ATOM      7  C   UNL     1       5.076  -4.422   5.106  0.00  0.00    +0.016 C 
ATOM      8  C   UNL     1       4.348  -3.079   5.008  0.00  0.00    +0.093 C 
ATOM      9  C   UNL     1       2.878  -3.323   4.674  0.00  0.00    +0.122 C 
ATOM     10  H   UNL     1       1.520  -1.973   3.216  0.00  0.00    +0.151 HD
ENDROOT
BRANCH   8  11
ATOM     11  C   UNL     1       4.454  -2.354   6.325  0.00  0.00    +0.223 C 
ATOM     12  O   UNL     1       5.053  -2.860   7.250  0.00  0.00    -0.275 OA
ATOM     13  N   UNL     1       3.883  -1.142   6.474  0.00  0.00    -0.264 N 
ATOM     14  C   UNL     1       3.981  -0.472   7.688  0.00  0.00    +0.164 A 
ATOM     15  N   UNL     1       4.588  -0.859   8.788  0.00  0.00    -0.233 NA
ATOM     16  C   UNL     1       4.591  -0.101   9.869  0.00  0.00    +0.120 A 
ATOM     17  C   UNL     1       3.941   1.086   9.791  0.00  0.00    +0.068 A 
ATOM     18  S   UNL     1       3.356   1.034   8.105  0.00  0.00    -0.061 S 
ATOM     19  H   UNL     1       3.405  -0.737   5.734  0.00  0.00    +0.157 HD
ENDBRANCH   8  11
BRANCH   1  25
ATOM     20  C   UNL     1      -0.014   1.527   0.009  0.00  0.00    +0.008 C 
ATOM     21  C   UNL     1       0.006  -0.003   0.001  0.00  0.00    -0.009 C 
ATOM     22  C   UNL     1      -1.430  -0.531   0.010  0.00  0.00    +0.003 C 
ATOM     23  C   UNL     1      -1.410  -2.061   0.002  0.00  0.00    +0.002 C 
ATOM     24  C   UNL     1      -0.671  -2.569   1.242  0.00  0.00    +0.022 C 
ATOM     25  C   UNL     1       0.765  -2.040   1.232  0.00  0.00    +0.078 C 
ATOM     26  C   UNL     1       0.745  -0.510   1.241  0.00  0.00    +0.009 C 
ATOM     27  C   UNL     1       0.028  -0.017   2.499  0.00  0.00    +0.009 C 
ENDBRANCH   1  25
TORSDOF 2
