REMARK  Name = ZINC33070655
REMARK  5 active torsions:
REMARK  status: ('A' for Active; 'I' for Inactive)
REMARK    1  A    between atoms: C_1  and  C_2
REMARK    2  A    between atoms: C_2  and  C_3
REMARK    3  A    between atoms: C_2  and  C_4
REMARK    4  A    between atoms: C_4  and  N_5
REMARK    5  A    between atoms: C_14  and  C_16
REMARK                            x       y       z     vdW  Elec       q    Type
REMARK                         _______ _______ _______ _____ _____    ______ ____
ROOT
ATOM      1  N   UNL     1       1.205  11.879  -0.846  0.00  0.00    -0.299 N 
ATOM      2  C   UNL     1      -0.057  11.418  -0.737  0.00  0.00    +0.302 C 
ATOM      3  O   UNL     1      -0.973  12.194  -0.543  0.00  0.00    -0.253 OA
ATOM      4  N   UNL     1      -0.304  10.098  -0.843  0.00  0.00    -0.283 N 
ATOM      5  C   UNL     1      -1.684   9.593  -0.848  0.00  0.00    +0.128 C 
ATOM      6  C   UNL     1      -1.827   8.547   0.266  0.00  0.00    +0.127 C 
ATOM      7  N   UNL     1      -0.721   7.586   0.152  0.00  0.00    -0.293 N 
ATOM      8  C   UNL     1       0.659   8.091   0.163  0.00  0.00    +0.127 C 
ATOM      9  C   UNL     1       0.802   9.137  -0.956  0.00  0.00    +0.128 C 
ATOM     10  C   UNL     1      -0.968   6.266   0.047  0.00  0.00    +0.266 C 
ATOM     11  O   UNL     1      -2.103   5.872  -0.140  0.00  0.00    -0.268 OA
ATOM     12  H   UNL     1       2.042  11.172  -0.940  0.00  0.00    +0.150 HD
ENDROOT
BRANCH  10  13
ATOM     13  C   UNL     1       0.139   5.298   0.158  0.00  0.00    +0.142 A 
ATOM     14  C   UNL     1      -0.083   3.879  -0.099  0.00  0.00    +0.021 A 
ATOM     15  C   UNL     1      -1.230   3.154  -0.464  0.00  0.00    +0.011 A 
ATOM     16  C   UNL     1      -1.157   1.806  -0.649  0.00  0.00    +0.001 A 
ATOM     17  C   UNL     1       0.036   1.116  -0.473  0.00  0.00    +0.001 A 
ATOM     18  C   UNL     1       1.173   1.792  -0.117  0.00  0.00    +0.017 A 
ATOM     19  C   UNL     1       1.119   3.156   0.069  0.00  0.00    +0.040 A 
ATOM     20  S   UNL     1       2.272   4.422   0.515  0.00  0.00    +0.012 S 
ATOM     21  N   UNL     1       1.339   5.691   0.488  0.00  0.00    -0.205 NA
ENDBRANCH  10  13
BRANCH   1  22
ATOM     22  C   UNL     1       1.461  13.322  -0.840  0.00  0.00    +0.108 C 
BRANCH  22  24
ATOM     23  C   UNL     1       3.441  13.083  -2.345  0.00  0.00    +0.009 C 
ATOM     24  C   UNL     1       2.964  13.573  -0.977  0.00  0.00    -0.000 C 
ATOM     25  C   UNL     1       3.244  15.071  -0.846  0.00  0.00    +0.009 C 
ENDBRANCH  22  24
ENDBRANCH   1  22
TORSDOF 3
