REMARK  Name = ZINC41020388
REMARK  12 active torsions:
REMARK  status: ('A' for Active; 'I' for Inactive)
REMARK    1  A    between atoms: C_1  and  C_2
REMARK    2  A    between atoms: C_2  and  C_3
REMARK    3  A    between atoms: C_3  and  C_4
REMARK    4  A    between atoms: C_4  and  S_5
REMARK    5  A    between atoms: S_5  and  C_6
REMARK    6  A    between atoms: C_11  and  C_29
REMARK    7  A    between atoms: C_13  and  C_17
REMARK    8  A    between atoms: C_14  and  C_16
REMARK    9  A    between atoms: N_19  and  C_20
REMARK   10  A    between atoms: C_25  and  O_26
REMARK   11  A    between atoms: O_26  and  C_27
REMARK   12  A    between atoms: C_27  and  C_28
REMARK                            x       y       z     vdW  Elec       q    Type
REMARK                         _______ _______ _______ _____ _____    ______ ____
ROOT
ATOM      1  C   UNL     1       1.639  -4.366  -2.607  0.00  0.00    +0.210 A 
ATOM      2  N   UNL     1       1.051  -5.039  -1.608  0.00  0.00    -0.187 NA
ATOM      3  C   UNL     1       1.163  -6.322  -1.821  0.00  0.00    +0.219 A 
ATOM      4  N   UNL     1       1.842  -6.499  -2.981  0.00  0.00    -0.220 N 
ATOM      5  N   UNL     1       2.130  -5.226  -3.473  0.00  0.00    -0.141 NA
ATOM      6  C   UNL     1       2.166  -7.810  -3.536  0.00  0.00    +0.177 C 
ATOM      7  C   UNL     1       1.389  -8.871  -2.803  0.00  0.00    +0.060 C 
ATOM      8  C   UNL     1       0.731  -8.636  -1.659  0.00  0.00    +0.018 C 
ATOM      9  N   UNL     1       0.707  -7.396  -1.069  0.00  0.00    -0.287 N 
ATOM     10  C   UNL     1      -0.008  -9.771  -0.998  0.00  0.00    +0.061 C 
ATOM     11  H   UNL     1       0.385  -7.275  -0.162  0.00  0.00    +0.155 HD
ENDROOT
BRANCH   6  12
ATOM     12  C   UNL     1       3.642  -8.071  -3.381  0.00  0.00    -0.018 A 
ATOM     13  C   UNL     1       4.210  -8.097  -2.121  0.00  0.00    +0.007 A 
ATOM     14  C   UNL     1       5.564  -8.336  -1.978  0.00  0.00    +0.020 A 
ATOM     15  C   UNL     1       6.351  -8.550  -3.096  0.00  0.00    +0.041 A 
ATOM     16  C   UNL     1       5.782  -8.523  -4.357  0.00  0.00    +0.020 A 
ATOM     17  C   UNL     1       4.427  -8.289  -4.498  0.00  0.00    +0.007 A 
ATOM     18 CL   UNL     1       8.051  -8.849  -2.917  0.00  0.00    -0.084 Cl
ENDBRANCH   6  12
BRANCH   7  19
ATOM     19  C   UNL     1       1.351 -10.176  -3.348  0.00  0.00    +0.248 C 
ATOM     20  O   UNL     1       0.590 -10.432  -4.263  0.00  0.00    -0.270 OA
ATOM     21  N   UNL     1       2.158 -11.136  -2.854  0.00  0.00    -0.279 N 
ATOM     22  H   UNL     1       2.706 -10.955  -2.074  0.00  0.00    +0.155 HD
BRANCH  21  23
ATOM     23  C   UNL     1       2.206 -12.395  -3.466  0.00  0.00    +0.076 A 
ATOM     24  C   UNL     1       1.870 -12.530  -4.805  0.00  0.00    +0.027 A 
ATOM     25  C   UNL     1       1.918 -13.773  -5.407  0.00  0.00    +0.002 A 
ATOM     26  C   UNL     1       2.300 -14.884  -4.678  0.00  0.00    +0.004 A 
ATOM     27  C   UNL     1       2.635 -14.757  -3.343  0.00  0.00    +0.047 A 
ATOM     28  C   UNL     1       2.595 -13.514  -2.733  0.00  0.00    +0.142 A 
BRANCH  28  29
ATOM     29  O   UNL     1       2.930 -13.387  -1.421  0.00  0.00    -0.490 OA
BRANCH  29  30
ATOM     30  C   UNL     1       3.320 -14.577  -0.733  0.00  0.00    +0.226 C 
ATOM     31  C   UNL     1       3.657 -14.238   0.720  0.00  0.00    +0.048 C 
ENDBRANCH  29  30
ENDBRANCH  28  29
ENDBRANCH  21  23
ENDBRANCH   7  19
BRANCH   1  32
ATOM     32  S   UNL     1       1.733  -2.612  -2.743  0.00  0.00    -0.084 S 
BRANCH  32  33
ATOM     33  C   UNL     1       0.882  -2.010  -1.258  0.00  0.00    +0.077 C 
BRANCH  33  34
ATOM     34  C   UNL     1       0.891  -0.480  -1.249  0.00  0.00    +0.011 C 
BRANCH  34  36
ATOM     35  C   UNL     1       0.182   1.556   0.012  0.00  0.00    +0.004 C 
ATOM     36  C   UNL     1       0.174   0.026   0.004  0.00  0.00    -0.003 C 
ENDBRANCH  34  36
ENDBRANCH  33  34
ENDBRANCH  32  33
ENDBRANCH   1  32
TORSDOF 9
