REMARK  Name = ZINC61175367
REMARK  3 active torsions:
REMARK  status: ('A' for Active; 'I' for Inactive)
REMARK    1  A    between atoms: C_8  and  C_10
REMARK    2  A    between atoms: C_15  and  C_16
REMARK    3  A    between atoms: C_17  and  C_19
REMARK                            x       y       z     vdW  Elec       q    Type
REMARK                         _______ _______ _______ _____ _____    ______ ____
ROOT
ATOM      1  C   UNL     1       3.128  -3.961  -0.049  0.00  0.00    +0.037 C 
ATOM      2  C   UNL     1       4.457  -4.263  -0.063  0.00  0.00    +0.079 C 
ATOM      3  C   UNL     1       5.128  -5.582  -0.082  0.00  0.00    +0.275 C 
ATOM      4  O   UNL     1       4.493  -6.626  -0.087  0.00  0.00    -0.267 OA
ATOM      5  N   UNL     1       6.439  -5.572  -0.094  0.00  0.00    -0.169 NA
ATOM      6  C   UNL     1       7.141  -4.440  -0.089  0.00  0.00    +0.099 C 
ATOM      7  S   UNL     1       5.878  -3.177  -0.072  0.00  0.00    -0.067 S 
ENDROOT
BRANCH   1  15
ATOM      8  C   UNL     1      -0.016   1.354   0.009  0.00  0.00    +0.001 A 
ATOM      9  C   UNL     1       1.157   2.098   0.002  0.00  0.00    +0.001 A 
ATOM     10  C   UNL     1       2.375   1.447  -0.013  0.00  0.00    +0.016 A 
ATOM     11  C   UNL     1       2.410   0.070  -0.021  0.00  0.00    +0.021 A 
ATOM     12  C   UNL     1       1.231  -0.714  -0.014  0.00  0.00    +0.008 A 
ATOM     13  C   UNL     1       0.002  -0.004   0.002  0.00  0.00    +0.010 A 
ATOM     14  C   UNL     1       1.429  -2.106  -0.023  0.00  0.00    +0.063 A 
ATOM     15  C   UNL     1       2.711  -2.609  -0.038  0.00  0.00    +0.033 A 
ATOM     16  S   UNL     1       3.715  -1.134  -0.040  0.00  0.00    -0.087 S 
ATOM     17 CL   UNL     1       0.067  -3.183  -0.015  0.00  0.00    -0.082 Cl
ENDBRANCH   1  15
BRANCH   6  18
ATOM     18  C   UNL     1       8.539  -4.278  -0.101  0.00  0.00    +0.087 C 
ATOM     19  C   UNL     1       9.359  -5.383  -0.120  0.00  0.00    +0.223 C 
ATOM     20  O   UNL     1       8.821  -6.626  -0.127  0.00  0.00    -0.284 OA
BRANCH  19  21
ATOM     21  C   UNL     1      10.813  -5.215  -0.132  0.00  0.00    +0.174 A 
ATOM     22  C   UNL     1      11.738  -6.222  -0.156  0.00  0.00    +0.053 A 
ATOM     23  C   UNL     1      13.001  -5.609  -0.161  0.00  0.00    +0.042 A 
ATOM     24  C   UNL     1      12.796  -4.273  -0.140  0.00  0.00    +0.196 A 
ATOM     25  O   UNL     1      11.475  -4.040  -0.128  0.00  0.00    -0.460 OA
ENDBRANCH  19  21
ENDBRANCH   6  18
TORSDOF 3
