REMARK  Name = ZINC54804812
REMARK  8 active torsions:
REMARK  status: ('A' for Active; 'I' for Inactive)
REMARK    1  A    between atoms: C_1  and  C_2
REMARK    2  A    between atoms: N_7  and  C_9
REMARK    3  A    between atoms: C_9  and  C_10
REMARK    4  A    between atoms: C_9  and  C_11
REMARK    5  A    between atoms: C_9  and  C_12
REMARK    6  A    between atoms: C_12  and  N_13
REMARK    7  A    between atoms: C_19  and  C_22
REMARK    8  A    between atoms: N_24  and  C_25
REMARK                            x       y       z     vdW  Elec       q    Type
REMARK                         _______ _______ _______ _____ _____    ______ ____
ROOT
ATOM      1  N   UNL     1       2.185  -4.461   1.142  0.00  0.00    -0.301 N 
ATOM      2  C   UNL     1       2.321  -5.782   0.914  0.00  0.00    +0.302 C 
ATOM      3  O   UNL     1       2.009  -6.582   1.775  0.00  0.00    -0.253 OA
ATOM      4  N   UNL     1       2.801  -6.217  -0.267  0.00  0.00    -0.286 N 
ATOM      5  C   UNL     1       3.291  -5.264  -1.272  0.00  0.00    +0.110 C 
ATOM      6  C   UNL     1       2.571  -5.532  -2.598  0.00  0.00    +0.032 C 
ATOM      7  C   UNL     1       2.753  -7.002  -2.984  0.00  0.00    +0.078 C 
ATOM      8  C   UNL     1       2.132  -7.895  -1.908  0.00  0.00    +0.032 C 
ATOM      9  C   UNL     1       2.852  -7.653  -0.572  0.00  0.00    +0.110 C 
ATOM     10  H   UNL     1       2.502  -3.821   0.485  0.00  0.00    +0.150 HD
ENDROOT
BRANCH   7  11
ATOM     11  C   UNL     1       2.075  -7.262  -4.305  0.00  0.00    +0.216 C 
ATOM     12  O   UNL     1       1.503  -6.360  -4.880  0.00  0.00    -0.276 OA
ATOM     13  N   UNL     1       2.105  -8.495  -4.846  0.00  0.00    -0.312 N 
ATOM     14  H   UNL     1       2.563  -9.216  -4.386  0.00  0.00    +0.149 HD
BRANCH  13  15
ATOM     15  C   UNL     1       1.446  -8.748  -6.130  0.00  0.00    +0.073 C 
ATOM     16  C   UNL     1       0.616 -10.027  -6.259  0.00  0.00    +0.024 C 
ATOM     17  C   UNL     1       1.965  -9.915  -6.973  0.00  0.00    +0.024 C 
ENDBRANCH  13  15
ENDBRANCH   7  11
BRANCH   1  18
ATOM     18  C   UNL     1       1.560  -3.991   2.381  0.00  0.00    +0.093 C 
BRANCH  18  19
ATOM     19  C   UNL     1       1.530  -2.461   2.389  0.00  0.00    -0.055 C 
ATOM     20  C   UNL     1       2.960  -1.923   2.303  0.00  0.00    -0.008 C 
ATOM     21  C   UNL     1       0.878  -1.971   3.683  0.00  0.00    -0.008 C 
BRANCH  19  27
ATOM     22  C   UNL     1      -0.022   1.524   0.007  0.00  0.00    +0.005 C 
ATOM     23  C   UNL     1       0.000  -0.005  -0.001  0.00  0.00    -0.031 C 
ATOM     24  C   UNL     1      -1.436  -0.537   0.011  0.00  0.00    -0.001 C 
ATOM     25  C   UNL     1      -1.403  -2.067   0.082  0.00  0.00    -0.018 C 
ATOM     26  C   UNL     1      -0.615  -2.497   1.320  0.00  0.00    -0.078 C 
ATOM     27  N   UNL     1       0.756  -1.980   1.237  0.00  0.00    +0.384 N 
ATOM     28  C   UNL     1       0.737  -0.513   1.240  0.00  0.00    -0.075 C 
ATOM     29  H   UNL     1       1.187  -2.308   0.385  0.00  0.00    -0.081 HD
ENDBRANCH  19  27
ENDBRANCH  18  19
ENDBRANCH   1  18
TORSDOF 5
