REMARK  Name = ZINC20208105
REMARK  15 active torsions:
REMARK  status: ('A' for Active; 'I' for Inactive)
REMARK    1  A    between atoms: C_1  and  N_2
REMARK    2  A    between atoms: N_5  and  C_8
REMARK    3  A    between atoms: C_8  and  C_9
REMARK    4  A    between atoms: C_9  and  C_11
REMARK    5  A    between atoms: C_9  and  O_31
REMARK    6  A    between atoms: C_11  and  O_12
REMARK    7  A    between atoms: O_12  and  C_13
REMARK    8  A    between atoms: C_15  and  O_29
REMARK    9  A    between atoms: C_18  and  C_19
REMARK   10  A    between atoms: C_19  and  N_20
REMARK   11  A    between atoms: N_20  and  C_21
REMARK   12  A    between atoms: C_21  and  C_22
REMARK   13  A    between atoms: C_22  and  C_23
REMARK   14  A    between atoms: C_23  and  C_24
REMARK   15  A    between atoms: O_29  and  C_30
REMARK                            x       y       z     vdW  Elec       q    Type
REMARK                         _______ _______ _______ _____ _____    ______ ____
ROOT
ATOM      1  C   UNL     1      -3.378   0.706   8.668  0.00  0.00    +0.125 A 
ATOM      2  C   UNL     1      -4.004   1.286   9.762  0.00  0.00    +0.091 A 
ATOM      3  C   UNL     1      -3.268   2.047  10.656  0.00  0.00    +0.124 A 
ATOM      4  C   UNL     1      -1.905   2.223  10.458  0.00  0.00    +0.046 A 
ATOM      5  C   UNL     1      -1.283   1.640   9.371  0.00  0.00    +0.009 A 
ATOM      6  C   UNL     1      -2.015   0.881   8.478  0.00  0.00    -0.022 A 
ENDROOT
BRANCH   3   7
ATOM      7  O   UNL     1      -3.879   2.621  11.725  0.00  0.00    -0.495 OA
ATOM      8  C   UNL     1      -3.059   3.393  12.605  0.00  0.00    +0.277 C 
ENDBRANCH   3   7
BRANCH   1   9
ATOM      9  O   UNL     1      -4.098  -0.036   7.787  0.00  0.00    -0.489 OA
BRANCH   9  10
ATOM     10  C   UNL     1      -5.497  -0.173   8.046  0.00  0.00    +0.261 C 
BRANCH  10  11
ATOM     11  C   UNL     1      -6.135  -1.036   6.955  0.00  0.00    +0.166 C 
BRANCH  11  12
ATOM     12  O   UNL     1      -5.606  -2.362   7.026  0.00  0.00    -0.387 OA
ATOM     13  H   UNL     1      -4.526  -2.530   6.900  0.00  0.00    +0.210 HD
ENDBRANCH  11  12
BRANCH  11  14
ATOM     14  C   UNL     1      -7.651  -1.081   7.161  0.00  0.00    +0.119 C 
BRANCH  14  19
ATOM     15  C   UNL     1     -10.718  -3.304   2.971  0.00  0.00    -0.096 C 
ATOM     16  N   UNL     1     -10.105  -2.475   4.019  0.00  0.00    +0.379 N 
ATOM     17  C   UNL     1     -10.257  -3.100   5.340  0.00  0.00    -0.064 C 
ATOM     18  C   UNL     1      -9.678  -2.171   6.410  0.00  0.00    +0.066 C 
ATOM     19  N   UNL     1      -8.263  -1.909   6.114  0.00  0.00    -0.303 NA
ATOM     20  C   UNL     1      -8.111  -1.285   4.792  0.00  0.00    +0.066 C 
ATOM     21  C   UNL     1      -8.690  -2.214   3.722  0.00  0.00    -0.064 C 
ATOM     22  H   UNL     1     -10.633  -1.510   4.036  0.00  0.00    -0.082 HD
ENDBRANCH  14  19
ENDBRANCH  11  14
ENDBRANCH  10  11
ENDBRANCH   9  10
ENDBRANCH   1   9
BRANCH   6  23
ATOM     23  C   UNL     1      -1.333   0.246   7.293  0.00  0.00    -0.043 C 
BRANCH  23  24
ATOM     24  N   UNL     1      -1.574   1.062   6.095  0.00  0.00    +0.382 N 
ATOM     25  H   UNL     1      -2.655   1.125   5.905  0.00  0.00    -0.085 HD
ATOM     26  H   UNL     1      -1.170   2.073   6.253  0.00  0.00    -0.085 HD
BRANCH  24  27
ATOM     27  C   UNL     1      -0.922   0.473   4.918  0.00  0.00    -0.082 C 
BRANCH  27  28
ATOM     28  C   UNL     1      -1.195   1.349   3.693  0.00  0.00    -0.019 C 
BRANCH  28  29
ATOM     29  C   UNL     1      -0.516   0.735   2.466  0.00  0.00    +0.002 C 
BRANCH  29  30
ATOM     30  C   UNL     1      -0.789   1.611   1.242  0.00  0.00    -0.011 C 
ATOM     31  C   UNL     1      -0.013   1.086   0.008  0.00  0.00    +0.003 C 
ATOM     32  C   UNL     1      -0.809   1.622  -1.200  0.00  0.00    +0.000 C 
ATOM     33  C   UNL     1      -2.243   1.875  -0.703  0.00  0.00    +0.000 C 
ATOM     34  C   UNL     1      -2.268   1.485   0.789  0.00  0.00    +0.003 C 
ENDBRANCH  29  30
ENDBRANCH  28  29
ENDBRANCH  27  28
ENDBRANCH  24  27
ENDBRANCH  23  24
ENDBRANCH   6  23
TORSDOF 13
