REMARK  Name = ZINC36043293
REMARK  12 active torsions:
REMARK  status: ('A' for Active; 'I' for Inactive)
REMARK    1  A    between atoms: C_1  and  C_2
REMARK    2  A    between atoms: C_5  and  S_8
REMARK    3  A    between atoms: S_8  and  N_11
REMARK    4  A    between atoms: N_11  and  C_12
REMARK    5  A    between atoms: C_12  and  C_14
REMARK    6  A    between atoms: C_12  and  C_15
REMARK    7  A    between atoms: C_19  and  O_36
REMARK    8  A    between atoms: C_20  and  O_34
REMARK    9  A    between atoms: N_25  and  C_26
REMARK   10  A    between atoms: C_26  and  C_27
REMARK   11  A    between atoms: O_34  and  C_35
REMARK   12  A    between atoms: O_36  and  C_37
REMARK                            x       y       z     vdW  Elec       q    Type
REMARK                         _______ _______ _______ _____ _____    ______ ____
ROOT
ATOM      1  C   UNL     1       3.734  -2.834   1.196  0.00  0.00    +0.106 C 
ATOM      2  C   UNL     1       4.619  -2.926  -0.019  0.00  0.00    -0.022 A 
ATOM      3  C   UNL     1       4.040  -2.761  -1.269  0.00  0.00    +0.055 A 
ATOM      4  C   UNL     1       4.813  -2.833  -2.414  0.00  0.00    +0.162 A 
ATOM      5  C   UNL     1       6.180  -3.072  -2.309  0.00  0.00    +0.162 A 
ATOM      6  C   UNL     1       6.753  -3.237  -1.061  0.00  0.00    +0.053 A 
ATOM      7  C   UNL     1       5.973  -3.167   0.084  0.00  0.00    -0.038 A 
ATOM      8  C   UNL     1       6.641  -3.366   1.421  0.00  0.00    +0.051 C 
ATOM      9  C   UNL     1       5.735  -2.852   2.539  0.00  0.00    +0.090 C 
ATOM     10  N   UNL     1       4.395  -3.434   2.359  0.00  0.00    -0.289 NA
ENDROOT
BRANCH   1  11
ATOM     11  C   UNL     1       2.423  -3.575   0.924  0.00  0.00    +0.095 C 
ATOM     12  C   UNL     1       1.617  -2.813  -0.131  0.00  0.00    +0.027 C 
BRANCH  11  13
ATOM     13  N   UNL     1       1.646  -3.664   2.162  0.00  0.00    -0.185 NA
ATOM     14  H   UNL     1       1.687  -2.947   2.814  0.00  0.00    +0.148 HD
BRANCH  13  15
ATOM     15  S   UNL     1       0.697  -4.990   2.450  0.00  0.00    +0.059 S 
ATOM     16  O   UNL     1      -0.101  -5.179   1.289  0.00  0.00    -0.153 OA
ATOM     17  O   UNL     1       0.131  -4.813   3.741  0.00  0.00    -0.153 OA
BRANCH  15  22
ATOM     18  C   UNL     1       4.364  -9.768   2.816  0.00  0.00    +0.044 C 
ATOM     19  C   UNL     1       3.448  -8.574   2.724  0.00  0.00    -0.050 A 
ATOM     20  C   UNL     1       3.025  -7.938   3.876  0.00  0.00    +0.005 A 
ATOM     21  C   UNL     1       2.185  -6.843   3.792  0.00  0.00    +0.029 A 
ATOM     22  C   UNL     1       1.768  -6.385   2.557  0.00  0.00    +0.105 A 
ATOM     23  C   UNL     1       2.192  -7.021   1.405  0.00  0.00    +0.029 A 
ATOM     24  C   UNL     1       3.036  -8.113   1.488  0.00  0.00    +0.005 A 
ENDBRANCH  15  22
ENDBRANCH  13  15
ENDBRANCH  11  13
ENDBRANCH   1  11
BRANCH   5  25
ATOM     25  O   UNL     1       6.950  -3.143  -3.428  0.00  0.00    -0.491 OA
ATOM     26  C   UNL     1       8.345  -3.391  -3.242  0.00  0.00    +0.277 C 
ENDBRANCH   5  25
BRANCH   4  27
ATOM     27  O   UNL     1       4.240  -2.672  -3.636  0.00  0.00    -0.491 OA
ATOM     28  C   UNL     1       2.832  -2.431  -3.666  0.00  0.00    +0.277 C 
ENDBRANCH   4  27
BRANCH  10  29
ATOM     29  C   UNL     1       3.583  -3.267   3.572  0.00  0.00    +0.120 C 
BRANCH  29  30
ATOM     30  C   UNL     1       4.440  -3.506   4.788  0.00  0.00    -0.031 A 
ATOM     31  C   UNL     1       4.649  -4.794   5.244  0.00  0.00    +0.005 A 
ATOM     32  C   UNL     1       5.435  -5.014   6.360  0.00  0.00    +0.003 A 
ATOM     33  C   UNL     1       6.012  -3.946   7.021  0.00  0.00    +0.038 A 
ATOM     34  C   UNL     1       5.804  -2.656   6.565  0.00  0.00    +0.124 A 
ATOM     35  C   UNL     1       5.021  -2.437   5.443  0.00  0.00    +0.043 A 
ATOM     36  F   UNL     1       6.367  -1.611   7.210  0.00  0.00    -0.205 F 
ENDBRANCH  29  30
ENDBRANCH  10  29
TORSDOF 8
