REMARK  Name = ZINC35999741
REMARK  9 active torsions:
REMARK  status: ('A' for Active; 'I' for Inactive)
REMARK    1  A    between atoms: C_1  and  O_2
REMARK    2  A    between atoms: O_2  and  C_3
REMARK    3  A    between atoms: C_8  and  C_22
REMARK    4  A    between atoms: C_17  and  C_20
REMARK    5  A    between atoms: C_20  and  O_21
REMARK    6  A    between atoms: C_22  and  N_23
REMARK    7  A    between atoms: N_23  and  C_24
REMARK    8  A    between atoms: C_24  and  C_25
REMARK    9  A    between atoms: C_25  and  C_26
REMARK                            x       y       z     vdW  Elec       q    Type
REMARK                         _______ _______ _______ _____ _____    ______ ____
ROOT
ATOM      1  C   UNL     1       0.165  -0.620  -1.358  0.00  0.00    +0.122 A 
ATOM      2  C   UNL     1       0.842   0.165  -2.297  0.00  0.00    +0.046 A 
ATOM      3  C   UNL     1       1.635  -0.409  -3.242  0.00  0.00    +0.013 A 
ATOM      4  C   UNL     1       1.778  -1.805  -3.280  0.00  0.00    +0.001 A 
ATOM      5  C   UNL     1       2.593  -2.428  -4.248  0.00  0.00    +0.015 A 
ATOM      6  C   UNL     1       2.692  -3.787  -4.232  0.00  0.00    -0.024 A 
ATOM      7  C   UNL     1       1.992  -4.527  -3.269  0.00  0.00    +0.123 A 
ATOM      8  N   UNL     1       1.232  -3.940  -2.368  0.00  0.00    -0.232 NA
ATOM      9  C   UNL     1       1.097  -2.609  -2.334  0.00  0.00    +0.077 A 
ATOM     10  C   UNL     1       0.289  -1.990  -1.366  0.00  0.00    +0.074 A 
ATOM     11  N   UNL     1       2.102  -5.910  -3.266  0.00  0.00    -0.315 N 
ATOM     12  C   UNL     1       3.223  -6.569  -2.583  0.00  0.00    +0.106 C 
ATOM     13  C   UNL     1       2.663  -7.607  -1.605  0.00  0.00    +0.019 C 
ATOM     14  C   UNL     1       1.735  -8.563  -2.358  0.00  0.00    +0.009 C 
ATOM     15  C   UNL     1       0.564  -7.777  -2.952  0.00  0.00    +0.032 C 
ATOM     16  C   UNL     1       1.097  -6.742  -3.941  0.00  0.00    +0.112 C 
ENDROOT
BRANCH   1  18
ATOM     17  C   UNL     1      -0.709   1.404  -0.468  0.00  0.00    +0.277 C 
ATOM     18  O   UNL     1      -0.620  -0.022  -0.425  0.00  0.00    -0.495 OA
ENDBRANCH   1  18
BRANCH  15  19
ATOM     19  C   UNL     1      -0.381  -8.739  -3.676  0.00  0.00    +0.160 C 
BRANCH  19  20
ATOM     20  O   UNL     1      -0.968  -9.633  -2.729  0.00  0.00    -0.395 OA
ATOM     21  H   UNL     1      -1.580 -10.273  -3.119  0.00  0.00    +0.209 HD
ENDBRANCH  19  20
ENDBRANCH  15  19
BRANCH   6  22
ATOM     22  C   UNL     1       3.551  -4.492  -5.249  0.00  0.00    -0.043 C 
BRANCH  22  23
ATOM     23  N   UNL     1       2.700  -5.042  -6.313  0.00  0.00    +0.382 N 
ATOM     24  H   UNL     1       2.044  -5.697  -5.914  0.00  0.00    -0.085 HD
ATOM     25  H   UNL     1       2.196  -4.292  -6.761  0.00  0.00    -0.085 HD
BRANCH  23  26
ATOM     26  C   UNL     1       3.538  -5.730  -7.304  0.00  0.00    -0.078 C 
BRANCH  26  27
ATOM     27  C   UNL     1       2.652  -6.302  -8.412  0.00  0.00    +0.011 C 
BRANCH  27  28
ATOM     28  C   UNL     1       3.511  -7.008  -9.429  0.00  0.00    -0.075 C 
ATOM     29  C   UNL     1       3.667  -8.287  -9.309  0.00  0.00    -0.028 C 
ATOM     30  C   UNL     1       4.500  -9.124 -10.235  0.00  0.00    +0.027 C 
ATOM     31  C   UNL     1       4.770  -8.361 -11.534  0.00  0.00    +0.004 C 
ATOM     32  C   UNL     1       5.277  -6.958 -11.177  0.00  0.00    +0.005 C 
ATOM     33  C   UNL     1       4.129  -6.185 -10.521  0.00  0.00    +0.030 C 
ENDBRANCH  27  28
ENDBRANCH  26  27
ENDBRANCH  23  26
ENDBRANCH  22  23
ENDBRANCH   6  22
TORSDOF 8
