REMARK  Name = ZINC39699353
REMARK  13 active torsions:
REMARK  status: ('A' for Active; 'I' for Inactive)
REMARK    1  A    between atoms: C_1  and  C_2
REMARK    2  A    between atoms: C_2  and  N_3
REMARK    3  A    between atoms: N_6  and  C_9
REMARK    4  A    between atoms: C_9  and  C_11
REMARK    5  A    between atoms: C_9  and  C_27
REMARK    6  A    between atoms: C_16  and  O_25
REMARK    7  A    between atoms: C_17  and  O_23
REMARK    8  A    between atoms: O_23  and  C_24
REMARK    9  A    between atoms: O_25  and  C_26
REMARK   10  A    between atoms: N_32  and  C_33
REMARK   11  A    between atoms: C_33  and  C_34
REMARK   12  A    between atoms: C_33  and  C_35
REMARK   13  A    between atoms: C_33  and  C_36
REMARK                            x       y       z     vdW  Elec       q    Type
REMARK                         _______ _______ _______ _____ _____    ______ ____
ROOT
ATOM      1  C   UNL     1      -4.853  -2.639  -1.111  0.00  0.00    +0.115 C 
ENDROOT
BRANCH   1   2
ATOM      2  C   UNL     1      -5.404  -2.191  -2.466  0.00  0.00    +0.119 C 
ATOM      3  C   UNL     1      -4.504  -2.760  -3.545  0.00  0.00    -0.003 C 
ATOM      4  C   UNL     1      -5.080  -3.562  -4.481  0.00  0.00    -0.003 A 
ATOM      5  C   UNL     1      -4.277  -4.150  -5.556  0.00  0.00    +0.059 A 
ATOM      6  C   UNL     1      -4.886  -4.946  -6.473  0.00  0.00    +0.162 A 
ATOM      7  C   UNL     1      -6.266  -5.213  -6.405  0.00  0.00    +0.163 A 
ATOM      8  C   UNL     1      -7.068  -4.688  -5.417  0.00  0.00    +0.073 A 
ATOM      9  C   UNL     1      -6.524  -3.855  -4.428  0.00  0.00    +0.044 A 
ATOM     10  N   UNL     1      -7.313  -3.352  -3.476  0.00  0.00    -0.284 N 
ATOM     11  C   UNL     1      -6.869  -2.562  -2.516  0.00  0.00    +0.226 C 
ATOM     12  O   UNL     1      -7.637  -2.134  -1.674  0.00  0.00    -0.275 OA
ATOM     13  H   UNL     1      -8.257  -3.578  -3.491  0.00  0.00    +0.155 HD
BRANCH   7  14
ATOM     14  O   UNL     1      -6.825  -6.013  -7.344  0.00  0.00    -0.491 OA
ATOM     15  C   UNL     1      -8.229  -6.257  -7.236  0.00  0.00    +0.277 C 
ENDBRANCH   7  14
BRANCH   6  16
ATOM     16  O   UNL     1      -4.148  -5.495  -7.474  0.00  0.00    -0.491 OA
ATOM     17  C   UNL     1      -2.752  -5.190  -7.494  0.00  0.00    +0.277 C 
ENDBRANCH   6  16
ENDBRANCH   1   2
BRANCH   1  21
ATOM     18  N   UNL     1      -1.213  -0.922   0.184  0.00  0.00    +0.381 N 
ATOM     19  C   UNL     1      -1.780  -0.460  -1.091  0.00  0.00    -0.063 C 
ATOM     20  C   UNL     1      -3.269  -0.806  -1.142  0.00  0.00    +0.066 C 
ATOM     21  N   UNL     1      -3.437  -2.260  -1.010  0.00  0.00    -0.299 NA
ATOM     22  C   UNL     1      -2.852  -2.741   0.250  0.00  0.00    +0.066 C 
ATOM     23  C   UNL     1      -1.366  -2.379   0.290  0.00  0.00    -0.063 C 
ATOM     24  H   UNL     1      -1.698  -0.476   0.948  0.00  0.00    -0.082 HD
BRANCH  18  26
ATOM     25  C   UNL     1       0.366   0.948   0.255  0.00  0.00    -0.017 C 
ATOM     26  C   UNL     1       0.213  -0.574   0.240  0.00  0.00    -0.082 C 
ENDBRANCH  18  26
ENDBRANCH   1  21
BRANCH   1  27
ATOM     27  C   UNL     1      -4.985  -4.157  -0.983  0.00  0.00    +0.236 C 
ATOM     28  N   UNL     1      -4.332  -4.827  -2.116  0.00  0.00    -0.148 NA
ATOM     29  N   UNL     1      -5.177  -5.475  -2.737  0.00  0.00    -0.069 NA
ATOM     30  N   UNL     1      -6.453  -5.373  -2.184  0.00  0.00    -0.179 N 
ATOM     31  N   UNL     1      -6.404  -4.561  -1.078  0.00  0.00    -0.179 NA
ATOM     32  H   UNL     1      -7.250  -5.808  -2.526  0.00  0.00    +0.191 HD
BRANCH  31  33
ATOM     33  C   UNL     1      -6.827  -5.285   0.129  0.00  0.00    +0.035 C 
ATOM     34  C   UNL     1      -6.655  -4.381   1.351  0.00  0.00    +0.029 C 
ATOM     35  C   UNL     1      -8.297  -5.685  -0.007  0.00  0.00    +0.029 C 
ATOM     36  C   UNL     1      -5.970  -6.540   0.298  0.00  0.00    +0.029 C 
ENDBRANCH  31  33
ENDBRANCH   1  27
TORSDOF 7
