REMARK  Name = ZINC63308277
REMARK  8 active torsions:
REMARK  status: ('A' for Active; 'I' for Inactive)
REMARK    1  A    between atoms: C_1  and  C_2
REMARK    2  A    between atoms: C_4  and  C_35
REMARK    3  A    between atoms: N_10  and  C_11
REMARK    4  A    between atoms: N_13  and  C_14
REMARK    5  A    between atoms: C_17  and  N_20
REMARK    6  A    between atoms: N_23  and  C_24
REMARK    7  A    between atoms: C_24  and  C_25
REMARK    8  A    between atoms: C_25  and  C_26
REMARK                            x       y       z     vdW  Elec       q    Type
REMARK                         _______ _______ _______ _____ _____    ______ ____
ROOT
ATOM      1  C   UNL     1      -0.396  -7.251   5.754  0.00  0.00    +0.066 C 
ATOM      2  C   UNL     1      -0.374  -6.743   4.335  0.00  0.00    +0.044 A 
ATOM      3  C   UNL     1      -0.301  -7.630   3.273  0.00  0.00    +0.046 A 
ATOM      4  C   UNL     1      -0.283  -7.120   1.984  0.00  0.00    +0.044 A 
ATOM      5  N   UNL     1      -0.337  -5.810   1.808  0.00  0.00    -0.217 NA
ATOM      6  C   UNL     1      -0.406  -4.990   2.845  0.00  0.00    +0.231 A 
ATOM      7  N   UNL     1      -0.430  -5.444   4.089  0.00  0.00    -0.217 NA
ATOM      8  N   UNL     1      -0.460  -3.620   2.623  0.00  0.00    -0.297 N 
ATOM      9  C   UNL     1      -0.423  -2.754   3.681  0.00  0.00    +0.198 C 
ATOM     10  N   UNL     1      -0.231  -3.214   4.906  0.00  0.00    -0.129 NA
ATOM     11  N   UNL     1      -0.585  -1.416   3.473  0.00  0.00    -0.357 N 
ATOM     12  C   UNL     1      -0.204  -8.047   0.798  0.00  0.00    +0.066 C 
ATOM     13  H   UNL     1      -0.524  -3.278   1.718  0.00  0.00    +0.171 HD
ATOM     14  H   UNL     1      -0.475  -0.793   4.209  0.00  0.00    +0.162 HD
ENDROOT
BRANCH  10  15
ATOM     15  C   UNL     1      -0.081  -2.358   5.928  0.00  0.00    +0.330 C 
ATOM     16  O   UNL     1      -0.221  -1.162   5.746  0.00  0.00    -0.250 OA
ATOM     17  N   UNL     1       0.225  -2.822   7.156  0.00  0.00    -0.268 N 
ATOM     18  H   UNL     1       0.411  -3.765   7.285  0.00  0.00    +0.156 HD
BRANCH  17  19
ATOM     19  C   UNL     1       0.272  -1.944   8.243  0.00  0.00    +0.035 A 
ATOM     20  C   UNL     1      -0.608  -0.871   8.310  0.00  0.00    +0.025 A 
ATOM     21  C   UNL     1      -0.558  -0.005   9.385  0.00  0.00    +0.034 A 
ATOM     22  C   UNL     1       0.366  -0.206  10.394  0.00  0.00    +0.126 A 
ATOM     23  C   UNL     1       1.243  -1.273  10.331  0.00  0.00    +0.034 A 
ATOM     24  C   UNL     1       1.195  -2.146   9.261  0.00  0.00    +0.025 A 
BRANCH  22  25
ATOM     25  N   UNL     1       0.416   0.724  11.545  0.00  0.00    +0.056 N 
ATOM     26  O   UNL     1      -0.350   1.657  11.602  0.00  0.00    -0.126 OA
ATOM     27  O   UNL     1       1.223   0.549  12.428  0.00  0.00    -0.126 OA
ENDBRANCH  22  25
ENDBRANCH  17  19
ENDBRANCH  10  15
BRANCH  11  28
ATOM     28  C   UNL     1      -0.924  -0.918   2.137  0.00  0.00    +0.120 C 
BRANCH  28  29
ATOM     29  C   UNL     1      -0.926   0.612   2.149  0.00  0.00    +0.054 C 
BRANCH  29  30
ATOM     30  C   UNL     1      -1.394   1.123   0.810  0.00  0.00    -0.040 C 
ATOM     31  C   UNL     1      -2.651   1.494   0.475  0.00  0.00    -0.001 A 
ATOM     32  C   UNL     1      -3.910   1.529   1.228  0.00  0.00    +0.010 A 
ATOM     33  C   UNL     1      -5.033   1.959   0.607  0.00  0.00    +0.001 A 
ATOM     34  C   UNL     1      -5.023   2.369  -0.733  0.00  0.00    +0.002 A 
ATOM     35  C   UNL     1      -3.905   2.365  -1.489  0.00  0.00    +0.026 A 
ATOM     36  C   UNL     1      -2.667   1.933  -0.938  0.00  0.00    +0.043 A 
ATOM     37  N   UNL     1      -1.467   1.838  -1.457  0.00  0.00    -0.380 N 
ATOM     38  C   UNL     1      -0.551   1.333  -0.428  0.00  0.00    +0.144 C 
ATOM     39  H   UNL     1      -1.224   2.067  -2.368  0.00  0.00    +0.160 HD
ENDBRANCH  29  30
ENDBRANCH  28  29
ENDBRANCH  11  28
TORSDOF 6
