REMARK  Name = ZINC63350898
REMARK  12 active torsions:
REMARK  status: ('A' for Active; 'I' for Inactive)
REMARK    1  A    between atoms: C_1  and  C_2
REMARK    2  A    between atoms: C_4  and  C_13
REMARK    3  A    between atoms: N_14  and  N_15
REMARK    4  A    between atoms: C_16  and  C_18
REMARK    5  A    between atoms: C_18  and  C_20
REMARK    6  A    between atoms: C_18  and  N_30
REMARK    7  A    between atoms: C_20  and  C_21
REMARK    8  A    between atoms: C_31  and  O_33
REMARK    9  A    between atoms: O_33  and  C_34
REMARK   10  A    between atoms: C_34  and  C_35
REMARK   11  A    between atoms: C_34  and  C_36
REMARK   12  A    between atoms: C_34  and  C_37
REMARK                            x       y       z     vdW  Elec       q    Type
REMARK                         _______ _______ _______ _____ _____    ______ ____
ROOT
ATOM      1  C   UNL     1      -0.346  -2.137  -7.021  0.00  0.00    +0.168 C 
ENDROOT
BRANCH   1   3
ATOM      2  N   UNL     1      -0.179  -1.426  -4.658  0.00  0.00    -0.205 N 
ATOM      3  C   UNL     1       0.447  -1.857  -5.771  0.00  0.00    +0.253 C 
ATOM      4  O   UNL     1       1.649  -2.019  -5.766  0.00  0.00    -0.272 OA
ATOM      5  H   UNL     1      -1.141  -1.296  -4.662  0.00  0.00    +0.177 HD
BRANCH   2   7
ATOM      6  C   UNL     1      -0.047  -0.749  -2.420  0.00  0.00    +0.137 C 
ATOM      7  N   UNL     1       0.558  -1.166  -3.495  0.00  0.00    -0.188 NA
BRANCH   6  10
ATOM      8  C   UNL     1      -0.019   1.526   0.010  0.00  0.00    +0.057 C 
ATOM      9  C   UNL     1       0.002  -0.004   0.002  0.00  0.00    +0.202 C 
ATOM     10  C   UNL     1       0.699  -0.486  -1.244  0.00  0.00    +0.013 C 
ATOM     11  C   UNL     1       2.042  -0.666  -1.235  0.00  0.00    +0.020 C 
ATOM     12  C   UNL     1       2.765  -0.398   0.020  0.00  0.00    +0.017 A 
ATOM     13  C   UNL     1       4.148  -0.233   0.041  0.00  0.00    +0.011 A 
ATOM     14  C   UNL     1       4.784   0.018   1.240  0.00  0.00    +0.001 A 
ATOM     15  C   UNL     1       4.055   0.106   2.414  0.00  0.00    +0.004 A 
ATOM     16  C   UNL     1       2.681  -0.057   2.404  0.00  0.00    +0.046 A 
ATOM     17  C   UNL     1       2.027  -0.309   1.212  0.00  0.00    +0.128 A 
ATOM     18  O   UNL     1       0.685  -0.473   1.165  0.00  0.00    -0.484 OA
ENDBRANCH   6  10
ENDBRANCH   2   7
ENDBRANCH   1   3
BRANCH   1  19
ATOM     19  N   UNL     1       0.548  -2.120  -8.181  0.00  0.00    -0.269 N 
ATOM     20  C   UNL     1       1.580  -2.985  -8.249  0.00  0.00    +0.401 C 
ATOM     21  O   UNL     1       1.768  -3.779  -7.349  0.00  0.00    -0.226 OA
ATOM     22  H   UNL     1       0.399  -1.486  -8.900  0.00  0.00    +0.153 HD
BRANCH  20  23
ATOM     23  O   UNL     1       2.402  -2.970  -9.315  0.00  0.00    -0.445 OA
BRANCH  23  24
ATOM     24  C   UNL     1       3.474  -3.914  -9.321  0.00  0.00    +0.107 C 
ATOM     25  C   UNL     1       2.905  -5.333  -9.262  0.00  0.00    +0.055 C 
ATOM     26  C   UNL     1       4.295  -3.747 -10.602  0.00  0.00    +0.055 C 
ATOM     27  C   UNL     1       4.372  -3.674  -8.106  0.00  0.00    +0.055 C 
ENDBRANCH  23  24
ENDBRANCH  20  23
ENDBRANCH   1  19
BRANCH   1  28
ATOM     28  C   UNL     1      -1.008  -3.512  -6.908  0.00  0.00    +0.065 C 
BRANCH  28  29
ATOM     29  C   UNL     1      -1.899  -3.740  -8.102  0.00  0.00    -0.039 C 
ATOM     30  C   UNL     1      -1.579  -4.394  -9.242  0.00  0.00    -0.001 A 
ATOM     31  C   UNL     1      -0.353  -5.063  -9.694  0.00  0.00    +0.010 A 
ATOM     32  C   UNL     1      -0.335  -5.643 -10.916  0.00  0.00    +0.001 A 
ATOM     33  C   UNL     1      -1.454  -5.621 -11.759  0.00  0.00    +0.002 A 
ATOM     34  C   UNL     1      -2.616  -5.027 -11.413  0.00  0.00    +0.026 A 
ATOM     35  C   UNL     1      -2.748  -4.386 -10.150  0.00  0.00    +0.043 A 
ATOM     36  N   UNL     1      -3.751  -3.751  -9.594  0.00  0.00    -0.380 N 
ATOM     37  C   UNL     1      -3.334  -3.290  -8.266  0.00  0.00    +0.144 C 
ATOM     38  H   UNL     1      -4.625  -3.613  -9.993  0.00  0.00    +0.160 HD
ENDBRANCH  28  29
ENDBRANCH   1  28
TORSDOF 8
