REMARK  Name = ZINC45599160
REMARK  8 active torsions:
REMARK  status: ('A' for Active; 'I' for Inactive)
REMARK    1  A    between atoms: C_3  and  S_8
REMARK    2  A    between atoms: S_8  and  N_11
REMARK    3  A    between atoms: N_11  and  C_12
REMARK    4  A    between atoms: C_12  and  C_13
REMARK    5  A    between atoms: C_13  and  C_14
REMARK    6  A    between atoms: C_14  and  O_16
REMARK    7  A    between atoms: O_16  and  C_17
REMARK    8  A    between atoms: C_17  and  C_18
REMARK                            x       y       z     vdW  Elec       q    Type
REMARK                         _______ _______ _______ _____ _____    ______ ____
ROOT
ATOM      1  C   UNL     1       6.696  -0.572   6.609  0.00  0.00    +0.308 C 
ENDROOT
BRANCH   1   2
ATOM      2  C   UNL     1       7.390   0.023   7.807  0.00  0.00    +0.170 A 
ATOM      3  N   UNL     1       8.708   0.118   7.809  0.00  0.00    -0.214 NA
ATOM      4  C   UNL     1       9.377   0.630   8.830  0.00  0.00    +0.128 A 
ATOM      5  C   UNL     1       8.655   1.096   9.964  0.00  0.00    +0.051 A 
ATOM      6  C   UNL     1       9.179   1.696  11.197  0.00  0.00    -0.025 A 
ATOM      7  C   UNL     1       8.274   2.051  12.130  0.00  0.00    -0.004 A 
ATOM      8  S   UNL     1       6.697   1.628  11.434  0.00  0.00    -0.073 S 
ATOM      9  C   UNL     1       7.256   0.963   9.889  0.00  0.00    +0.114 A 
ATOM     10  N   UNL     1       6.668   0.443   8.828  0.00  0.00    -0.221 NA
ATOM     11  C   UNL     1       8.530   2.660  13.473  0.00  0.00    +0.043 C 
ATOM     12  C   UNL     1       9.488   3.849  13.316  0.00  0.00    +0.005 C 
ATOM     13  C   UNL     1      10.918   3.334  13.443  0.00  0.00    +0.001 C 
ATOM     14  C   UNL     1      11.015   1.918  12.878  0.00  0.00    +0.005 C 
ATOM     15  C   UNL     1      10.678   1.911  11.392  0.00  0.00    +0.037 C 
ATOM     16  N   UNL     1      10.757   0.711   8.794  0.00  0.00    -0.343 N 
ATOM     17  H   UNL     1      11.216   1.394   9.309  0.00  0.00    +0.144 HD
ATOM     18  H   UNL     1      11.266   0.086   8.255  0.00  0.00    +0.144 HD
ENDBRANCH   1   2
BRANCH   1  19
ATOM     19  O   UNL     1       6.396   0.463   5.670  0.00  0.00    -0.457 OA
BRANCH  19  20
ATOM     20  C   UNL     1       5.772   0.097   4.540  0.00  0.00    +0.309 C 
ATOM     21  O   UNL     1       5.491  -1.064   4.353  0.00  0.00    -0.251 OA
BRANCH  20  22
ATOM     22  C   UNL     1       5.423   1.133   3.502  0.00  0.00    +0.137 C 
BRANCH  22  23
ATOM     23  C   UNL     1       4.724   0.457   2.321  0.00  0.00    +0.117 C 
BRANCH  23  24
ATOM     24  N   UNL     1       4.384   1.464   1.313  0.00  0.00    -0.189 NA
ATOM     25  H   UNL     1       4.406   2.406   1.542  0.00  0.00    +0.148 HD
BRANCH  24  26
ATOM     26  S   UNL     1       3.963   0.994  -0.218  0.00  0.00    +0.058 S 
ATOM     27  O   UNL     1       4.953   0.067  -0.645  0.00  0.00    -0.153 OA
ATOM     28  O   UNL     1       3.670   2.182  -0.941  0.00  0.00    -0.153 OA
BRANCH  26  31
ATOM     29  C   UNL     1       0.059   0.055  -0.083  0.00  0.00    +0.003 A 
ATOM     30  C   UNL     1       1.244   0.759  -0.183  0.00  0.00    +0.028 A 
ATOM     31  C   UNL     1       2.453   0.096  -0.090  0.00  0.00    +0.107 A 
ATOM     32  C   UNL     1       2.478  -1.273   0.102  0.00  0.00    +0.048 A 
ATOM     33  C   UNL     1       1.292  -1.979   0.202  0.00  0.00    +0.043 A 
ATOM     34  C   UNL     1       0.082  -1.313   0.109  0.00  0.00    +0.020 A 
ATOM     35 CL   UNL     1       1.322  -3.698   0.442  0.00  0.00    -0.083 Cl
ENDBRANCH  26  31
ENDBRANCH  24  26
ENDBRANCH  23  24
ENDBRANCH  22  23
ENDBRANCH  20  22
ENDBRANCH  19  20
ENDBRANCH   1  19
TORSDOF 8
