REMARK  Name = ZINC01381741
REMARK  11 active torsions:
REMARK  status: ('A' for Active; 'I' for Inactive)
REMARK    1  A    between atoms: C_1  and  C_2
REMARK    2  A    between atoms: C_5  and  C_43
REMARK    3  A    between atoms: C_9  and  C_14
REMARK    4  A    between atoms: C_14  and  C_16
REMARK    5  A    between atoms: C_14  and  N_29
REMARK    6  A    between atoms: N_20  and  C_21
REMARK    7  A    between atoms: C_21  and  C_22
REMARK    8  A    between atoms: C_22  and  C_23
REMARK    9  A    between atoms: N_32  and  C_35
REMARK   10  A    between atoms: C_40  and  O_41
REMARK   11  A    between atoms: O_41  and  C_42
REMARK                            x       y       z     vdW  Elec       q    Type
REMARK                         _______ _______ _______ _____ _____    ______ ____
ROOT
ATOM      1  C   UNL     1       0.048  -0.071   4.974  0.00  0.00    +0.162 C 
ENDROOT
BRANCH   1  10
ATOM      2  C   UNL     1      -0.018   1.503   0.010  0.00  0.00    +0.044 C 
ATOM      3  C   UNL     1       0.002  -0.004   0.002  0.00  0.00    -0.041 A 
ATOM      4  C   UNL     1       0.006  -0.684  -1.183  0.00  0.00    +0.004 A 
ATOM      5  C   UNL     1       0.025  -2.071  -1.202  0.00  0.00    +0.005 A 
ATOM      6  C   UNL     1       0.041  -2.791  -0.026  0.00  0.00    -0.026 A 
ATOM      7  C   UNL     1       0.037  -2.120   1.193  0.00  0.00    +0.052 A 
ATOM      8  C   UNL     1       0.023  -0.713   1.208  0.00  0.00    +0.002 A 
ATOM      9  C   UNL     1       0.025  -0.017   2.495  0.00  0.00    +0.021 A 
ATOM     10  C   UNL     1       0.045  -0.756   3.632  0.00  0.00    +0.042 A 
ATOM     11  C   UNL     1       0.065  -2.166   3.562  0.00  0.00    +0.254 A 
ATOM     12  O   UNL     1       0.083  -2.812   4.595  0.00  0.00    -0.268 OA
ATOM     13  N   UNL     1       0.053  -2.814   2.384  0.00  0.00    -0.322 N 
ATOM     14  H   UNL     1       0.066  -3.784   2.372  0.00  0.00    +0.169 HD
ATOM     15  C   UNL     1       0.061  -4.297  -0.061  0.00  0.00    +0.046 C 
ENDBRANCH   1  10
BRANCH   1  16
ATOM     16  N   UNL     1       1.196  -0.540   5.761  0.00  0.00    -0.286 NA
ATOM     17  C   UNL     1       2.454  -0.332   5.032  0.00  0.00    +0.104 C 
ATOM     18  C   UNL     1       3.602  -0.995   5.801  0.00  0.00    +0.120 C 
ATOM     19  N   UNL     1       3.592  -0.487   7.182  0.00  0.00    -0.325 N 
ATOM     20  C   UNL     1       2.328  -0.536   7.932  0.00  0.00    +0.120 C 
ATOM     21  C   UNL     1       1.231   0.108   7.079  0.00  0.00    +0.104 C 
BRANCH  19  22
ATOM     22  C   UNL     1       4.755   0.027   7.766  0.00  0.00    +0.072 A 
ATOM     23  C   UNL     1       5.049   1.378   7.658  0.00  0.00    +0.027 A 
ATOM     24  C   UNL     1       6.198   1.884   8.236  0.00  0.00    +0.002 A 
ATOM     25  C   UNL     1       7.057   1.046   8.924  0.00  0.00    +0.004 A 
ATOM     26  C   UNL     1       6.770  -0.302   9.036  0.00  0.00    +0.047 A 
ATOM     27  C   UNL     1       5.618  -0.816   8.464  0.00  0.00    +0.141 A 
BRANCH  27  28
ATOM     28  O   UNL     1       5.333  -2.141   8.578  0.00  0.00    -0.493 OA
ATOM     29  C   UNL     1       6.263  -2.944   9.307  0.00  0.00    +0.277 C 
ENDBRANCH  27  28
ENDBRANCH  19  22
ENDBRANCH   1  16
BRANCH   1  30
ATOM     30  C   UNL     1      -1.229  -0.395   5.706  0.00  0.00    +0.173 A 
ATOM     31  N   UNL     1      -1.528  -1.528   6.295  0.00  0.00    -0.111 NA
ATOM     32  N   UNL     1      -2.705  -1.412   6.806  0.00  0.00    -0.023 NA
ATOM     33  N   UNL     1      -3.165  -0.235   6.558  0.00  0.00    -0.044 NA
ATOM     34  N   UNL     1      -2.282   0.423   5.886  0.00  0.00    -0.227 N 
BRANCH  34  35
ATOM     35  C   UNL     1      -2.405   1.802   5.406  0.00  0.00    +0.152 C 
BRANCH  35  36
ATOM     36  C   UNL     1      -3.031   1.803   4.010  0.00  0.00    +0.058 C 
BRANCH  36  37
ATOM     37  C   UNL     1      -3.156   3.221   3.517  0.00  0.00    -0.046 A 
ATOM     38  C   UNL     1      -4.302   3.947   3.784  0.00  0.00    +0.004 A 
ATOM     39  C   UNL     1      -4.418   5.248   3.332  0.00  0.00    +0.000 A 
ATOM     40  C   UNL     1      -3.387   5.824   2.612  0.00  0.00    +0.000 A 
ATOM     41  C   UNL     1      -2.241   5.098   2.345  0.00  0.00    +0.000 A 
ATOM     42  C   UNL     1      -2.124   3.799   2.802  0.00  0.00    +0.004 A 
ENDBRANCH  36  37
ENDBRANCH  35  36
ENDBRANCH  34  35
ENDBRANCH   1  30
TORSDOF 8
