REMARK  Name = ZINC65167890
REMARK  4 active torsions:
REMARK  status: ('A' for Active; 'I' for Inactive)
REMARK    1  A    between atoms: C_3  and  S_8
REMARK    2  A    between atoms: S_8  and  N_11
REMARK    3  A    between atoms: C_14  and  C_17
REMARK    4  A    between atoms: C_19  and  N_22
REMARK                            x       y       z     vdW  Elec       q    Type
REMARK                         _______ _______ _______ _____ _____    ______ ____
ROOT
ATOM      1  N   UNL     1       4.327   2.556   1.555  0.00  0.00    -0.177 NA
ATOM      2  C   UNL     1       3.872   3.749   2.283  0.00  0.00    +0.110 C 
ATOM      3  C   UNL     1       5.092   4.459   2.878  0.00  0.00    +0.027 C 
ATOM      4  C   UNL     1       5.889   3.469   3.729  0.00  0.00    +0.044 C 
ATOM      5  C   UNL     1       6.382   2.318   2.850  0.00  0.00    +0.027 C 
ATOM      6  C   UNL     1       5.172   1.580   2.257  0.00  0.00    +0.110 C 
ENDROOT
BRANCH   4   7
ATOM      7  C   UNL     1       7.071   4.173   4.343  0.00  0.00    +0.089 A 
ATOM      8  C   UNL     1       8.315   4.377   3.731  0.00  0.00    +0.092 A 
ATOM      9  C   UNL     1       9.110   5.049   4.605  0.00  0.00    +0.215 A 
ATOM     10  O   UNL     1       8.399   5.262   5.726  0.00  0.00    -0.340 OA
ATOM     11  N   UNL     1       7.112   4.704   5.535  0.00  0.00    -0.081 NA
BRANCH   9  12
ATOM     12  N   UNL     1      10.416   5.442   4.382  0.00  0.00    -0.327 N 
ATOM     13  H   UNL     1      10.845   5.241   3.536  0.00  0.00    +0.145 HD
ATOM     14  H   UNL     1      10.904   5.920   5.071  0.00  0.00    +0.145 HD
ENDBRANCH   9  12
ENDBRANCH   4   7
BRANCH   1  15
ATOM     15  S   UNL     1       3.891   2.314  -0.024  0.00  0.00    +0.061 S 
ATOM     16  O   UNL     1       4.872   1.456  -0.589  0.00  0.00    -0.153 OA
ATOM     17  O   UNL     1       3.596   3.595  -0.565  0.00  0.00    -0.153 OA
BRANCH  15  20
ATOM     18  C   UNL     1      -0.017   1.378   0.010  0.00  0.00    +0.003 A 
ATOM     19  C   UNL     1       1.171   2.086   0.002  0.00  0.00    +0.028 A 
ATOM     20  C   UNL     1       2.378   1.411  -0.013  0.00  0.00    +0.107 A 
ATOM     21  C   UNL     1       2.397   0.029  -0.022  0.00  0.00    +0.043 A 
ATOM     22  C   UNL     1       1.210  -0.679  -0.014  0.00  0.00    +0.020 A 
ATOM     23  C   UNL     1       0.002  -0.004   0.002  0.00  0.00    +0.015 A 
ATOM     24 BR   UNL     1       1.236  -2.570  -0.025  0.00  0.00    -0.050 Br
ENDBRANCH  15  20
ENDBRANCH   1  15
TORSDOF 4
