REMARK  Name = ZINC28849375
REMARK  4 active torsions:
REMARK  status: ('A' for Active; 'I' for Inactive)
REMARK    1  A    between atoms: C_7  and  C_11
REMARK    2  A    between atoms: C_11  and  C_12
REMARK    3  A    between atoms: N_16  and  N_20
REMARK    4  A    between atoms: C_21  and  C_23
REMARK                            x       y       z     vdW  Elec       q    Type
REMARK                         _______ _______ _______ _____ _____    ______ ____
ROOT
ATOM      1  C   UNL     1      -2.063   3.721  -1.387  0.00  0.00    +0.167 C 
ATOM      2  C   UNL     1      -2.723   5.085  -1.413  0.00  0.00    +0.260 C 
ATOM      3  O   UNL     1      -3.849   5.361  -1.057  0.00  0.00    -0.272 OA
ATOM      4  N   UNL     1      -1.799   5.928  -1.915  0.00  0.00    -0.137 N 
ATOM      5  C   UNL     1      -0.658   5.292  -2.206  0.00  0.00    +0.326 C 
ATOM      6  O   UNL     1       0.322   5.841  -2.670  0.00  0.00    -0.251 OA
ATOM      7  N   UNL     1      -0.717   3.977  -1.928  0.00  0.00    -0.286 N 
ATOM      8  H   UNL     1       0.002   3.151  -2.028  0.00  0.00    +0.151 HD
ENDROOT
BRANCH   4   9
ATOM      9  N   UNL     1      -2.006   7.300  -2.107  0.00  0.00    -0.220 N 
ATOM     10  C   UNL     1      -1.444   8.191  -1.265  0.00  0.00    +0.262 C 
ATOM     11  O   UNL     1      -0.758   7.803  -0.339  0.00  0.00    -0.269 OA
ATOM     12  H   UNL     1      -2.627   7.651  -2.944  0.00  0.00    +0.174 HD
BRANCH  10  13
ATOM     13  C   UNL     1      -1.663   9.639  -1.467  0.00  0.00    +0.057 A 
ATOM     14  C   UNL     1      -1.085  10.574  -0.600  0.00  0.00    +0.031 A 
ATOM     15  C   UNL     1      -1.321  11.918  -0.833  0.00  0.00    +0.037 A 
ATOM     16  C   UNL     1      -2.113  12.290  -1.906  0.00  0.00    +0.126 A 
ATOM     17  N   UNL     1      -2.643  11.386  -2.707  0.00  0.00    -0.261 NA
ATOM     18  C   UNL     1      -2.444  10.097  -2.529  0.00  0.00    +0.123 A 
ATOM     19 BR   UNL     1      -0.571  13.231   0.302  0.00  0.00    -0.049 Br
ENDBRANCH  10  13
ENDBRANCH   4   9
BRANCH   1  20
ATOM     20  C   UNL     1      -1.976   3.193   0.046  0.00  0.00    +0.069 C 
BRANCH  20  27
ATOM     21  C   UNL     1       2.372   1.442  -0.011  0.00  0.00    +0.001 A 
ATOM     22  C   UNL     1       2.396   0.054  -0.019  0.00  0.00    +0.002 A 
ATOM     23  C   UNL     1       1.224  -0.669  -0.013  0.00  0.00    +0.026 A 
ATOM     24  C   UNL     1       0.002  -0.004   0.002  0.00  0.00    +0.047 A 
ATOM     25  C   UNL     1      -0.017   1.403   0.010  0.00  0.00    +0.003 A 
ATOM     26  C   UNL     1       1.183   2.115   0.002  0.00  0.00    +0.010 A 
ATOM     27  C   UNL     1      -1.430   1.788   0.031  0.00  0.00    -0.020 A 
ATOM     28  C   UNL     1      -2.147   0.653   0.026  0.00  0.00    +0.087 A 
ATOM     29  N   UNL     1      -1.308  -0.428   0.012  0.00  0.00    -0.360 N 
ATOM     30  H   UNL     1      -1.538  -1.504   0.009  0.00  0.00    +0.165 HD
ENDBRANCH  20  27
ENDBRANCH   1  20
TORSDOF 4
