REMARK  Name = ZINC21080138
REMARK  14 active torsions:
REMARK  status: ('A' for Active; 'I' for Inactive)
REMARK    1  A    between atoms: C_1  and  C_2
REMARK    2  A    between atoms: C_2  and  N_3
REMARK    3  A    between atoms: N_3  and  C_4
REMARK    4  A    between atoms: N_3  and  S_6
REMARK    5  A    between atoms: C_4  and  C_5
REMARK    6  A    between atoms: S_6  and  C_9
REMARK    7  A    between atoms: C_12  and  N_15
REMARK    8  A    between atoms: C_16  and  C_18
REMARK    9  A    between atoms: C_18  and  S_19
REMARK   10  A    between atoms: S_19  and  C_20
REMARK   11  A    between atoms: N_25  and  N_26
REMARK   12  A    between atoms: C_27  and  C_28
REMARK   13  A    between atoms: C_33  and  O_34
REMARK   14  A    between atoms: O_34  and  C_35
REMARK                            x       y       z     vdW  Elec       q    Type
REMARK                         _______ _______ _______ _____ _____    ______ ____
ROOT
ATOM      1  C   UNL     1       3.681  -1.926  -0.050  0.00  0.00    +0.173 C 
ENDROOT
BRANCH   1   3
ATOM      2  N   UNL     1       5.641  -3.435  -0.069  0.00  0.00    -0.285 N 
ATOM      3  C   UNL     1       4.300  -3.300  -0.054  0.00  0.00    +0.227 C 
ATOM      4  O   UNL     1       3.591  -4.284  -0.043  0.00  0.00    -0.275 OA
ATOM      5  H   UNL     1       6.282  -2.546  -0.156  0.00  0.00    +0.155 HD
BRANCH   2   9
ATOM      6  C   UNL     1       7.356  -7.221   0.210  0.00  0.00    +0.106 A 
ATOM      7  C   UNL     1       6.165  -7.052  -0.471  0.00  0.00    +0.030 A 
ATOM      8  C   UNL     1       5.594  -5.798  -0.566  0.00  0.00    +0.025 A 
ATOM      9  C   UNL     1       6.217  -4.707   0.025  0.00  0.00    +0.034 A 
ATOM     10  C   UNL     1       7.416  -4.879   0.704  0.00  0.00    +0.025 A 
ATOM     11  C   UNL     1       7.979  -6.137   0.800  0.00  0.00    +0.030 A 
BRANCH   6  12
ATOM     12  S   UNL     1       8.081  -8.823   0.329  0.00  0.00    +0.061 S 
ATOM     13  O   UNL     1       8.912  -8.809   1.482  0.00  0.00    -0.153 OA
ATOM     14  O   UNL     1       7.026  -9.760   0.161  0.00  0.00    -0.153 OA
BRANCH  12  15
ATOM     15  N   UNL     1       9.086  -9.003  -0.975  0.00  0.00    -0.177 NA
BRANCH  15  17
ATOM     16  C   UNL     1      11.347  -9.812  -0.514  0.00  0.00    +0.022 C 
ATOM     17  C   UNL     1      10.490  -8.598  -0.879  0.00  0.00    +0.106 C 
ENDBRANCH  15  17
BRANCH  15  18
ATOM     18  C   UNL     1       8.570  -9.568  -2.225  0.00  0.00    +0.106 C 
ATOM     19  C   UNL     1       8.154  -8.433  -3.164  0.00  0.00    +0.022 C 
ENDBRANCH  15  18
ENDBRANCH  12  15
ENDBRANCH   6  12
ENDBRANCH   2   9
ENDBRANCH   1   3
BRANCH   1  20
ATOM     20  S   UNL     1       1.874  -2.076  -0.028  0.00  0.00    -0.075 S 
BRANCH  20  21
ATOM     21  C   UNL     1       1.307  -0.408  -0.025  0.00  0.00    +0.211 A 
ATOM     22  N   UNL     1       0.002  -0.003  -0.011  0.00  0.00    -0.186 NA
ATOM     23  C   UNL     1      -0.016   1.364  -0.013  0.00  0.00    +0.232 A 
ATOM     24  N   UNL     1       1.225   1.786  -0.028  0.00  0.00    -0.245 N 
ATOM     25  N   UNL     1       2.064   0.663  -0.036  0.00  0.00    -0.144 NA
ATOM     26  N   UNL     1      -1.149   2.164  -0.007  0.00  0.00    -0.205 N 
ATOM     27  H   UNL     1      -2.148   1.703   0.001  0.00  0.00    +0.177 HD
ATOM     28  H   UNL     1       1.439   2.865  -0.033  0.00  0.00    +0.192 HD
BRANCH  26  29
ATOM     29  N   UNL     1      -1.022   3.559  -0.010  0.00  0.00    -0.187 NA
ATOM     30  C   UNL     1      -2.083   4.308  -0.004  0.00  0.00    +0.142 C 
BRANCH  30  31
ATOM     31  C   UNL     1      -1.948   5.776  -0.007  0.00  0.00    +0.036 A 
ATOM     32  C   UNL     1      -3.087   6.585  -0.007  0.00  0.00    +0.013 A 
ATOM     33  C   UNL     1      -2.954   7.958  -0.005  0.00  0.00    +0.001 A 
ATOM     34  C   UNL     1      -1.697   8.538  -0.015  0.00  0.00    +0.004 A 
ATOM     35  C   UNL     1      -0.563   7.747  -0.021  0.00  0.00    +0.046 A 
ATOM     36  C   UNL     1      -0.678   6.367  -0.017  0.00  0.00    +0.129 A 
BRANCH  36  37
ATOM     37  O   UNL     1       0.436   5.590  -0.023  0.00  0.00    -0.494 OA
ATOM     38  C   UNL     1       1.697   6.263  -0.033  0.00  0.00    +0.277 C 
ENDBRANCH  36  37
ENDBRANCH  30  31
ENDBRANCH  26  29
ENDBRANCH  20  21
ENDBRANCH   1  20
TORSDOF 11
