REMARK  Name = ZINC06765822
REMARK  9 active torsions:
REMARK  status: ('A' for Active; 'I' for Inactive)
REMARK    1  A    between atoms: C_1  and  C_2
REMARK    2  A    between atoms: C_3  and  C_21
REMARK    3  A    between atoms: C_9  and  C_12
REMARK    4  A    between atoms: C_15  and  O_18
REMARK    5  A    between atoms: O_18  and  C_19
REMARK    6  A    between atoms: C_21  and  C_23
REMARK    7  A    between atoms: C_21  and  C_30
REMARK    8  A    between atoms: C_30  and  C_32
REMARK    9  A    between atoms: C_30  and  C_34
REMARK                            x       y       z     vdW  Elec       q    Type
REMARK                         _______ _______ _______ _____ _____    ______ ____
ROOT
ATOM      1  C   UNL     1      -0.245   1.332   0.723  0.00  0.00    +0.065 C 
ATOM      2  C   UNL     1      -0.871   1.558  -0.629  0.00  0.00    +0.039 A 
ATOM      3  C   UNL     1      -0.976   2.745  -1.261  0.00  0.00    +0.048 A 
ATOM      4  C   UNL     1      -1.622   2.529  -2.500  0.00  0.00    +0.277 A 
ATOM      5  N   UNL     1      -1.895   1.211  -2.592  0.00  0.00    -0.194 N 
ATOM      6  N   UNL     1      -1.423   0.595  -1.426  0.00  0.00    -0.292 N 
ATOM      7  C   UNL     1      -2.526   0.578  -3.655  0.00  0.00    +0.196 A 
ATOM      8  N   UNL     1      -2.828  -0.698  -3.807  0.00  0.00    -0.221 NA
ATOM      9  C   UNL     1      -3.439  -1.135  -4.898  0.00  0.00    +0.080 A 
ATOM     10  C   UNL     1      -3.764  -0.247  -5.886  0.00  0.00    +0.077 A 
ATOM     11  S   UNL     1      -3.153   1.276  -5.176  0.00  0.00    -0.056 S 
ATOM     12  O   UNL     1      -1.884   3.378  -3.332  0.00  0.00    -0.265 OA
ATOM     13  H   UNL     1      -1.480  -0.350  -1.218  0.00  0.00    +0.187 HD
ENDROOT
BRANCH   9  14
ATOM     14  C   UNL     1      -3.768  -2.573  -5.047  0.00  0.00    +0.001 A 
ATOM     15  C   UNL     1      -4.405  -3.029  -6.200  0.00  0.00    +0.013 A 
ATOM     16  C   UNL     1      -4.709  -4.367  -6.336  0.00  0.00    +0.046 A 
ATOM     17  C   UNL     1      -4.381  -5.261  -5.326  0.00  0.00    +0.120 A 
ATOM     18  C   UNL     1      -3.746  -4.811  -4.176  0.00  0.00    +0.046 A 
ATOM     19  C   UNL     1      -3.435  -3.474  -4.037  0.00  0.00    +0.013 A 
BRANCH  17  20
ATOM     20  O   UNL     1      -4.683  -6.579  -5.462  0.00  0.00    -0.495 OA
ATOM     21  C   UNL     1      -4.317  -7.443  -4.384  0.00  0.00    +0.277 C 
ENDBRANCH  17  20
ENDBRANCH   9  14
BRANCH   3  22
ATOM     22  C   UNL     1      -0.490   4.072  -0.737  0.00  0.00    +0.082 C 
BRANCH  22  23
ATOM     23  C   UNL     1      -1.672   4.956  -0.432  0.00  0.00    -0.038 A 
ATOM     24  C   UNL     1      -2.472   5.417  -1.460  0.00  0.00    +0.006 A 
ATOM     25  C   UNL     1      -3.557   6.228  -1.181  0.00  0.00    +0.020 A 
ATOM     26  C   UNL     1      -3.841   6.577   0.127  0.00  0.00    +0.041 A 
ATOM     27  C   UNL     1      -3.039   6.114   1.155  0.00  0.00    +0.020 A 
ATOM     28  C   UNL     1      -1.959   5.299   0.876  0.00  0.00    +0.006 A 
ATOM     29 CL   UNL     1      -5.203   7.595   0.478  0.00  0.00    -0.084 Cl
ENDBRANCH  22  23
BRANCH  22  30
ATOM     30  C   UNL     1       0.392   4.745  -1.791  0.00  0.00    +0.189 C 
BRANCH  30  31
ATOM     31  C   UNL     1       0.878   6.072  -1.267  0.00  0.00    +0.228 C 
ATOM     32  O   UNL     1       2.067   6.279  -1.152  0.00  0.00    -0.275 OA
ATOM     33  N   UNL     1      -0.009   7.027  -0.926  0.00  0.00    -0.328 N 
ATOM     34  H   UNL     1      -0.961   6.861  -1.018  0.00  0.00    +0.145 HD
ATOM     35  H   UNL     1       0.304   7.881  -0.589  0.00  0.00    +0.145 HD
ENDBRANCH  30  31
BRANCH  30  36
ATOM     36  C   UNL     1       1.546   3.882  -2.088  0.00  0.00    +0.076 C 
ATOM     37  N   UNL     1       2.438   3.216  -2.318  0.00  0.00    -0.196 NA
ENDBRANCH  30  36
ENDBRANCH  22  30
ENDBRANCH   3  22
TORSDOF 7
