REMARK  Name = ZINC09959954
REMARK  5 active torsions:
REMARK  status: ('A' for Active; 'I' for Inactive)
REMARK    1  A    between atoms: C_5  and  N_7
REMARK    2  A    between atoms: N_7  and  S_8
REMARK    3  A    between atoms: S_8  and  C_11
REMARK    4  A    between atoms: C_15  and  C_17
REMARK    5  A    between atoms: N_19  and  N_20
REMARK                            x       y       z     vdW  Elec       q    Type
REMARK                         _______ _______ _______ _____ _____    ______ ____
ROOT
ATOM      1  C   UNL     1       1.176   3.726   0.138  0.00  0.00    +0.109 A 
ATOM      2  C   UNL     1      -0.006   4.445   0.164  0.00  0.00    +0.029 A 
ATOM      3  C   UNL     1      -1.220   3.788   0.252  0.00  0.00    +0.003 A 
ATOM      4  C   UNL     1      -1.260   2.410   0.309  0.00  0.00    +0.013 A 
ATOM      5  C   UNL     1      -0.071   1.679   0.288  0.00  0.00    +0.040 A 
ATOM      6  C   UNL     1       1.151   2.348   0.200  0.00  0.00    +0.042 A 
ENDROOT
BRANCH   5   7
ATOM      7  C   UNL     1      -0.106   0.203   0.355  0.00  0.00    +0.261 C 
ATOM      8  O   UNL     1       0.931  -0.431   0.332  0.00  0.00    -0.269 OA
ATOM      9  N   UNL     1      -1.287  -0.441   0.441  0.00  0.00    -0.220 N 
ATOM     10  H   UNL     1      -2.115   0.065   0.459  0.00  0.00    +0.174 HD
BRANCH   9  11
ATOM     11  N   UNL     1      -1.320  -1.840   0.503  0.00  0.00    -0.137 N 
ATOM     12  C   UNL     1      -1.574  -2.542   1.627  0.00  0.00    +0.263 C 
ATOM     13  O   UNL     1      -1.808  -2.101   2.731  0.00  0.00    -0.271 OA
ATOM     14  C   UNL     1      -1.505  -3.996   1.218  0.00  0.00    +0.114 C 
ATOM     15  C   UNL     1      -2.849  -4.678   1.450  0.00  0.00    +0.035 C 
ATOM     16  C   UNL     1      -2.767  -6.140   1.004  0.00  0.00    +0.003 C 
ATOM     17  C   UNL     1      -1.671  -6.853   1.798  0.00  0.00    +0.000 C 
ATOM     18  C   UNL     1      -0.325  -6.173   1.535  0.00  0.00    +0.003 C 
ATOM     19  C   UNL     1      -0.397  -4.711   1.983  0.00  0.00    +0.035 C 
ATOM     20  N   UNL     1      -1.193  -3.949  -0.216  0.00  0.00    -0.284 N 
ATOM     21  C   UNL     1      -1.109  -2.645  -0.545  0.00  0.00    +0.326 C 
ATOM     22  O   UNL     1      -0.867  -2.245  -1.667  0.00  0.00    -0.251 OA
ATOM     23  H   UNL     1      -1.074  -4.706  -0.810  0.00  0.00    +0.151 HD
ENDBRANCH   9  11
ENDBRANCH   5   7
BRANCH   1  24
ATOM     24  S   UNL     1       2.717   4.573   0.025  0.00  0.00    +0.072 S 
ATOM     25  O   UNL     1       2.499   5.883   0.531  0.00  0.00    -0.150 OA
ATOM     26  O   UNL     1       3.700   3.701   0.567  0.00  0.00    -0.150 OA
BRANCH  24  27
ATOM     27  N   UNL     1       3.068   4.739  -1.585  0.00  0.00    -0.215 N 
ATOM     28  H   UNL     1       3.875   4.342  -1.949  0.00  0.00    +0.174 HD
BRANCH  27  33
ATOM     29  C   UNL     1       0.680   7.272  -2.764  0.00  0.00    +0.002 A 
ATOM     30  C   UNL     1       0.485   6.860  -4.070  0.00  0.00    +0.002 A 
ATOM     31  C   UNL     1       1.146   5.745  -4.553  0.00  0.00    +0.022 A 
ATOM     32  C   UNL     1       2.003   5.039  -3.731  0.00  0.00    +0.063 A 
ATOM     33  C   UNL     1       2.201   5.450  -2.419  0.00  0.00    +0.066 A 
ATOM     34  C   UNL     1       1.532   6.567  -1.936  0.00  0.00    +0.026 A 
ATOM     35 CL   UNL     1       2.832   3.639  -4.338  0.00  0.00    -0.082 Cl
ENDBRANCH  27  33
ENDBRANCH  24  27
ENDBRANCH   1  24
TORSDOF 5
