REMARK  Name = ZINC20690224
REMARK  8 active torsions:
REMARK  status: ('A' for Active; 'I' for Inactive)
REMARK    1  A    between atoms: C_1  and  O_2
REMARK    2  A    between atoms: O_2  and  C_3
REMARK    3  A    between atoms: C_6  and  C_10
REMARK    4  A    between atoms: C_8  and  O_9
REMARK    5  A    between atoms: C_20  and  O_28
REMARK    6  A    between atoms: C_23  and  O_26
REMARK    7  A    between atoms: O_26  and  C_27
REMARK    8  A    between atoms: O_28  and  C_29
REMARK                            x       y       z     vdW  Elec       q    Type
REMARK                         _______ _______ _______ _____ _____    ______ ____
ROOT
ATOM      1  C   UNL     1       0.002  -0.004   0.002  0.00  0.00    +0.105 C 
ATOM      2  C   UNL     1       0.243  -0.509  -1.405  0.00  0.00    +0.029 C 
ATOM      3  C   UNL     1      -0.822  -0.213  -2.468  0.00  0.00    +0.033 C 
ATOM      4  C   UNL     1      -0.659  -1.413  -3.404  0.00  0.00    -0.030 C 
ATOM      5  C   UNL     1      -0.163  -2.447  -2.734  0.00  0.00    -0.022 C 
ATOM      6  C   UNL     1       0.010  -2.050  -1.315  0.00  0.00    +0.052 C 
ATOM      7  C   UNL     1       1.088  -2.594  -0.460  0.00  0.00    +0.026 A 
ATOM      8  C   UNL     1       1.617  -3.856  -0.671  0.00  0.00    +0.126 A 
ATOM      9  C   UNL     1       2.617  -4.345   0.155  0.00  0.00    +0.049 A 
ATOM     10  C   UNL     1       3.086  -3.565   1.196  0.00  0.00    +0.051 A 
ATOM     11  C   UNL     1       2.566  -2.304   1.409  0.00  0.00    +0.141 A 
ATOM     12  C   UNL     1       1.561  -1.792   0.579  0.00  0.00    +0.077 A 
ATOM     13  N   UNL     1       1.112  -0.495   0.834  0.00  0.00    -0.334 N 
ATOM     14  H   UNL     1       1.546   0.152   1.610  0.00  0.00    +0.147 HD
ENDROOT
BRANCH   1  18
ATOM     15  C   UNL     1      -0.050   4.272   0.024  0.00  0.00    +0.161 A 
ATOM     16  C   UNL     1       1.157   3.591   0.009  0.00  0.00    +0.050 A 
ATOM     17  C   UNL     1       1.170   2.209   0.003  0.00  0.00    +0.009 A 
ATOM     18  C   UNL     1      -0.018   1.503   0.010  0.00  0.00    -0.023 A 
ATOM     19  C   UNL     1      -1.226   2.176   0.020  0.00  0.00    +0.054 A 
ATOM     20  C   UNL     1      -1.246   3.562   0.032  0.00  0.00    +0.159 A 
BRANCH  15  22
ATOM     21  C   UNL     1       1.201   6.295   0.023  0.00  0.00    +0.277 C 
ATOM     22  O   UNL     1      -0.065   5.632   0.031  0.00  0.00    -0.491 OA
ENDBRANCH  15  22
BRANCH  20  23
ATOM     23  O   UNL     1      -2.433   4.225   0.047  0.00  0.00    -0.503 OA
ATOM     24  H   UNL     1      -3.378   3.663   0.053  0.00  0.00    +0.292 HD
ENDBRANCH  20  23
ENDBRANCH   1  18
BRANCH  11  25
ATOM     25  O   UNL     1       3.037  -1.548   2.438  0.00  0.00    -0.493 OA
ATOM     26  C   UNL     1       4.063  -2.124   3.250  0.00  0.00    +0.277 C 
ENDBRANCH  11  25
BRANCH   8  27
ATOM     27  O   UNL     1       1.153  -4.620  -1.695  0.00  0.00    -0.495 OA
ATOM     28  C   UNL     1       1.741  -5.912  -1.858  0.00  0.00    +0.277 C 
ENDBRANCH   8  27
TORSDOF 5
