REMARK  Name = ZINC23485619
REMARK  10 active torsions:
REMARK  status: ('A' for Active; 'I' for Inactive)
REMARK    1  A    between atoms: C_1  and  C_2
REMARK    2  A    between atoms: C_3  and  C_34
REMARK    3  A    between atoms: C_11  and  C_13
REMARK    4  A    between atoms: C_13  and  S_14
REMARK    5  A    between atoms: S_14  and  C_15
REMARK    6  A    between atoms: N_28  and  C_29
REMARK    7  A    between atoms: C_29  and  C_30
REMARK    8  A    between atoms: C_30  and  C_31
REMARK    9  A    between atoms: C_31  and  C_32
REMARK   10  A    between atoms: C_31  and  C_33
REMARK                            x       y       z     vdW  Elec       q    Type
REMARK                         _______ _______ _______ _____ _____    ______ ____
ROOT
ATOM      1  C   UNL     1       0.134  -6.118   5.400  0.00  0.00    +0.198 A 
ATOM      2  N   UNL     1       0.133  -5.664   6.630  0.00  0.00    -0.120 NA
ATOM      3  N   UNL     1       0.158  -6.762   7.497  0.00  0.00    -0.109 NA
ATOM      4  C   UNL     1       0.173  -7.857   6.771  0.00  0.00    +0.240 A 
ATOM      5  N   UNL     1       0.153  -7.485   5.454  0.00  0.00    -0.256 N 
ATOM      6  C   UNL     1       0.157  -8.448   4.446  0.00  0.00    +0.064 A 
ATOM      7  C   UNL     1       0.141  -8.081   3.109  0.00  0.00    +0.027 A 
ATOM      8  C   UNL     1       0.146  -9.055   2.130  0.00  0.00    +0.002 A 
ATOM      9  C   UNL     1       0.167 -10.398   2.471  0.00  0.00    +0.001 A 
ATOM     10  C   UNL     1       0.183 -10.780   3.796  0.00  0.00    +0.015 A 
ATOM     11  C   UNL     1       0.179  -9.807   4.794  0.00  0.00    +0.064 A 
ATOM     12  C   UNL     1       0.196 -10.174   6.221  0.00  0.00    +0.263 A 
ATOM     13  O   UNL     1       0.215 -11.342   6.560  0.00  0.00    -0.267 OA
ATOM     14  N   UNL     1       0.200  -9.192   7.146  0.00  0.00    -0.277 N 
ENDROOT
BRANCH   1  15
ATOM     15  S   UNL     1       0.108  -5.139   3.935  0.00  0.00    -0.078 S 
BRANCH  15  16
ATOM     16  C   UNL     1       0.090  -3.432   4.547  0.00  0.00    +0.151 C 
BRANCH  16  27
ATOM     17  C   UNL     1      -0.018   1.503   0.010  0.00  0.00    +0.045 C 
ATOM     18  C   UNL     1       0.002  -0.004   0.002  0.00  0.00    -0.026 A 
ATOM     19  C   UNL     1       0.006  -0.677  -1.160  0.00  0.00    -0.008 A 
ATOM     20  S   UNL     1       0.032  -2.385  -0.648  0.00  0.00    -0.073 S 
ATOM     21  C   UNL     1       0.037  -2.144   1.110  0.00  0.00    +0.116 A 
ATOM     22  C   UNL     1       0.024  -0.745   1.250  0.00  0.00    +0.075 A 
ATOM     23  C   UNL     1       0.029  -0.257   2.597  0.00  0.00    +0.260 A 
ATOM     24  O   UNL     1       0.014   0.942   2.821  0.00  0.00    -0.267 OA
ATOM     25  N   UNL     1       0.051  -1.142   3.611  0.00  0.00    -0.310 N 
ATOM     26  H   UNL     1       0.054  -0.817   4.525  0.00  0.00    +0.170 HD
ATOM     27  C   UNL     1       0.067  -2.480   3.380  0.00  0.00    +0.121 A 
ATOM     28  N   UNL     1       0.053  -2.956   2.163  0.00  0.00    -0.226 NA
ATOM     29  C   UNL     1      -0.009  -0.122  -2.561  0.00  0.00    +0.052 C 
ENDBRANCH  16  27
ENDBRANCH  15  16
ENDBRANCH   1  15
BRANCH  14  30
ATOM     30  C   UNL     1       0.215  -9.541   8.568  0.00  0.00    +0.128 C 
BRANCH  30  31
ATOM     31  C   UNL     1      -1.222  -9.689   9.072  0.00  0.00    +0.025 C 
BRANCH  31  32
ATOM     32  C   UNL     1      -1.206 -10.053  10.558  0.00  0.00    -0.016 C 
ATOM     33  C   UNL     1      -0.613  -8.894  11.361  0.00  0.00    +0.007 C 
ATOM     34  C   UNL     1      -2.636 -10.323  11.032  0.00  0.00    +0.007 C 
ENDBRANCH  31  32
ENDBRANCH  30  31
ENDBRANCH  14  30
TORSDOF 6
