REMARK  Name = ZINC08705499
REMARK  9 active torsions:
REMARK  status: ('A' for Active; 'I' for Inactive)
REMARK    1  A    between atoms: C_1  and  C_2
REMARK    2  A    between atoms: N_10  and  N_14
REMARK    3  A    between atoms: C_15  and  C_17
REMARK    4  A    between atoms: C_17  and  N_64
REMARK    5  A    between atoms: C_21  and  C_23
REMARK    6  A    between atoms: C_25  and  O_31
REMARK    7  A    between atoms: C_28  and  O_29
REMARK    8  A    between atoms: O_29  and  C_30
REMARK    9  A    between atoms: O_31  and  C_32
REMARK                            x       y       z     vdW  Elec       q    Type
REMARK                         _______ _______ _______ _____ _____    ______ ____
ROOT
ATOM      1  N   UNL     1      -1.552   6.414   5.080  0.00  0.00    -0.225 N 
ATOM      2  C   UNL     1      -1.999   5.151   5.227  0.00  0.00    +0.213 C 
ATOM      3  O   UNL     1      -3.149   4.879   4.955  0.00  0.00    -0.276 OA
ATOM      4  H   UNL     1      -0.632   6.631   5.298  0.00  0.00    +0.173 HD
ENDROOT
BRANCH   1  14
ATOM      5  C   UNL     1      -2.689  10.035  -0.794  0.00  0.00    +0.007 C 
ATOM      6  C   UNL     1      -3.323  10.006   0.599  0.00  0.00    -0.014 C 
ATOM      7  C   UNL     1      -3.875   8.607   0.879  0.00  0.00    +0.006 C 
ATOM      8  C   UNL     1      -4.519   8.583   2.268  0.00  0.00    +0.035 C 
ATOM      9  C   UNL     1      -3.481   8.958   3.319  0.00  0.00    +0.114 C 
ATOM     10  C   UNL     1      -2.903  10.341   3.039  0.00  0.00    +0.035 C 
ATOM     11  C   UNL     1      -2.266  10.358   1.647  0.00  0.00    +0.006 C 
ATOM     12  C   UNL     1      -2.375   7.929   3.367  0.00  0.00    +0.263 C 
ATOM     13  O   UNL     1      -1.612   7.630   2.473  0.00  0.00    -0.271 OA
ATOM     14  N   UNL     1      -2.416   7.413   4.612  0.00  0.00    -0.137 N 
ATOM     15  C   UNL     1      -3.382   7.977   5.348  0.00  0.00    +0.326 C 
ATOM     16  O   UNL     1      -3.611   7.681   6.505  0.00  0.00    -0.251 OA
ATOM     17  N   UNL     1      -4.070   8.910   4.663  0.00  0.00    -0.284 N 
ATOM     18  H   UNL     1      -4.809   9.445   4.993  0.00  0.00    +0.151 HD
ENDBRANCH   1  14
BRANCH   2  19
ATOM     19  C   UNL     1      -1.069   4.076   5.729  0.00  0.00    +0.021 C 
BRANCH  19  24
ATOM     20  C   UNL     1      -2.720   2.776   6.959  0.00  0.00    -0.077 C 
ATOM     21  C   UNL     1      -2.974   1.276   7.224  0.00  0.00    -0.020 C 
ATOM     22  C   UNL     1      -1.748   0.551   6.633  0.00  0.00    -0.012 C 
ATOM     23  C   UNL     1      -0.856   1.673   6.060  0.00  0.00    -0.033 C 
ATOM     24  N   UNL     1      -1.799   2.773   5.825  0.00  0.00    +0.390 N 
ATOM     25  H   UNL     1      -2.317   2.612   4.953  0.00  0.00    -0.080 HD
BRANCH  23  26
ATOM     26  C   UNL     1      -0.206   1.224   4.777  0.00  0.00    -0.016 A 
ATOM     27  C   UNL     1      -0.747   1.595   3.561  0.00  0.00    +0.051 A 
ATOM     28  C   UNL     1      -0.148   1.182   2.380  0.00  0.00    +0.121 A 
ATOM     29  C   UNL     1       0.991   0.392   2.420  0.00  0.00    +0.049 A 
ATOM     30  C   UNL     1       1.536   0.026   3.635  0.00  0.00    +0.049 A 
ATOM     31  C   UNL     1       0.937   0.439   4.816  0.00  0.00    +0.122 A 
BRANCH  31  32
ATOM     32  O   UNL     1       1.470   0.074   6.013  0.00  0.00    -0.495 OA
ATOM     33  C   UNL     1       2.647  -0.735   5.979  0.00  0.00    +0.277 C 
ENDBRANCH  31  32
BRANCH  28  34
ATOM     34  O   UNL     1      -0.682   1.547   1.184  0.00  0.00    -0.495 OA
ATOM     35  C   UNL     1      -0.013   1.086   0.008  0.00  0.00    +0.277 C 
ENDBRANCH  28  34
ENDBRANCH  23  26
ENDBRANCH  19  24
ENDBRANCH   2  19
TORSDOF 6
