REMARK  Name = ZINC53128619
REMARK  6 active torsions:
REMARK  status: ('A' for Active; 'I' for Inactive)
REMARK    1  A    between atoms: C_1  and  C_2
REMARK    2  A    between atoms: C_7  and  C_9
REMARK    3  A    between atoms: C_7  and  N_11
REMARK    4  A    between atoms: C_9  and  O_10
REMARK    5  A    between atoms: N_11  and  S_12
REMARK    6  A    between atoms: S_12  and  C_15
REMARK                            x       y       z     vdW  Elec       q    Type
REMARK                         _______ _______ _______ _____ _____    ______ ____
ROOT
ATOM      1  N   UNL     1      -0.964  -0.714   1.600  0.00  0.00    -0.182 NA
ATOM      2  H   UNL     1      -1.735  -1.301   1.540  0.00  0.00    +0.149 HD
ENDROOT
BRANCH   1   8
ATOM      3  C   UNL     1      -2.951  -0.884   0.093  0.00  0.00    +0.007 C 
ATOM      4  C   UNL     1      -2.008  -0.737  -1.102  0.00  0.00    -0.012 C 
ATOM      5  C   UNL     1      -1.854   0.745  -1.450  0.00  0.00    +0.003 C 
ATOM      6  C   UNL     1      -1.275   1.494  -0.248  0.00  0.00    +0.002 C 
ATOM      7  C   UNL     1       0.093   0.909   0.107  0.00  0.00    +0.026 C 
ATOM      8  C   UNL     1      -0.061  -0.573   0.455  0.00  0.00    +0.063 C 
ATOM      9  C   UNL     1      -0.639  -1.322  -0.747  0.00  0.00    +0.029 C 
BRANCH   8  10
ATOM     10  C   UNL     1       1.307  -1.159   0.810  0.00  0.00    +0.179 C 
BRANCH  10  11
ATOM     11  O   UNL     1       2.083  -0.174   1.498  0.00  0.00    -0.393 OA
ATOM     12  H   UNL     1       2.943  -0.493   1.802  0.00  0.00    +0.209 HD
ENDBRANCH  10  11
ENDBRANCH   8  10
ENDBRANCH   1   8
BRANCH   1  13
ATOM     13  S   UNL     1      -0.670   0.127   2.995  0.00  0.00    +0.060 S 
ATOM     14  O   UNL     1      -1.593  -0.356   3.963  0.00  0.00    -0.153 OA
ATOM     15  O   UNL     1       0.735   0.094   3.201  0.00  0.00    -0.153 OA
BRANCH  13  16
ATOM     16  C   UNL     1      -1.096   1.809   2.689  0.00  0.00    +0.121 A 
ATOM     17  C   UNL     1      -0.096   2.791   2.659  0.00  0.00    +0.035 A 
ATOM     18  C   UNL     1      -0.443   4.089   2.421  0.00  0.00    +0.072 A 
ATOM     19  C   UNL     1      -1.794   4.412   2.211  0.00  0.00    +0.249 A 
ATOM     20  O   UNL     1      -2.118   5.569   1.996  0.00  0.00    -0.268 OA
ATOM     21  N   UNL     1      -2.732   3.446   2.246  0.00  0.00    -0.327 N 
ATOM     22  H   UNL     1      -3.663   3.676   2.100  0.00  0.00    +0.168 HD
ATOM     23  C   UNL     1      -2.388   2.153   2.478  0.00  0.00    +0.114 A 
ENDBRANCH  13  16
ENDBRANCH   1  13
TORSDOF 5
