REMARK  Name = ZINC41793425
REMARK  7 active torsions:
REMARK  status: ('A' for Active; 'I' for Inactive)
REMARK    1  A    between atoms: C_1  and  C_2
REMARK    2  A    between atoms: C_2  and  C_3
REMARK    3  A    between atoms: C_2  and  C_13
REMARK    4  A    between atoms: C_2  and  N_16
REMARK    5  A    between atoms: N_16  and  C_17
REMARK    6  A    between atoms: C_17  and  C_18
REMARK    7  A    between atoms: N_20  and  C_21
REMARK                            x       y       z     vdW  Elec       q    Type
REMARK                         _______ _______ _______ _____ _____    ______ ____
ROOT
ATOM      1  C   UNL     1       0.214   1.438   0.414  0.00  0.00    +0.010 C 
ATOM      2  C   UNL     1       0.007  -0.021   0.001  0.00  0.00    +0.092 C 
ENDROOT
BRANCH   2   3
ATOM      3  C   UNL     1       0.629  -0.928   1.030  0.00  0.00    +0.106 A 
ATOM      4  C   UNL     1       0.280  -0.974   2.323  0.00  0.00    +0.052 A 
ATOM      5  C   UNL     1       1.139  -1.990   2.943  0.00  0.00    +0.021 A 
ATOM      6  C   UNL     1       1.269  -2.500   4.234  0.00  0.00    +0.027 A 
ATOM      7  C   UNL     1       2.204  -3.480   4.487  0.00  0.00    +0.019 A 
ATOM      8  C   UNL     1       3.013  -3.958   3.464  0.00  0.00    +0.019 A 
ATOM      9  C   UNL     1       2.893  -3.461   2.184  0.00  0.00    +0.048 A 
ATOM     10  C   UNL     1       1.956  -2.473   1.908  0.00  0.00    +0.135 A 
ATOM     11  O   UNL     1       1.611  -1.813   0.784  0.00  0.00    -0.461 OA
ATOM     12 BR   UNL     1       2.388  -4.177   6.236  0.00  0.00    -0.050 Br
ENDBRANCH   2   3
BRANCH   2  13
ATOM     13  C   UNL     1      -1.469  -0.310  -0.097  0.00  0.00    +0.352 C 
ATOM     14  O   UNL     1      -1.933  -0.770  -1.127  0.00  0.00    -0.247 OA
ATOM     15  O   UNL     1      -2.199  -0.083   0.852  0.00  0.00    -0.247 OA
ENDBRANCH   2  13
BRANCH   2  16
ATOM     16  N   UNL     1       0.639  -0.254  -1.304  0.00  0.00    +0.400 N 
ATOM     17  H   UNL     1       0.583  -1.235  -1.534  0.00  0.00    -0.083 HD
ATOM     18  H   UNL     1       0.162   0.285  -2.011  0.00  0.00    -0.083 HD
BRANCH  16  19
ATOM     19  C   UNL     1       2.049   0.155  -1.245  0.00  0.00    +0.017 C 
BRANCH  19  20
ATOM     20  C   UNL     1       2.669   0.017  -2.612  0.00  0.00    +0.196 C 
ATOM     21  O   UNL     1       2.003  -0.383  -3.543  0.00  0.00    -0.278 OA
ATOM     22  N   UNL     1       3.965   0.339  -2.799  0.00  0.00    -0.320 N 
ATOM     23  C   UNL     1       4.568   0.205  -4.127  0.00  0.00    +0.128 C 
ATOM     24  H   UNL     1       4.498   0.659  -2.054  0.00  0.00    +0.148 HD
ENDBRANCH  19  20
ENDBRANCH  16  19
ENDBRANCH   2  16
TORSDOF 5
