REMARK  Name = ZINC59461822
REMARK  7 active torsions:
REMARK  status: ('A' for Active; 'I' for Inactive)
REMARK    1  A    between atoms: C_1  and  C_2
REMARK    2  A    between atoms: C_3  and  C_20
REMARK    3  A    between atoms: C_9  and  C_12
REMARK    4  A    between atoms: C_20  and  C_22
REMARK    5  A    between atoms: C_20  and  C_28
REMARK    6  A    between atoms: C_28  and  C_30
REMARK    7  A    between atoms: C_28  and  C_32
REMARK                            x       y       z     vdW  Elec       q    Type
REMARK                         _______ _______ _______ _____ _____    ______ ____
ROOT
ATOM      1  C   UNL     1       0.011   1.443   0.856  0.00  0.00    +0.065 C 
ATOM      2  C   UNL     1      -0.759   1.560  -0.434  0.00  0.00    +0.039 A 
ATOM      3  C   UNL     1      -0.975   2.699  -1.123  0.00  0.00    +0.048 A 
ATOM      4  C   UNL     1      -1.737   2.380  -2.271  0.00  0.00    +0.277 A 
ATOM      5  N   UNL     1      -1.967   1.051  -2.252  0.00  0.00    -0.194 N 
ATOM      6  N   UNL     1      -1.352   0.529  -1.106  0.00  0.00    -0.292 N 
ATOM      7  C   UNL     1      -2.680   0.330  -3.200  0.00  0.00    +0.196 A 
ATOM      8  N   UNL     1      -2.946  -0.963  -3.240  0.00  0.00    -0.221 NA
ATOM      9  C   UNL     1      -3.650  -1.490  -4.231  0.00  0.00    +0.080 A 
ATOM     10  C   UNL     1      -4.109  -0.680  -5.232  0.00  0.00    +0.077 A 
ATOM     11  S   UNL     1      -3.489   0.906  -4.686  0.00  0.00    -0.056 S 
ATOM     12  O   UNL     1      -2.117   3.164  -3.122  0.00  0.00    -0.265 OA
ATOM     13  H   UNL     1      -1.350  -0.403  -0.836  0.00  0.00    +0.187 HD
ENDROOT
BRANCH   9  14
ATOM     14  C   UNL     1      -3.936  -2.945  -4.254  0.00  0.00    +0.001 A 
ATOM     15  C   UNL     1      -4.670  -3.496  -5.303  0.00  0.00    +0.011 A 
ATOM     16  C   UNL     1      -4.933  -4.851  -5.320  0.00  0.00    +0.020 A 
ATOM     17  C   UNL     1      -4.469  -5.662  -4.299  0.00  0.00    +0.041 A 
ATOM     18  C   UNL     1      -3.739  -5.119  -3.255  0.00  0.00    +0.020 A 
ATOM     19  C   UNL     1      -3.465  -3.767  -3.231  0.00  0.00    +0.011 A 
ATOM     20 CL   UNL     1      -4.803  -7.365  -4.327  0.00  0.00    -0.084 Cl
ENDBRANCH   9  14
BRANCH   3  21
ATOM     21  C   UNL     1      -0.489   4.072  -0.737  0.00  0.00    +0.082 C 
BRANCH  21  22
ATOM     22  C   UNL     1      -1.671   4.956  -0.432  0.00  0.00    -0.038 A 
ATOM     23  C   UNL     1      -2.472   5.418  -1.459  0.00  0.00    +0.004 A 
ATOM     24  C   UNL     1      -3.556   6.228  -1.179  0.00  0.00    +0.000 A 
ATOM     25  C   UNL     1      -3.840   6.577   0.129  0.00  0.00    +0.000 A 
ATOM     26  C   UNL     1      -3.039   6.114   1.156  0.00  0.00    +0.000 A 
ATOM     27  C   UNL     1      -1.957   5.300   0.876  0.00  0.00    +0.004 A 
ENDBRANCH  21  22
BRANCH  21  28
ATOM     28  C   UNL     1       0.312   4.674  -1.893  0.00  0.00    +0.189 C 
BRANCH  28  29
ATOM     29  C   UNL     1       1.494   3.790  -2.199  0.00  0.00    +0.228 C 
ATOM     30  O   UNL     1       2.620   4.232  -2.111  0.00  0.00    -0.275 OA
ATOM     31  N   UNL     1       1.300   2.509  -2.569  0.00  0.00    -0.328 N 
ATOM     32  H   UNL     1       0.399   2.155  -2.639  0.00  0.00    +0.145 HD
ATOM     33  H   UNL     1       2.061   1.940  -2.765  0.00  0.00    +0.145 HD
ENDBRANCH  28  29
BRANCH  28  34
ATOM     34  C   UNL     1       0.787   6.015  -1.516  0.00  0.00    +0.076 C 
ATOM     35  N   UNL     1       1.153   7.050  -1.225  0.00  0.00    -0.196 NA
ENDBRANCH  28  34
ENDBRANCH  21  28
ENDBRANCH   3  21
TORSDOF 6
