REMARK  Name = ZINC40878540
REMARK  9 active torsions:
REMARK  status: ('A' for Active; 'I' for Inactive)
REMARK    1  A    between atoms: C_1  and  C_2
REMARK    2  A    between atoms: C_2  and  C_3
REMARK    3  A    between atoms: C_2  and  N_4
REMARK    4  A    between atoms: C_5  and  C_7
REMARK    5  A    between atoms: C_7  and  N_8
REMARK    6  A    between atoms: C_14  and  C_16
REMARK    7  A    between atoms: N_21  and  C_23
REMARK    8  A    between atoms: C_26  and  C_30
REMARK    9  A    between atoms: C_32  and  C_35
REMARK                            x       y       z     vdW  Elec       q    Type
REMARK                         _______ _______ _______ _____ _____    ______ ____
ROOT
ATOM      1  C   UNL     1       8.548  -3.077  -3.508  0.00  0.00    +0.092 C 
ATOM      2  C   UNL     1       9.249  -1.764  -3.862  0.00  0.00    +0.016 C 
ATOM      3  C   UNL     1       9.951  -1.907  -5.215  0.00  0.00    +0.020 C 
ATOM      4  C   UNL     1      11.010  -3.010  -5.121  0.00  0.00    +0.105 C 
ATOM      5  N   UNL     1      10.368  -4.242  -4.641  0.00  0.00    -0.327 N 
ATOM      6  C   UNL     1       9.590  -4.194  -3.395  0.00  0.00    +0.118 C 
ENDROOT
BRANCH   1  13
ATOM      7  N   UNL     1       3.805  -2.300  -2.282  0.00  0.00    -0.291 NA
ATOM      8  C   UNL     1       4.444  -2.965  -1.138  0.00  0.00    +0.104 C 
ATOM      9  C   UNL     1       5.826  -2.348  -0.900  0.00  0.00    +0.123 C 
ATOM     10  N   UNL     1       6.587  -2.406  -2.158  0.00  0.00    -0.299 N 
ATOM     11  C   UNL     1       5.954  -1.882  -3.378  0.00  0.00    +0.123 C 
ATOM     12  C   UNL     1       4.567  -2.517  -3.519  0.00  0.00    +0.104 C 
ATOM     13  C   UNL     1       7.830  -2.925  -2.191  0.00  0.00    +0.220 C 
ATOM     14  O   UNL     1       8.371  -3.269  -1.162  0.00  0.00    -0.275 OA
BRANCH   7  15
ATOM     15  C   UNL     1       2.412  -2.742  -2.437  0.00  0.00    +0.180 C 
BRANCH  15  17
ATOM     16  N   UNL     1       0.292  -2.577  -1.174  0.00  0.00    -0.312 N 
ATOM     17  C   UNL     1       1.605  -2.284  -1.249  0.00  0.00    +0.227 C 
ATOM     18  O   UNL     1       2.137  -1.652  -0.361  0.00  0.00    -0.274 OA
ATOM     19  H   UNL     1      -0.134  -3.083  -1.884  0.00  0.00    +0.149 HD
BRANCH  16  21
ATOM     20  C   UNL     1      -0.976  -0.700  -0.253  0.00  0.00    +0.027 C 
ATOM     21  C   UNL     1      -0.493  -2.132  -0.020  0.00  0.00    +0.067 C 
ATOM     22  C   UNL     1      -1.700  -3.054   0.162  0.00  0.00    +0.027 C 
ENDBRANCH  16  21
ENDBRANCH  15  17
ENDBRANCH   7  15
ENDBRANCH   1  13
BRANCH   5  23
ATOM     23  C   UNL     1      10.495  -5.435  -5.354  0.00  0.00    +0.065 A 
ATOM     24  C   UNL     1      11.546  -6.301  -5.076  0.00  0.00    +0.027 A 
ATOM     25  C   UNL     1      11.674  -7.480  -5.780  0.00  0.00    +0.013 A 
ATOM     26  C   UNL     1      10.748  -7.804  -6.771  0.00  0.00    +0.025 A 
ATOM     27  C   UNL     1       9.694  -6.935  -7.049  0.00  0.00    +0.052 A 
ATOM     28  C   UNL     1       9.566  -5.758  -6.339  0.00  0.00    +0.145 A 
ATOM     29  F   UNL     1       8.543  -4.918  -6.604  0.00  0.00    -0.204 F 
BRANCH  26  30
ATOM     30  C   UNL     1      10.885  -9.072  -7.529  0.00  0.00    +0.202 A 
ATOM     31  N   UNL     1      10.065  -9.491  -8.505  0.00  0.00    -0.187 NA
ATOM     32  C   UNL     1      10.471 -10.651  -8.964  0.00  0.00    +0.259 A 
ATOM     33  O   UNL     1      11.575 -11.009  -8.284  0.00  0.00    -0.332 OA
ATOM     34  N   UNL     1      11.831  -9.964  -7.358  0.00  0.00    -0.056 NA
BRANCH  32  35
ATOM     35  C   UNL     1       9.826 -11.431 -10.041  0.00  0.00    +0.039 A 
ATOM     36  C   UNL     1       8.682 -10.941 -10.672  0.00  0.00    +0.013 A 
ATOM     37  C   UNL     1       8.085 -11.674 -11.677  0.00  0.00    +0.001 A 
ATOM     38  C   UNL     1       8.617 -12.892 -12.060  0.00  0.00    +0.000 A 
ATOM     39  C   UNL     1       9.751 -13.383 -11.438  0.00  0.00    +0.001 A 
ATOM     40  C   UNL     1      10.362 -12.658 -10.436  0.00  0.00    +0.013 A 
ENDBRANCH  32  35
ENDBRANCH  26  30
ENDBRANCH   5  23
TORSDOF 7
