REMARK  Name = ZINC03841091
REMARK  9 active torsions:
REMARK  status: ('A' for Active; 'I' for Inactive)
REMARK    1  A    between atoms: C_1  and  C_2
REMARK    2  A    between atoms: C_5  and  O_40
REMARK    3  A    between atoms: C_7  and  C_37
REMARK    4  A    between atoms: C_7  and  C_38
REMARK    5  A    between atoms: C_17  and  C_19
REMARK    6  A    between atoms: C_26  and  C_28
REMARK    7  A    between atoms: C_28  and  C_29
REMARK    8  A    between atoms: N_31  and  C_32
REMARK    9  A    between atoms: C_38  and  O_39
REMARK                            x       y       z     vdW  Elec       q    Type
REMARK                         _______ _______ _______ _____ _____    ______ ____
ROOT
ATOM      1  C   UNL     1       0.946  -0.668   0.999  0.00  0.00    +0.012 C 
ATOM      2  C   UNL     1       0.077  -0.275  -0.198  0.00  0.00    -0.019 C 
ATOM      3  C   UNL     1      -0.098   1.247  -0.227  0.00  0.00    +0.010 C 
ATOM      4  C   UNL     1       1.253   1.934  -0.416  0.00  0.00    +0.032 C 
ATOM      5  C   UNL     1       1.831   1.491  -1.766  0.00  0.00    +0.123 C 
ATOM      6  C   UNL     1       2.065  -0.017  -1.713  0.00  0.00    +0.021 C 
ATOM      7  C   UNL     1       0.740  -0.754  -1.492  0.00  0.00    +0.011 C 
ATOM      8  C   UNL     1       1.056  -2.257  -1.365  0.00  0.00    +0.049 C 
ATOM      9  C   UNL     1      -0.134  -2.959  -0.813  0.00  0.00    +0.015 A 
ATOM     10  C   UNL     1      -1.221  -2.406  -0.216  0.00  0.00    +0.058 A 
ATOM     11  N   UNL     1      -2.157  -3.258   0.197  0.00  0.00    -0.229 NA
ATOM     12  C   UNL     1      -2.040  -4.560   0.036  0.00  0.00    +0.165 A 
ATOM     13  S   UNL     1      -0.501  -4.693  -0.761  0.00  0.00    -0.057 S 
ATOM     14  N   UNL     1      -2.921  -5.568   0.407  0.00  0.00    -0.261 N 
ATOM     15  C   UNL     1      -2.617  -6.856   0.152  0.00  0.00    +0.250 C 
ATOM     16  O   UNL     1      -1.572  -7.136  -0.403  0.00  0.00    -0.270 OA
ATOM     17  C   UNL     1      -1.319  -0.896  -0.057  0.00  0.00    +0.054 C 
ATOM     18  C   UNL     1       2.685  -0.476  -3.034  0.00  0.00    +0.016 C 
ATOM     19  H   UNL     1      -3.755  -5.345   0.850  0.00  0.00    +0.157 HD
ENDROOT
BRANCH  15  20
ATOM     20  C   UNL     1      -3.554  -7.928   0.547  0.00  0.00    +0.037 A 
ATOM     21  C   UNL     1      -4.752  -7.609   1.190  0.00  0.00    +0.016 A 
ATOM     22  C   UNL     1      -5.625  -8.613   1.551  0.00  0.00    +0.039 A 
ATOM     23  C   UNL     1      -5.310  -9.937   1.287  0.00  0.00    +0.123 A 
ATOM     24  C   UNL     1      -4.119 -10.259   0.654  0.00  0.00    +0.039 A 
ATOM     25  C   UNL     1      -3.241  -9.263   0.284  0.00  0.00    +0.016 A 
ATOM     26  F   UNL     1      -6.167 -10.918   1.647  0.00  0.00    -0.205 F 
ENDBRANCH  15  20
BRANCH   5  27
ATOM     27  O   UNL     1       3.074   2.161  -1.988  0.00  0.00    -0.391 OA
ATOM     28  H   UNL     1       2.999   3.124  -2.033  0.00  0.00    +0.210 HD
ENDBRANCH   5  27
BRANCH  17  29
ATOM     29  C   UNL     1      -1.886  -0.565   1.325  0.00  0.00    +0.106 C 
BRANCH  29  30
ATOM     30  C   UNL     1      -3.327  -1.001   1.393  0.00  0.00    +0.214 C 
ATOM     31  O   UNL     1      -3.849  -1.525   0.432  0.00  0.00    -0.276 OA
ATOM     32  N   UNL     1      -4.037  -0.809   2.523  0.00  0.00    -0.312 N 
ATOM     33  H   UNL     1      -3.619  -0.390   3.292  0.00  0.00    +0.149 HD
BRANCH  32  34
ATOM     34  C   UNL     1      -5.437  -1.233   2.590  0.00  0.00    +0.073 C 
ATOM     35  C   UNL     1      -6.356  -0.103   2.080  0.00  0.00    +0.022 C 
ATOM     36  C   UNL     1      -7.601  -0.182   2.997  0.00  0.00    +0.002 C 
ATOM     37  C   UNL     1      -6.987  -0.522   4.378  0.00  0.00    +0.002 C 
ATOM     38  C   UNL     1      -5.838  -1.499   4.051  0.00  0.00    +0.022 C 
ENDBRANCH  32  34
ENDBRANCH  29  30
ENDBRANCH  17  29
BRANCH   6  39
ATOM     39  C   UNL     1       3.022  -0.341  -0.564  0.00  0.00    +0.165 C 
BRANCH  39  40
ATOM     40  O   UNL     1       4.308   0.216  -0.844  0.00  0.00    -0.394 OA
ATOM     41  H   UNL     1       4.967   0.049  -0.157  0.00  0.00    +0.209 HD
ENDBRANCH  39  40
ENDBRANCH   6  39
TORSDOF 7
