REMARK  Name = ZINC06196885
REMARK  8 active torsions:
REMARK  status: ('A' for Active; 'I' for Inactive)
REMARK    1  A    between atoms: C_1  and  C_2
REMARK    2  A    between atoms: C_2  and  O_3
REMARK    3  A    between atoms: O_3  and  C_4
REMARK    4  A    between atoms: C_11  and  C_16
REMARK    5  A    between atoms: C_16  and  C_18
REMARK    6  A    between atoms: C_16  and  N_74
REMARK    7  A    between atoms: N_22  and  C_23
REMARK    8  A    between atoms: C_23  and  C_24
REMARK                            x       y       z     vdW  Elec       q    Type
REMARK                         _______ _______ _______ _____ _____    ______ ____
ROOT
ATOM      1  C   UNL     1       0.004   1.248   2.463  0.00  0.00    +0.039 C 
ENDROOT
BRANCH   1   9
ATOM      2  C   UNL     1       5.531  -1.040   4.093  0.00  0.00    +0.121 A 
ATOM      3  C   UNL     1       6.148   0.192   4.299  0.00  0.00    +0.047 A 
ATOM      4  C   UNL     1       5.453   1.366   4.108  0.00  0.00    +0.030 A 
ATOM      5  C   UNL     1       4.122   1.328   3.706  0.00  0.00    +0.049 A 
ATOM      6  C   UNL     1       3.494   0.085   3.497  0.00  0.00    +0.002 A 
ATOM      7  C   UNL     1       4.211  -1.100   3.694  0.00  0.00    +0.055 A 
ATOM      8  C   UNL     1       2.091   0.060   3.079  0.00  0.00    +0.017 A 
ATOM      9  C   UNL     1       1.447   1.239   2.898  0.00  0.00    +0.011 A 
ATOM     10  C   UNL     1       2.122   2.459   3.121  0.00  0.00    +0.251 A 
ATOM     11  O   UNL     1       1.523   3.507   2.956  0.00  0.00    -0.268 OA
ATOM     12  N   UNL     1       3.408   2.493   3.509  0.00  0.00    -0.322 N 
ATOM     13  H   UNL     1       3.855   3.375   3.658  0.00  0.00    +0.169 HD
BRANCH   2  14
ATOM     14  O   UNL     1       6.232  -2.188   4.287  0.00  0.00    -0.492 OA
BRANCH  14  16
ATOM     15  C   UNL     1       8.214  -3.444   4.865  0.00  0.00    +0.048 C 
ATOM     16  C   UNL     1       7.594  -2.055   4.699  0.00  0.00    +0.225 C 
ENDBRANCH  14  16
ENDBRANCH   2  14
ENDBRANCH   1   9
BRANCH   1  27
ATOM     17  C   UNL     1       0.752   1.555   0.182  0.00  0.00    -0.077 C 
ATOM     18  C   UNL     1       0.689   2.498  -1.022  0.00  0.00    -0.018 C 
ATOM     19  C   UNL     1      -0.753   2.573  -1.530  0.00  0.00    +0.003 C 
ATOM     20  C   UNL     1      -1.662   3.046  -0.393  0.00  0.00    -0.044 C 
ATOM     21  C   UNL     1      -1.532   2.087   0.792  0.00  0.00    -0.071 C 
ATOM     22  C   UNL     1      -3.114   3.069  -0.876  0.00  0.00    +0.005 C 
ATOM     23  C   UNL     1      -3.241   4.026  -2.062  0.00  0.00    +0.000 C 
ATOM     24  C   UNL     1      -2.825   5.433  -1.629  0.00  0.00    +0.000 C 
ATOM     25  C   UNL     1      -1.373   5.410  -1.146  0.00  0.00    +0.000 C 
ATOM     26  C   UNL     1      -1.246   4.453   0.040  0.00  0.00    +0.005 C 
ATOM     27  N   UNL     1      -0.126   2.079   1.249  0.00  0.00    +0.390 N 
ATOM     28  H   UNL     1       0.157   3.041   1.472  0.00  0.00    -0.080 HD
ENDBRANCH   1  27
BRANCH   1  29
ATOM     29  C   UNL     1      -0.846   1.843   3.556  0.00  0.00    +0.143 A 
ATOM     30  N   UNL     1      -0.840   3.090   3.961  0.00  0.00    -0.115 NA
ATOM     31  N   UNL     1      -1.704   3.205   4.909  0.00  0.00    -0.023 NA
ATOM     32  N   UNL     1      -2.261   2.064   5.120  0.00  0.00    -0.044 NA
ATOM     33  N   UNL     1      -1.763   1.200   4.302  0.00  0.00    -0.226 N 
BRANCH  33  34
ATOM     34  C   UNL     1      -2.125  -0.217   4.205  0.00  0.00    +0.182 C 
BRANCH  34  35
ATOM     35  C   UNL     1      -1.358  -1.003   5.237  0.00  0.00    -0.026 A 
ATOM     36  C   UNL     1      -0.188  -1.649   4.885  0.00  0.00    +0.005 A 
ATOM     37  C   UNL     1       0.519  -2.366   5.832  0.00  0.00    +0.000 A 
ATOM     38  C   UNL     1       0.049  -2.445   7.130  0.00  0.00    +0.000 A 
ATOM     39  C   UNL     1      -1.123  -1.803   7.481  0.00  0.00    +0.000 A 
ATOM     40  C   UNL     1      -1.827  -1.082   6.535  0.00  0.00    +0.005 A 
ENDBRANCH  34  35
ENDBRANCH  33  34
ENDBRANCH   1  29
TORSDOF 7
