REMARK  Name = ZINC41863812
REMARK  4 active torsions:
REMARK  status: ('A' for Active; 'I' for Inactive)
REMARK    1  A    between atoms: C_1  and  C_2
REMARK    2  A    between atoms: C_2  and  C_3
REMARK    3  A    between atoms: C_2  and  C_4
REMARK    4  A    between atoms: N_23  and  C_24
REMARK                            x       y       z     vdW  Elec       q    Type
REMARK                         _______ _______ _______ _____ _____    ______ ____
ROOT
ATOM      1  C   UNL     1      -1.953  -1.032   0.560  0.00  0.00    -0.044 A 
ATOM      2  C   UNL     1      -2.937  -0.909   1.520  0.00  0.00    +0.006 A 
ATOM      3  C   UNL     1      -4.219  -1.398   1.324  0.00  0.00    +0.024 A 
ATOM      4  C   UNL     1      -4.483  -2.026   0.105  0.00  0.00    +0.041 A 
ATOM      5  C   UNL     1      -3.476  -2.143  -0.860  0.00  0.00    +0.025 A 
ATOM      6  C   UNL     1      -2.205  -1.650  -0.660  0.00  0.00    +0.013 A 
ATOM      7  C   UNL     1      -4.091  -2.855  -2.024  0.00  0.00    +0.208 C 
ATOM      8  C   UNL     1      -5.521  -3.109  -1.593  0.00  0.00    +0.264 C 
ATOM      9  O   UNL     1      -6.381  -3.667  -2.241  0.00  0.00    -0.271 OA
ATOM     10  N   UNL     1      -5.657  -2.597  -0.352  0.00  0.00    -0.282 N 
ATOM     11  N   UNL     1      -3.416  -4.132  -2.268  0.00  0.00    -0.312 N 
ATOM     12  C   UNL     1      -2.226  -4.133  -2.989  0.00  0.00    +0.041 A 
ATOM     13  C   UNL     1      -1.262  -5.109  -2.799  0.00  0.00    +0.024 A 
ATOM     14  C   UNL     1      -0.100  -5.077  -3.546  0.00  0.00    +0.002 A 
ATOM     15  C   UNL     1       0.107  -4.077  -4.484  0.00  0.00    +0.001 A 
ATOM     16  C   UNL     1      -0.841  -3.095  -4.681  0.00  0.00    +0.015 A 
ATOM     17  C   UNL     1      -2.016  -3.112  -3.932  0.00  0.00    +0.058 A 
ATOM     18  C   UNL     1      -3.046  -2.071  -4.093  0.00  0.00    +0.251 C 
ATOM     19  O   UNL     1      -2.973  -1.270  -5.005  0.00  0.00    -0.270 OA
ATOM     20  N   UNL     1      -4.073  -2.016  -3.219  0.00  0.00    -0.262 N 
ATOM     21  H   UNL     1      -6.481  -2.626   0.159  0.00  0.00    +0.155 HD
ATOM     22  H   UNL     1      -3.791  -4.961  -1.933  0.00  0.00    +0.149 HD
ENDROOT
BRANCH   1  24
ATOM     23  C   UNL     1      -0.678   1.026   1.097  0.00  0.00    +0.012 C 
ATOM     24  C   UNL     1      -0.579  -0.479   0.838  0.00  0.00    +0.013 C 
ATOM     25  C   UNL     1       0.011  -1.171   2.068  0.00  0.00    +0.012 C 
ENDBRANCH   1  24
BRANCH  20  26
ATOM     26  C   UNL     1      -5.187  -1.099  -3.473  0.00  0.00    +0.079 C 
ATOM     27  C   UNL     1      -5.328  -0.533  -4.888  0.00  0.00    +0.024 C 
ATOM     28  C   UNL     1      -4.846   0.367  -3.748  0.00  0.00    +0.024 C 
ENDBRANCH  20  26
TORSDOF 2
