REMARK  Name = ZINC22570842
REMARK  7 active torsions:
REMARK  status: ('A' for Active; 'I' for Inactive)
REMARK    1  A    between atoms: C_1  and  C_2
REMARK    2  A    between atoms: C_2  and  O_3
REMARK    3  A    between atoms: O_3  and  C_4
REMARK    4  A    between atoms: C_6  and  C_11
REMARK    5  A    between atoms: C_9  and  O_10
REMARK    6  A    between atoms: C_16  and  C_20
REMARK    7  A    between atoms: C_16  and  C_21
REMARK                            x       y       z     vdW  Elec       q    Type
REMARK                         _______ _______ _______ _____ _____    ______ ____
ROOT
ATOM      1  C   UNL     1      -0.018   1.452   0.010  0.00  0.00    +0.173 C 
ATOM      2  C   UNL     1       1.378   2.022  -0.000  0.00  0.00    +0.041 C 
ATOM      3  C   UNL     1       2.433   1.245   0.328  0.00  0.00    +0.020 C 
ATOM      4  C   UNL     1       3.837   1.793   0.326  0.00  0.00    +0.058 C 
ATOM      5  C   UNL     1       3.806   3.287   0.660  0.00  0.00    -0.023 C 
ATOM      6  C   UNL     1       2.920   3.998  -0.367  0.00  0.00    +0.086 C 
ATOM      7  C   UNL     1       1.552   3.370  -0.355  0.00  0.00    +0.164 C 
ATOM      8  O   UNL     1       0.584   4.039  -0.656  0.00  0.00    -0.292 OA
ATOM      9  C   UNL     1       3.229   3.487   2.063  0.00  0.00    +0.011 C 
ATOM     10  C   UNL     1       5.225   3.855   0.602  0.00  0.00    +0.011 C 
ATOM     11  N   UNL     1       2.231  -0.067   0.666  0.00  0.00    -0.290 N 
ATOM     12  C   UNL     1       1.054  -0.690   0.313  0.00  0.00    +0.186 C 
ATOM     13  N   UNL     1       0.002  -0.004   0.002  0.00  0.00    -0.243 NA
ATOM     14  N   UNL     1       0.997  -2.067   0.291  0.00  0.00    -0.266 N 
ATOM     15  C   UNL     1      -0.179  -2.705  -0.063  0.00  0.00    +0.165 A 
ATOM     16  N   UNL     1      -1.333  -2.177  -0.399  0.00  0.00    -0.225 NA
ATOM     17  C   UNL     1      -2.406  -2.928  -0.728  0.00  0.00    +0.080 A 
ATOM     18  C   UNL     1      -3.695  -2.490  -1.111  0.00  0.00    +0.029 A 
ATOM     19  C   UNL     1      -4.682  -3.392  -1.409  0.00  0.00    +0.002 A 
ATOM     20  C   UNL     1      -4.457  -4.760  -1.347  0.00  0.00    +0.001 A 
ATOM     21  C   UNL     1      -3.208  -5.224  -0.977  0.00  0.00    +0.017 A 
ATOM     22  C   UNL     1      -2.213  -4.328  -0.676  0.00  0.00    +0.041 A 
ATOM     23  S   UNL     1      -0.515  -4.457  -0.170  0.00  0.00    -0.052 S 
ATOM     24  H   UNL     1       3.006  -0.619   1.218  0.00  0.00    +0.154 HD
ATOM     25  H   UNL     1       1.887  -2.659   0.554  0.00  0.00    +0.157 HD
ENDROOT
BRANCH   1  28
ATOM     26  C   UNL     1      -2.253   3.450   2.309  0.00  0.00    +0.162 A 
ATOM     27  C   UNL     1      -1.589   3.014   1.174  0.00  0.00    +0.055 A 
ATOM     28  C   UNL     1      -0.735   1.928   1.247  0.00  0.00    -0.015 A 
ATOM     29  C   UNL     1      -0.535   1.282   2.452  0.00  0.00    +0.010 A 
ATOM     30  C   UNL     1      -1.190   1.716   3.590  0.00  0.00    +0.049 A 
ATOM     31  C   UNL     1      -2.051   2.800   3.523  0.00  0.00    +0.158 A 
BRANCH  31  32
ATOM     32  O   UNL     1      -2.696   3.228   4.641  0.00  0.00    -0.503 OA
ATOM     33  H   UNL     1      -2.535   2.714   5.599  0.00  0.00    +0.292 HD
ENDBRANCH  31  32
BRANCH  26  34
ATOM     34  O   UNL     1      -3.097   4.514   2.238  0.00  0.00    -0.489 OA
BRANCH  34  36
ATOM     35  C   UNL     1      -4.235   6.302   1.076  0.00  0.00    +0.048 C 
ATOM     36  C   UNL     1      -3.256   5.132   0.959  0.00  0.00    +0.226 C 
ENDBRANCH  34  36
ENDBRANCH  26  34
ENDBRANCH   1  28
TORSDOF 4
