REMARK  Name = ZINC14461274
REMARK  3 active torsions:
REMARK  status: ('A' for Active; 'I' for Inactive)
REMARK    1  A    between atoms: C_6  and  C_7
REMARK    2  A    between atoms: C_21  and  C_24
REMARK    3  A    between atoms: C_29  and  O_30
REMARK                            x       y       z     vdW  Elec       q    Type
REMARK                         _______ _______ _______ _____ _____    ______ ____
ROOT
ATOM      1  C   UNL     1      -3.036   5.911   3.056  0.00  0.00    +0.015 A 
ATOM      2  C   UNL     1      -1.732   5.561   3.321  0.00  0.00    +0.024 A 
ATOM      3  C   UNL     1      -1.097   4.590   2.552  0.00  0.00    +0.031 A 
ATOM      4  C   UNL     1      -1.766   3.961   1.508  0.00  0.00    -0.019 A 
ATOM      5  C   UNL     1      -3.078   4.311   1.243  0.00  0.00    +0.019 A 
ATOM      6  C   UNL     1      -3.719   5.284   2.010  0.00  0.00    +0.037 A 
ATOM      7  C   UNL     1      -1.117   2.917   0.655  0.00  0.00    +0.049 C 
ATOM      8  C   UNL     1      -1.611   1.532   1.002  0.00  0.00    -0.023 C 
ATOM      9  C   UNL     1      -0.634   0.664   0.904  0.00  0.00    -0.030 C 
ATOM     10  C   UNL     1       0.644   1.352   0.463  0.00  0.00    +0.033 C 
ATOM     11  C   UNL     1       0.408   2.839   0.860  0.00  0.00    +0.029 C 
ATOM     12  C   UNL     1       0.741   2.970   2.349  0.00  0.00    +0.108 C 
ATOM     13  N   UNL     1       0.224   4.252   2.840  0.00  0.00    -0.336 N 
ATOM     14  H   UNL     1       0.788   4.850   3.354  0.00  0.00    +0.147 HD
ENDROOT
BRANCH   6  15
ATOM     15  C   UNL     1      -5.118   5.650   1.718  0.00  0.00    +0.247 C 
ATOM     16  O   UNL     1      -5.667   5.212   0.725  0.00  0.00    -0.270 OA
ATOM     17  N   UNL     1      -5.788   6.471   2.551  0.00  0.00    -0.298 N 
ATOM     18  C   UNL     1      -5.219   7.152   3.723  0.00  0.00    +0.108 C 
ATOM     19  C   UNL     1      -6.358   7.959   4.382  0.00  0.00    +0.020 C 
ATOM     20  C   UNL     1      -7.632   7.231   3.879  0.00  0.00    +0.020 C 
ATOM     21  C   UNL     1      -7.214   6.828   2.443  0.00  0.00    +0.108 C 
ENDBRANCH   6  15
BRANCH  12  22
ATOM     22  C   UNL     1       0.097   1.841   3.111  0.00  0.00    +0.015 A 
ATOM     23  C   UNL     1      -1.180   1.988   3.618  0.00  0.00    +0.024 A 
ATOM     24  C   UNL     1      -1.772   0.952   4.317  0.00  0.00    +0.018 A 
ATOM     25  C   UNL     1      -1.086  -0.234   4.512  0.00  0.00    +0.019 A 
ATOM     26  C   UNL     1       0.191  -0.385   4.007  0.00  0.00    +0.047 A 
ATOM     27  C   UNL     1       0.784   0.651   3.300  0.00  0.00    +0.122 A 
ATOM     28 BR   UNL     1      -3.520   1.156   5.008  0.00  0.00    -0.050 Br
BRANCH  27  29
ATOM     29  O   UNL     1       2.038   0.502   2.798  0.00  0.00    -0.506 OA
ATOM     30  H   UNL     1       2.740   0.774   3.405  0.00  0.00    +0.292 HD
ENDBRANCH  27  29
ENDBRANCH  12  22
TORSDOF 3
