REMARK  Name = ZINC20886129
REMARK  11 active torsions:
REMARK  status: ('A' for Active; 'I' for Inactive)
REMARK    1  A    between atoms: C_1  and  C_2
REMARK    2  A    between atoms: C_2  and  C_3
REMARK    3  A    between atoms: C_2  and  C_4
REMARK    4  A    between atoms: C_4  and  O_5
REMARK    5  A    between atoms: O_5  and  C_6
REMARK    6  A    between atoms: C_9  and  C_12
REMARK    7  A    between atoms: C_17  and  C_23
REMARK    8  A    between atoms: C_25  and  O_32
REMARK    9  A    between atoms: C_28  and  O_29
REMARK   10  A    between atoms: O_29  and  C_30
REMARK   11  A    between atoms: O_32  and  C_33
REMARK                            x       y       z     vdW  Elec       q    Type
REMARK                         _______ _______ _______ _____ _____    ______ ____
ROOT
ATOM      1  C   UNL     1       4.809   1.779   0.194  0.00  0.00    +0.032 C 
ATOM      2  C   UNL     1       3.558   2.319  -0.504  0.00  0.00    +0.059 C 
ATOM      3  C   UNL     1       2.346   1.551  -0.038  0.00  0.00    +0.018 C 
ATOM      4  C   UNL     1       2.447   0.258   0.333  0.00  0.00    +0.020 C 
ATOM      5  C   UNL     1       1.218  -0.493   0.790  0.00  0.00    +0.066 C 
ATOM      6  C   UNL     1       0.002  -0.004   0.002  0.00  0.00    +0.109 C 
ATOM      7  C   UNL     1      -0.018   1.503   0.010  0.00  0.00    +0.218 C 
ATOM      8  O   UNL     1      -1.077   2.093   0.018  0.00  0.00    -0.275 OA
ATOM      9  N   UNL     1       1.135   2.193   0.003  0.00  0.00    -0.289 N 
ATOM     10  C   UNL     1       3.679  -0.417   0.307  0.00  0.00    +0.162 C 
ATOM     11  O   UNL     1       3.728  -1.586   0.636  0.00  0.00    -0.292 OA
ATOM     12  C   UNL     1       4.939   0.285  -0.123  0.00  0.00    +0.088 C 
ATOM     13  H   UNL     1       1.096   3.292   0.030  0.00  0.00    +0.155 HD
ENDROOT
BRANCH   5  14
ATOM     14  C   UNL     1       0.997  -0.246   2.260  0.00  0.00    +0.006 A 
ATOM     15  C   UNL     1       0.800   1.041   2.723  0.00  0.00    +0.054 A 
ATOM     16  C   UNL     1       0.590   1.267   4.075  0.00  0.00    +0.134 A 
ATOM     17  C   UNL     1       0.590   0.202   4.965  0.00  0.00    +0.063 A 
ATOM     18  C   UNL     1       0.792  -1.084   4.503  0.00  0.00    +0.064 A 
ATOM     19  C   UNL     1       0.996  -1.311   3.149  0.00  0.00    +0.125 A 
ATOM     20 BR   UNL     1       0.313   0.512   6.810  0.00  0.00    -0.046 Br
BRANCH  19  21
ATOM     21  O   UNL     1       1.194  -2.577   2.694  0.00  0.00    -0.495 OA
ATOM     22  C   UNL     1       1.181  -3.625   3.666  0.00  0.00    +0.277 C 
ENDBRANCH  19  21
BRANCH  16  23
ATOM     23  O   UNL     1       0.391   2.534   4.529  0.00  0.00    -0.494 OA
ATOM     24  C   UNL     1       0.405   3.581   3.558  0.00  0.00    +0.277 C 
ENDBRANCH  16  23
ENDBRANCH   5  14
BRANCH   1  28
ATOM     25  C   UNL     1       8.260   3.856  -1.234  0.00  0.00    +0.121 A 
ATOM     26  C   UNL     1       7.942   3.882   0.116  0.00  0.00    +0.046 A 
ATOM     27  C   UNL     1       6.826   3.210   0.575  0.00  0.00    +0.007 A 
ATOM     28  C   UNL     1       6.025   2.511  -0.309  0.00  0.00    -0.043 A 
ATOM     29  C   UNL     1       6.343   2.479  -1.655  0.00  0.00    +0.007 A 
ATOM     30  C   UNL     1       7.455   3.154  -2.120  0.00  0.00    +0.046 A 
BRANCH  25  31
ATOM     31  O   UNL     1       9.357   4.515  -1.688  0.00  0.00    -0.492 OA
BRANCH  31  32
ATOM     32  C   UNL     1       9.623   4.445  -3.090  0.00  0.00    +0.232 C 
BRANCH  32  34
ATOM     33  C   UNL     1      12.093   4.580  -2.737  0.00  0.00    +0.010 C 
ATOM     34  C   UNL     1      10.889   5.242  -3.410  0.00  0.00    +0.020 C 
ATOM     35  C   UNL     1      11.104   5.271  -4.925  0.00  0.00    +0.010 C 
ENDBRANCH  32  34
ENDBRANCH  31  32
ENDBRANCH  25  31
ENDBRANCH   1  28
TORSDOF 7
