REMARK  Name = ZINC60336042
REMARK  8 active torsions:
REMARK  status: ('A' for Active; 'I' for Inactive)
REMARK    1  A    between atoms: C_1  and  N_2
REMARK    2  A    between atoms: N_2  and  S_3
REMARK    3  A    between atoms: S_3  and  C_6
REMARK    4  A    between atoms: C_15  and  C_17
REMARK    5  A    between atoms: C_21  and  C_23
REMARK    6  A    between atoms: C_23  and  O_24
REMARK    7  A    between atoms: O_24  and  C_25
REMARK    8  A    between atoms: C_30  and  C_31
REMARK                            x       y       z     vdW  Elec       q    Type
REMARK                         _______ _______ _______ _____ _____    ______ ____
ROOT
ATOM      1  C   UNL     1       8.729   1.345  -1.166  0.00  0.00    +0.038 A 
ATOM      2  C   UNL     1       9.326   0.371  -0.362  0.00  0.00    +0.013 A 
ATOM      3  C   UNL     1      10.666   0.466  -0.050  0.00  0.00    +0.001 A 
ATOM      4  C   UNL     1      11.419   1.523  -0.530  0.00  0.00    +0.007 A 
ATOM      5  C   UNL     1      10.834   2.491  -1.327  0.00  0.00    -0.010 A 
ATOM      6  C   UNL     1       9.496   2.405  -1.652  0.00  0.00    +0.020 A 
ENDROOT
BRANCH   1  16
ATOM      7  C   UNL     1       2.414  -0.345  -1.112  0.00  0.00    +0.106 A 
ATOM      8  C   UNL     1       2.917   0.710  -1.851  0.00  0.00    +0.030 A 
ATOM      9  C   UNL     1       4.267   0.989  -1.832  0.00  0.00    +0.026 A 
ATOM     10  C   UNL     1       5.137   0.209  -1.066  0.00  0.00    +0.040 A 
ATOM     11  C   UNL     1       4.622  -0.846  -0.329  0.00  0.00    -0.023 A 
ATOM     12  C   UNL     1       3.268  -1.119  -0.348  0.00  0.00    +0.034 A 
ATOM     13  C   UNL     1       5.760  -1.522   0.402  0.00  0.00    +0.056 C 
ATOM     14  C   UNL     1       7.010  -0.724  -0.005  0.00  0.00    +0.118 C 
ATOM     15  N   UNL     1       6.521   0.320  -0.910  0.00  0.00    -0.267 N 
ATOM     16  C   UNL     1       7.294   1.250  -1.504  0.00  0.00    +0.251 C 
ATOM     17  O   UNL     1       6.810   2.011  -2.320  0.00  0.00    -0.270 OA
BRANCH   7  18
ATOM     18  S   UNL     1       0.688  -0.698  -1.139  0.00  0.00    +0.058 S 
ATOM     19  O   UNL     1       0.548  -2.068  -0.788  0.00  0.00    -0.153 OA
ATOM     20  O   UNL     1       0.184  -0.168  -2.357  0.00  0.00    -0.153 OA
BRANCH  18  22
ATOM     21  C   UNL     1      -0.006   1.641   0.029  0.00  0.00    +0.127 C 
ATOM     22  N   UNL     1      -0.010   0.177   0.082  0.00  0.00    -0.193 NA
ATOM     23  H   UNL     1      -0.420  -0.280   0.833  0.00  0.00    +0.148 HD
ENDBRANCH  18  22
ENDBRANCH   7  18
ENDBRANCH   1  16
BRANCH   5  24
ATOM     24  C   UNL     1      11.661   3.639  -1.846  0.00  0.00    +0.264 C 
BRANCH  24  25
ATOM     25  O   UNL     1      12.230   3.284  -3.108  0.00  0.00    -0.487 OA
BRANCH  25  26
ATOM     26  C   UNL     1      13.009   4.214  -3.716  0.00  0.00    +0.133 A 
ATOM     27  C   UNL     1      13.229   5.442  -3.110  0.00  0.00    +0.046 A 
ATOM     28  C   UNL     1      14.021   6.387  -3.730  0.00  0.00    +0.004 A 
ATOM     29  C   UNL     1      14.602   6.118  -4.958  0.00  0.00    +0.001 A 
ATOM     30  C   UNL     1      14.395   4.903  -5.574  0.00  0.00    +0.017 A 
ATOM     31  C   UNL     1      13.600   3.935  -4.955  0.00  0.00    +0.078 A 
BRANCH  31  32
ATOM     32  C   UNL     1      13.378   2.630  -5.606  0.00  0.00    +0.245 C 
ATOM     33  O   UNL     1      12.681   1.792  -5.067  0.00  0.00    -0.270 OA
ATOM     34  N   UNL     1      13.948   2.366  -6.799  0.00  0.00    -0.325 N 
ATOM     35  H   UNL     1      14.504   3.034  -7.229  0.00  0.00    +0.145 HD
ATOM     36  H   UNL     1      13.802   1.508  -7.227  0.00  0.00    +0.145 HD
ENDBRANCH  31  32
ENDBRANCH  25  26
ENDBRANCH  24  25
ENDBRANCH   5  24
TORSDOF 7
