REMARK  Name = ZINC13067581
REMARK  6 active torsions:
REMARK  status: ('A' for Active; 'I' for Inactive)
REMARK    1  A    between atoms: C_3  and  N_28
REMARK    2  A    between atoms: C_5  and  S_7
REMARK    3  A    between atoms: S_7  and  N_10
REMARK    4  A    between atoms: N_13  and  S_16
REMARK    5  A    between atoms: S_16  and  C_19
REMARK    6  A    between atoms: C_23  and  C_25
REMARK                            x       y       z     vdW  Elec       q    Type
REMARK                         _______ _______ _______ _____ _____    ______ ____
ROOT
ATOM      1  N   UNL     1      -0.095   6.100  -1.548  0.00  0.00    -0.174 NA
ATOM      2  C   UNL     1       1.160   6.348  -2.271  0.00  0.00    +0.126 C 
ATOM      3  C   UNL     1       1.160   5.493  -3.550  0.00  0.00    +0.126 C 
ATOM      4  N   UNL     1      -0.115   5.701  -4.252  0.00  0.00    -0.174 NA
ATOM      5  C   UNL     1      -1.370   5.458  -3.527  0.00  0.00    +0.126 C 
ATOM      6  C   UNL     1      -1.370   6.307  -2.249  0.00  0.00    +0.126 C 
ENDROOT
BRANCH   1   7
ATOM      7  S   UNL     1      -0.074   5.602   0.032  0.00  0.00    +0.061 S 
ATOM      8  O   UNL     1      -1.319   5.988   0.596  0.00  0.00    -0.153 OA
ATOM      9  O   UNL     1       1.171   6.022   0.573  0.00  0.00    -0.153 OA
BRANCH   7  14
ATOM     10  C   UNL     1       1.175   1.783   0.000  0.00  0.00    +0.004 A 
ATOM     11  C   UNL     1      -0.013   1.076   0.008  0.00  0.00    +0.033 A 
ATOM     12  C   UNL     1      -1.219   1.750   0.017  0.00  0.00    +0.128 A 
ATOM     13  C   UNL     1      -1.238   3.133   0.030  0.00  0.00    +0.061 A 
ATOM     14  C   UNL     1      -0.050   3.840   0.022  0.00  0.00    +0.108 A 
ATOM     15  C   UNL     1       1.157   3.165   0.008  0.00  0.00    +0.028 A 
BRANCH  12  16
ATOM     16  N   UNL     1      -2.490   0.993   0.019  0.00  0.00    +0.056 N 
ATOM     17  O   UNL     1      -2.474  -0.225   0.013  0.00  0.00    -0.126 OA
ATOM     18  O   UNL     1      -3.554   1.588   0.028  0.00  0.00    -0.126 OA
ENDBRANCH  12  16
ENDBRANCH   7  14
ENDBRANCH   1   7
BRANCH   4  19
ATOM     19  S   UNL     1      -0.136   6.200  -5.831  0.00  0.00    +0.061 S 
ATOM     20  O   UNL     1       1.109   5.814  -6.396  0.00  0.00    -0.153 OA
ATOM     21  O   UNL     1      -1.381   5.780  -6.372  0.00  0.00    -0.153 OA
BRANCH  19  22
ATOM     22  C   UNL     1      -0.160   7.961  -5.821  0.00  0.00    +0.106 A 
ATOM     23  C   UNL     1      -1.370   8.635  -5.811  0.00  0.00    +0.030 A 
ATOM     24  C   UNL     1      -1.399  10.018  -5.798  0.00  0.00    +0.023 A 
ATOM     25  C   UNL     1      -0.219  10.736  -5.805  0.00  0.00    +0.055 A 
ATOM     26  C   UNL     1       1.005  10.062  -5.820  0.00  0.00    +0.083 A 
ATOM     27  C   UNL     1       1.025   8.665  -5.828  0.00  0.00    +0.045 A 
ATOM     28 CL   UNL     1      -0.256  12.472  -5.795  0.00  0.00    -0.083 Cl
BRANCH  26  29
ATOM     29  C   UNL     1       2.271  10.822  -5.827  0.00  0.00    +0.388 C 
ATOM     30  O   UNL     1       2.250  12.036  -5.820  0.00  0.00    -0.241 OA
ATOM     31  O   UNL     1       3.449  10.168  -5.841  0.00  0.00    -0.241 OA
ENDBRANCH  26  29
ENDBRANCH  19  22
ENDBRANCH   4  19
TORSDOF 6
