REMARK  Name = ZINC20916245
REMARK  9 active torsions:
REMARK  status: ('A' for Active; 'I' for Inactive)
REMARK    1  A    between atoms: C_1  and  C_2
REMARK    2  A    between atoms: C_4  and  C_9
REMARK    3  A    between atoms: C_9  and  C_11
REMARK    4  A    between atoms: C_11  and  S_12
REMARK    5  A    between atoms: S_12  and  C_13
REMARK    6  A    between atoms: N_17  and  N_18
REMARK    7  A    between atoms: N_19  and  N_20
REMARK    8  A    between atoms: C_21  and  C_22
REMARK    9  A    between atoms: C_31  and  O_32
REMARK                            x       y       z     vdW  Elec       q    Type
REMARK                         _______ _______ _______ _____ _____    ______ ____
ROOT
ATOM      1  C   UNL     1      -0.257   1.797  -2.281  0.00  0.00    +0.210 A 
ATOM      2  N   UNL     1      -1.258   2.229  -3.011  0.00  0.00    -0.119 NA
ATOM      3  N   UNL     1      -2.413   2.209  -2.217  0.00  0.00    -0.109 NA
ATOM      4  C   UNL     1      -2.081   1.760  -1.031  0.00  0.00    +0.254 A 
ATOM      5  N   UNL     1      -0.741   1.490  -1.041  0.00  0.00    -0.211 N 
ATOM      6  N   UNL     1      -2.939   1.589   0.045  0.00  0.00    -0.204 N 
ATOM      7  H   UNL     1      -2.554   1.203   1.000  0.00  0.00    +0.177 HD
ENDROOT
BRANCH   5   8
ATOM      8  N   UNL     1      -0.012   1.005   0.008  0.00  0.00    -0.294 N 
ATOM      9  H   UNL     1      -0.504   0.791   0.968  0.00  0.00    +0.163 HD
ATOM     10  H   UNL     1       1.068   0.828  -0.108  0.00  0.00    +0.163 HD
ENDBRANCH   5   8
BRANCH   6  11
ATOM     11  N   UNL     1      -4.297   1.907  -0.085  0.00  0.00    -0.187 NA
ATOM     12  C   UNL     1      -5.102   1.747   0.924  0.00  0.00    +0.142 C 
BRANCH  12  13
ATOM     13  C   UNL     1      -6.527   2.081   0.788  0.00  0.00    +0.044 A 
ATOM     14  C   UNL     1      -7.447   1.901   1.910  0.00  0.00    -0.006 A 
ATOM     15  C   UNL     1      -7.006   1.408   3.144  0.00  0.00    +0.009 A 
ATOM     16  C   UNL     1      -7.896   1.255   4.165  0.00  0.00    +0.001 A 
ATOM     17  C   UNL     1      -9.239   1.583   3.998  0.00  0.00    +0.001 A 
ATOM     18  C   UNL     1      -9.700   2.073   2.814  0.00  0.00    +0.008 A 
ATOM     19  C   UNL     1      -8.811   2.239   1.738  0.00  0.00    -0.017 A 
ATOM     20  C   UNL     1      -9.253   2.728   0.495  0.00  0.00    +0.012 A 
ATOM     21  C   UNL     1      -8.384   2.884  -0.539  0.00  0.00    +0.046 A 
ATOM     22  C   UNL     1      -7.032   2.571  -0.416  0.00  0.00    +0.126 A 
BRANCH  22  23
ATOM     23  O   UNL     1      -6.201   2.743  -1.476  0.00  0.00    -0.506 OA
ATOM     24  H   UNL     1      -6.595   3.129  -2.428  0.00  0.00    +0.292 HD
ENDBRANCH  22  23
ENDBRANCH  12  13
ENDBRANCH   6  11
BRANCH   1  25
ATOM     25  S   UNL     1       1.416   1.637  -2.809  0.00  0.00    -0.076 S 
BRANCH  25  26
ATOM     26  C   UNL     1       1.389   2.201  -4.533  0.00  0.00    +0.157 C 
BRANCH  26  27
ATOM     27  C   UNL     1       2.777   2.114  -5.112  0.00  0.00    +0.173 C 
ATOM     28  O   UNL     1       3.695   1.711  -4.430  0.00  0.00    -0.291 OA
BRANCH  27  32
ATOM     29  C   UNL     1       5.912   2.735  -8.939  0.00  0.00    +0.045 C 
ATOM     30  C   UNL     1       4.525   2.820  -8.354  0.00  0.00    -0.036 A 
ATOM     31  C   UNL     1       4.306   2.439  -7.047  0.00  0.00    +0.015 A 
ATOM     32  C   UNL     1       3.019   2.519  -6.506  0.00  0.00    +0.019 A 
ATOM     33  C   UNL     1       1.962   2.979  -7.298  0.00  0.00    +0.012 A 
ATOM     34  C   UNL     1       2.197   3.362  -8.601  0.00  0.00    +0.016 A 
ATOM     35  C   UNL     1       3.475   3.280  -9.130  0.00  0.00    +0.021 A 
ATOM     36 BR   UNL     1       3.786   3.801 -10.921  0.00  0.00    -0.050 Br
ENDBRANCH  27  32
ENDBRANCH  26  27
ENDBRANCH  25  26
ENDBRANCH   1  25
TORSDOF 8
