REMARK  Name = ZINC18197872
REMARK  3 active torsions:
REMARK  status: ('A' for Active; 'I' for Inactive)
REMARK    1  A    between atoms: C_1  and  C_2
REMARK    2  A    between atoms: C_11  and  C_13
REMARK    3  A    between atoms: C_23  and  C_26
REMARK                            x       y       z     vdW  Elec       q    Type
REMARK                         _______ _______ _______ _____ _____    ______ ____
ROOT
ATOM      1  C   UNL     1      -3.608   2.425   5.614  0.00  0.00    +0.068 C 
ATOM      2  C   UNL     1      -2.230   2.200   5.046  0.00  0.00    +0.066 A 
ATOM      3  C   UNL     1      -1.909   2.129   3.697  0.00  0.00    +0.027 A 
ATOM      4  C   UNL     1      -0.559   1.913   3.598  0.00  0.00    +0.122 A 
ATOM      5  N   UNL     1      -0.061   1.857   4.847  0.00  0.00    -0.263 N 
ATOM      6  H   UNL     1       0.898   1.712   5.094  0.00  0.00    +0.190 HD
ATOM      7  N   UNL     1      -1.129   2.038   5.741  0.00  0.00    -0.177 NA
ATOM      8  N   UNL     1       0.065   1.787   2.363  0.00  0.00    -0.303 N 
ATOM      9  C   UNL     1      -0.718   1.572   1.254  0.00  0.00    +0.017 C 
ATOM     10  C   UNL     1      -2.052   1.774   1.261  0.00  0.00    +0.024 C 
ATOM     11  C   UNL     1      -2.795   2.252   2.490  0.00  0.00    +0.089 C 
ATOM     12  C   UNL     1      -2.822   1.544   0.107  0.00  0.00    +0.162 C 
ATOM     13  O   UNL     1      -4.024   1.724   0.150  0.00  0.00    -0.292 OA
ATOM     14  C   UNL     1      -2.194   1.080  -1.177  0.00  0.00    +0.091 C 
ATOM     15  C   UNL     1      -0.750   1.591  -1.233  0.00  0.00    +0.068 C 
ATOM     16  C   UNL     1      -0.013   1.086   0.008  0.00  0.00    +0.063 C 
ATOM     17  H   UNL     1       1.029   1.849   2.285  0.00  0.00    +0.153 HD
ENDROOT
BRANCH  11  18
ATOM     18  C   UNL     1      -3.194   3.693   2.306  0.00  0.00    -0.035 A 
ATOM     19  C   UNL     1      -2.224   4.659   2.111  0.00  0.00    +0.006 A 
ATOM     20  C   UNL     1      -2.590   5.981   1.936  0.00  0.00    +0.020 A 
ATOM     21  C   UNL     1      -3.926   6.338   1.969  0.00  0.00    +0.041 A 
ATOM     22  C   UNL     1      -4.896   5.372   2.170  0.00  0.00    +0.020 A 
ATOM     23  C   UNL     1      -4.529   4.050   2.339  0.00  0.00    +0.006 A 
ATOM     24 CL   UNL     1      -4.386   7.999   1.757  0.00  0.00    -0.084 Cl
ENDBRANCH  11  18
BRANCH  15  25
ATOM     25  C   UNL     1      -0.074   1.068  -2.474  0.00  0.00    +0.109 A 
ATOM     26  C   UNL     1       0.468   1.817  -3.450  0.00  0.00    +0.045 A 
ATOM     27  C   UNL     1       0.989   0.922  -4.413  0.00  0.00    +0.041 A 
ATOM     28  C   UNL     1       0.734  -0.321  -3.967  0.00  0.00    +0.195 A 
ATOM     29  O   UNL     1       0.095  -0.227  -2.790  0.00  0.00    -0.468 OA
ENDBRANCH  15  25
TORSDOF 2
