REMARK  Name = ZINC17285894
REMARK  6 active torsions:
REMARK  status: ('A' for Active; 'I' for Inactive)
REMARK    1  A    between atoms: C_4  and  C_7
REMARK    2  A    between atoms: C_18  and  C_20
REMARK    3  A    between atoms: C_20  and  S_21
REMARK    4  A    between atoms: S_21  and  C_22
REMARK    5  A    between atoms: N_26  and  C_27
REMARK    6  A    between atoms: C_30  and  O_33
REMARK                            x       y       z     vdW  Elec       q    Type
REMARK                         _______ _______ _______ _____ _____    ______ ____
ROOT
ATOM      1  C   UNL     1      -1.034   6.282   0.454  0.00  0.00    +0.122 C 
ATOM      2  C   UNL     1      -1.121   5.821   1.917  0.00  0.00    +0.102 C 
ATOM      3  S   UNL     1      -1.806   4.137   1.925  0.00  0.00    -0.121 S 
ATOM      4  C   UNL     1      -0.885   3.320   0.661  0.00  0.00    +0.029 A 
ATOM      5  C   UNL     1      -0.915   1.932   0.594  0.00  0.00    +0.016 A 
ATOM      6  C   UNL     1      -0.207   1.268  -0.388  0.00  0.00    +0.001 A 
ATOM      7  C   UNL     1       0.528   1.987  -1.313  0.00  0.00    +0.002 A 
ATOM      8  C   UNL     1       0.562   3.365  -1.254  0.00  0.00    +0.024 A 
ATOM      9  C   UNL     1      -0.144   4.047  -0.265  0.00  0.00    +0.050 A 
ATOM     10  N   UNL     1      -0.066   5.441  -0.245  0.00  0.00    -0.261 N 
ATOM     11  C   UNL     1       0.949   6.038  -0.900  0.00  0.00    +0.231 C 
ATOM     12  O   UNL     1       0.876   7.214  -1.188  0.00  0.00    -0.274 OA
ENDROOT
BRANCH   1  16
ATOM     13  C   UNL     1       0.238  10.357   0.309  0.00  0.00    +0.000 A 
ATOM     14  C   UNL     1      -0.863   9.950  -0.421  0.00  0.00    +0.000 A 
ATOM     15  C   UNL     1      -1.274   8.631  -0.374  0.00  0.00    +0.005 A 
ATOM     16  C   UNL     1      -0.585   7.719   0.403  0.00  0.00    -0.026 A 
ATOM     17  C   UNL     1       0.513   8.127   1.137  0.00  0.00    +0.005 A 
ATOM     18  C   UNL     1       0.928   9.445   1.086  0.00  0.00    +0.000 A 
ENDBRANCH   1  16
BRANCH  11  19
ATOM     19  C   UNL     1       2.175   5.245  -1.274  0.00  0.00    +0.173 C 
BRANCH  19  20
ATOM     20  S   UNL     1       3.621   6.333  -1.274  0.00  0.00    -0.075 S 
BRANCH  20  21
ATOM     21  C   UNL     1       4.872   5.180  -1.731  0.00  0.00    +0.214 A 
ATOM     22  N   UNL     1       4.702   3.898  -1.977  0.00  0.00    -0.101 NA
ATOM     23  N   UNL     1       5.820   3.347  -2.285  0.00  0.00    -0.022 NA
ATOM     24  N   UNL     1       6.773   4.215  -2.253  0.00  0.00    -0.038 NA
ATOM     25  N   UNL     1       6.193   5.444  -1.891  0.00  0.00    -0.187 N 
BRANCH  25  26
ATOM     26  C   UNL     1       6.841   6.678  -1.729  0.00  0.00    +0.070 A 
ATOM     27  C   UNL     1       6.196   7.853  -2.087  0.00  0.00    +0.031 A 
ATOM     28  C   UNL     1       6.832   9.068  -1.923  0.00  0.00    +0.047 A 
ATOM     29  C   UNL     1       8.120   9.112  -1.410  0.00  0.00    +0.117 A 
ATOM     30  C   UNL     1       8.768   7.937  -1.058  0.00  0.00    +0.047 A 
ATOM     31  C   UNL     1       8.131   6.723  -1.216  0.00  0.00    +0.031 A 
BRANCH  29  32
ATOM     32  O   UNL     1       8.749  10.307  -1.254  0.00  0.00    -0.507 OA
ATOM     33  H   UNL     1       9.258  10.588  -2.026  0.00  0.00    +0.292 HD
ENDBRANCH  29  32
ENDBRANCH  25  26
ENDBRANCH  20  21
ENDBRANCH  19  20
ENDBRANCH  11  19
TORSDOF 6
