REMARK  Name = ZINC50438580
REMARK  3 active torsions:
REMARK  status: ('A' for Active; 'I' for Inactive)
REMARK    1  A    between atoms: C_5  and  C_7
REMARK    2  A    between atoms: C_9  and  C_12
REMARK    3  A    between atoms: C_17  and  N_18
REMARK                            x       y       z     vdW  Elec       q    Type
REMARK                         _______ _______ _______ _____ _____    ______ ____
ROOT
ATOM      1  C   UNL     1       1.798  -2.577   0.589  0.00  0.00    +0.204 A 
ATOM      2  N   UNL     1       0.624  -3.224   0.516  0.00  0.00    -0.187 NA
ATOM      3  C   UNL     1       0.830  -4.496   0.259  0.00  0.00    +0.261 A 
ATOM      4  O   UNL     1       2.156  -4.696   0.160  0.00  0.00    -0.332 OA
ATOM      5  N   UNL     1       2.768  -3.432   0.373  0.00  0.00    -0.056 NA
ENDROOT
BRANCH   1  10
ATOM      6  C   UNL     1       1.018   1.026   1.327  0.00  0.00    +0.001 A 
ATOM      7  C   UNL     1       2.288   1.575   1.370  0.00  0.00    +0.001 A 
ATOM      8  C   UNL     1       3.398   0.779   1.160  0.00  0.00    +0.021 A 
ATOM      9  C   UNL     1       3.246  -0.571   0.906  0.00  0.00    +0.052 A 
ATOM     10  C   UNL     1       1.969  -1.128   0.862  0.00  0.00    +0.041 A 
ATOM     11  C   UNL     1       0.854  -0.320   1.075  0.00  0.00    +0.013 A 
ATOM     12 CL   UNL     1       4.641  -1.569   0.641  0.00  0.00    -0.083 Cl
ENDBRANCH   1  10
BRANCH   3  13
ATOM     13  C   UNL     1      -0.214  -5.528   0.107  0.00  0.00    +0.061 A 
ATOM     14  C   UNL     1      -1.256  -5.615   1.032  0.00  0.00    +0.030 A 
ATOM     15  C   UNL     1      -2.228  -6.581   0.884  0.00  0.00    +0.019 A 
ATOM     16  C   UNL     1      -2.177  -7.468  -0.180  0.00  0.00    +0.017 A 
ATOM     17  C   UNL     1      -1.152  -7.394  -1.102  0.00  0.00    +0.024 A 
ATOM     18  C   UNL     1      -0.168  -6.424  -0.972  0.00  0.00    +0.037 A 
ATOM     19 BR   UNL     1      -3.638  -6.698   2.139  0.00  0.00    -0.050 Br
BRANCH  18  20
ATOM     20  N   UNL     1       0.862  -6.343  -1.904  0.00  0.00    -0.357 N 
ATOM     21  H   UNL     1       1.498  -5.612  -1.862  0.00  0.00    +0.142 HD
ATOM     22  H   UNL     1       0.944  -7.018  -2.596  0.00  0.00    +0.142 HD
ENDBRANCH  18  20
ENDBRANCH   3  13
TORSDOF 3
