REMARK  Name = ZINC39669518
REMARK  5 active torsions:
REMARK  status: ('A' for Active; 'I' for Inactive)
REMARK    1  A    between atoms: C_4  and  C_7
REMARK    2  A    between atoms: C_10  and  C_12
REMARK    3  A    between atoms: C_16  and  C_25
REMARK    4  A    between atoms: N_27  and  C_28
REMARK    5  A    between atoms: C_28  and  C_29
REMARK                            x       y       z     vdW  Elec       q    Type
REMARK                         _______ _______ _______ _____ _____    ______ ____
ROOT
ATOM      1  C   UNL     1       7.466  -0.860  -0.104  0.00  0.00    +0.282 C 
ATOM      2  O   UNL     1       8.249  -1.790  -0.064  0.00  0.00    -0.267 OA
ATOM      3  N   UNL     1       7.922   0.408  -0.060  0.00  0.00    -0.294 N 
ATOM      4  C   UNL     1       7.129   1.660  -0.091  0.00  0.00    +0.121 C 
ATOM      5  C   UNL     1       7.840   2.596   0.912  0.00  0.00    +0.100 C 
ATOM      6  C   UNL     1       9.284   2.070   0.985  0.00  0.00    -0.004 C 
ATOM      7  C   UNL     1       9.329   0.864   0.035  0.00  0.00    +0.115 C 
ATOM      8  C   UNL     1       9.614   1.627   2.407  0.00  0.00    -0.010 C 
ATOM      9  C   UNL     1      11.071   1.161   2.466  0.00  0.00    -0.082 C 
ATOM     10  N   UNL     1      11.954   2.260   2.057  0.00  0.00    +0.379 N 
ATOM     11  C   UNL     1      11.694   2.619   0.658  0.00  0.00    -0.082 C 
ATOM     12  C   UNL     1      10.262   3.145   0.522  0.00  0.00    -0.010 C 
ATOM     13  H   UNL     1      11.786   3.062   2.645  0.00  0.00    -0.086 HD
ATOM     14  H   UNL     1      12.916   1.971   2.155  0.00  0.00    -0.086 HD
ENDROOT
BRANCH   1  18
ATOM     15  C   UNL     1       3.858  -0.786  -0.333  0.00  0.00    +0.136 A 
ATOM     16  C   UNL     1       4.050  -2.138  -0.336  0.00  0.00    +0.050 A 
ATOM     17  C   UNL     1       5.428  -2.358  -0.251  0.00  0.00    +0.055 A 
ATOM     18  C   UNL     1       6.026  -1.118  -0.199  0.00  0.00    +0.190 A 
ATOM     19  O   UNL     1       5.056  -0.182  -0.256  0.00  0.00    -0.450 OA
BRANCH  15  23
ATOM     20  C   UNL     1       0.102   1.182  -0.551  0.00  0.00    +0.000 A 
ATOM     21  C   UNL     1       1.266   1.926  -0.473  0.00  0.00    +0.001 A 
ATOM     22  C   UNL     1       2.489   1.294  -0.402  0.00  0.00    +0.011 A 
ATOM     23  C   UNL     1       2.551  -0.101  -0.408  0.00  0.00    +0.017 A 
ATOM     24  C   UNL     1       1.373  -0.846  -0.486  0.00  0.00    +0.011 A 
ATOM     25  C   UNL     1       0.156  -0.201  -0.557  0.00  0.00    +0.001 A 
ENDBRANCH  15  23
ENDBRANCH   1  18
BRANCH   5  26
ATOM     26  C   UNL     1       7.821   4.016   0.408  0.00  0.00    +0.218 C 
ATOM     27  O   UNL     1       7.831   4.236  -0.785  0.00  0.00    -0.275 OA
ATOM     28  N   UNL     1       7.794   5.041   1.282  0.00  0.00    -0.315 N 
ATOM     29  H   UNL     1       7.786   4.865   2.236  0.00  0.00    +0.149 HD
BRANCH  28  30
ATOM     30  C   UNL     1       7.775   6.422   0.792  0.00  0.00    +0.109 C 
BRANCH  30  31
ATOM     31  C   UNL     1       7.745   7.384   1.981  0.00  0.00    +0.024 C 
ATOM     32  C   UNL     1       7.602   8.820   1.472  0.00  0.00    +0.008 C 
ATOM     33  C   UNL     1       7.539   9.781   2.662  0.00  0.00    +0.019 C 
ATOM     34  C   UNL     1       8.840   9.680   3.464  0.00  0.00    +0.108 C 
ATOM     35  N   UNL     1       9.059   8.276   3.834  0.00  0.00    -0.299 N 
ATOM     36  C   UNL     1       9.048   7.256   2.777  0.00  0.00    +0.113 C 
ATOM     37  C   UNL     1       9.272   7.919   5.155  0.00  0.00    +0.218 A 
ATOM     38  N   UNL     1       9.473   6.645   5.456  0.00  0.00    -0.223 NA
ATOM     39  C   UNL     1       9.680   6.271   6.708  0.00  0.00    +0.116 A 
ATOM     40  C   UNL     1       9.686   7.230   7.708  0.00  0.00    +0.039 A 
ATOM     41  C   UNL     1       9.473   8.554   7.358  0.00  0.00    +0.116 A 
ATOM     42  N   UNL     1       9.277   8.861   6.086  0.00  0.00    -0.223 NA
ENDBRANCH  30  31
ENDBRANCH  28  30
ENDBRANCH   5  26
TORSDOF 5
