REMARK  Name = ZINC01201024
REMARK  7 active torsions:
REMARK  status: ('A' for Active; 'I' for Inactive)
REMARK    1  A    between atoms: C_1  and  C_2
REMARK    2  A    between atoms: C_2  and  C_3
REMARK    3  A    between atoms: C_3  and  C_4
REMARK    4  A    between atoms: C_11  and  N_16
REMARK    5  A    between atoms: C_12  and  C_13
REMARK    6  A    between atoms: C_17  and  C_19
REMARK    7  A    between atoms: C_24  and  N_25
REMARK                            x       y       z     vdW  Elec       q    Type
REMARK                         _______ _______ _______ _____ _____    ______ ____
ROOT
ATOM      1  C   UNL     1       2.060  -3.083  -1.394  0.00  0.00    -0.006 C 
ATOM      2  C   UNL     1       0.636  -2.789  -0.914  0.00  0.00    +0.008 C 
ATOM      3  C   UNL     1       0.185  -1.421  -1.429  0.00  0.00    +0.037 C 
ATOM      4  C   UNL     1       1.238  -0.385  -1.054  0.00  0.00    -0.023 A 
ATOM      5  C   UNL     1       2.491  -0.758  -0.716  0.00  0.00    -0.004 A 
ATOM      6  S   UNL     1       3.336   0.758  -0.367  0.00  0.00    -0.077 S 
ATOM      7  C   UNL     1       2.044   1.873  -0.666  0.00  0.00    +0.085 A 
ATOM      8  C   UNL     1       0.990   1.046  -1.029  0.00  0.00    +0.068 A 
ATOM      9  C   UNL     1       3.033  -2.153  -0.654  0.00  0.00    +0.046 C 
ENDROOT
BRANCH   8  10
ATOM     10  C   UNL     1      -0.323   1.597  -1.379  0.00  0.00    +0.244 C 
ATOM     11  O   UNL     1      -1.166   1.756  -0.516  0.00  0.00    -0.270 OA
ATOM     12  N   UNL     1      -0.597   1.927  -2.657  0.00  0.00    -0.325 N 
ATOM     13  H   UNL     1       0.075   1.800  -3.345  0.00  0.00    +0.145 HD
ATOM     14  H   UNL     1      -1.465   2.291  -2.889  0.00  0.00    +0.145 HD
ENDBRANCH   8  10
BRANCH   7  15
ATOM     15  N   UNL     1       2.059   3.255  -0.568  0.00  0.00    -0.275 N 
ATOM     16  C   UNL     1       3.187   3.892  -0.197  0.00  0.00    +0.251 C 
ATOM     17  O   UNL     1       4.192   3.254   0.052  0.00  0.00    -0.270 OA
ATOM     18  H   UNL     1       1.258   3.764  -0.766  0.00  0.00    +0.156 HD
BRANCH  16  19
ATOM     19  C   UNL     1       3.204   5.365  -0.092  0.00  0.00    +0.067 A 
ATOM     20  C   UNL     1       2.812   6.150  -1.179  0.00  0.00    +0.017 A 
ATOM     21  C   UNL     1       2.829   7.525  -1.075  0.00  0.00    +0.021 A 
ATOM     22  C   UNL     1       3.234   8.128   0.105  0.00  0.00    +0.043 A 
ATOM     23  C   UNL     1       3.623   7.355   1.186  0.00  0.00    +0.053 A 
ATOM     24  C   UNL     1       3.605   5.979   1.096  0.00  0.00    +0.140 A 
ATOM     25 CL   UNL     1       3.253   9.859   0.228  0.00  0.00    -0.083 Cl
BRANCH  24  26
ATOM     26  N   UNL     1       4.016   5.155   2.255  0.00  0.00    +0.057 N 
ATOM     27  O   UNL     1       4.483   5.687   3.246  0.00  0.00    -0.126 OA
ATOM     28  O   UNL     1       3.887   3.944   2.217  0.00  0.00    -0.126 OA
ENDBRANCH  24  26
ENDBRANCH  16  19
ENDBRANCH   7  15
BRANCH   1  29
ATOM     29  C   UNL     1       2.413  -4.540  -1.091  0.00  0.00    +0.003 C 
BRANCH  29  31
ATOM     30  C   UNL     1       4.140  -6.323  -1.377  0.00  0.00    +0.004 C 
ATOM     31  C   UNL     1       3.787  -4.866  -1.681  0.00  0.00    -0.003 C 
ENDBRANCH  29  31
ENDBRANCH   1  29
TORSDOF 6
