REMARK  Name = ZINC15085434
REMARK  11 active torsions:
REMARK  status: ('A' for Active; 'I' for Inactive)
REMARK    1  A    between atoms: C_1  and  O_2
REMARK    2  A    between atoms: O_2  and  C_3
REMARK    3  A    between atoms: C_4  and  C_26
REMARK    4  A    between atoms: C_5  and  C_14
REMARK    5  A    between atoms: C_6  and  O_12
REMARK    6  A    between atoms: O_12  and  C_13
REMARK    7  A    between atoms: N_15  and  N_16
REMARK    8  A    between atoms: C_17  and  C_19
REMARK    9  A    between atoms: C_24  and  O_25
REMARK   10  A    between atoms: C_26  and  C_27
REMARK   11  A    between atoms: C_30  and  C_33
REMARK                            x       y       z     vdW  Elec       q    Type
REMARK                         _______ _______ _______ _____ _____    ______ ____
ROOT
ATOM      1  C   UNL     1      -4.805   0.348   1.913  0.00  0.00    +0.169 A 
ATOM      2  C   UNL     1      -4.522   1.537   1.268  0.00  0.00    +0.014 A 
ATOM      3  C   UNL     1      -3.201   1.859   0.946  0.00  0.00    +0.047 A 
ATOM      4  C   UNL     1      -2.168   0.970   1.272  0.00  0.00    +0.174 A 
ATOM      5  C   UNL     1      -2.461  -0.221   1.921  0.00  0.00    +0.212 A 
ATOM      6  C   UNL     1      -3.778  -0.533   2.242  0.00  0.00    +0.211 A 
ATOM      7  O   UNL     1      -3.798  -1.747   2.869  0.00  0.00    -0.449 OA
ATOM      8  C   UNL     1      -2.532  -2.359   2.563  0.00  0.00    +0.467 C 
ATOM      9  O   UNL     1      -1.654  -1.239   2.346  0.00  0.00    -0.449 OA
ENDROOT
BRANCH   1  11
ATOM     10  C   UNL     1      -6.805  -0.789   1.308  0.00  0.00    +0.277 C 
ATOM     11  O   UNL     1      -6.091   0.038   2.230  0.00  0.00    -0.491 OA
ENDBRANCH   1  11
BRANCH   4  12
ATOM     12  O   UNL     1      -0.881   1.276   0.958  0.00  0.00    -0.491 OA
ATOM     13  C   UNL     1      -0.404   0.843  -0.317  0.00  0.00    +0.277 C 
ENDBRANCH   4  12
BRANCH   3  14
ATOM     14  C   UNL     1      -2.895   3.127   0.262  0.00  0.00    +0.142 C 
ATOM     15  N   UNL     1      -1.667   3.423  -0.040  0.00  0.00    -0.187 NA
BRANCH  15  16
ATOM     16  N   UNL     1      -1.376   4.629  -0.690  0.00  0.00    -0.203 N 
ATOM     17  C   UNL     1      -0.102   4.936  -1.003  0.00  0.00    +0.267 C 
ATOM     18  O   UNL     1       0.796   4.166  -0.720  0.00  0.00    -0.268 OA
ATOM     19  H   UNL     1      -2.092   5.244  -0.915  0.00  0.00    +0.178 HD
BRANCH  17  20
ATOM     20  C   UNL     1       0.204   6.206  -1.687  0.00  0.00    +0.080 A 
ATOM     21  C   UNL     1      -0.824   7.091  -2.019  0.00  0.00    +0.017 A 
ATOM     22  C   UNL     1      -0.531   8.278  -2.655  0.00  0.00    +0.001 A 
ATOM     23  C   UNL     1       0.779   8.594  -2.976  0.00  0.00    +0.004 A 
ATOM     24  C   UNL     1       1.805   7.726  -2.659  0.00  0.00    +0.046 A 
ATOM     25  C   UNL     1       1.528   6.529  -2.015  0.00  0.00    +0.129 A 
BRANCH  25  26
ATOM     26  O   UNL     1       2.535   5.676  -1.702  0.00  0.00    -0.506 OA
ATOM     27  H   UNL     1       2.732   5.029  -2.394  0.00  0.00    +0.292 HD
ENDBRANCH  25  26
ENDBRANCH  17  20
ENDBRANCH  15  16
ENDBRANCH   3  14
BRANCH   2  28
ATOM     28  C   UNL     1      -5.638   2.487   0.916  0.00  0.00    +0.087 C 
BRANCH  28  29
ATOM     29  C   UNL     1      -5.927   3.399   2.111  0.00  0.00    +0.215 C 
ATOM     30  C   UNL     1      -7.149   4.305   1.832  0.00  0.00    +0.107 C 
ATOM     31  C   UNL     1      -6.745   5.614   2.485  0.00  0.00    +0.091 C 
ATOM     32  N   UNL     1      -5.475   5.577   2.712  0.00  0.00    -0.089 NA
ATOM     33  O   UNL     1      -4.875   4.370   2.286  0.00  0.00    -0.390 OA
BRANCH  31  34
ATOM     34  C   UNL     1      -7.649   6.735   2.808  0.00  0.00    -0.000 A 
ATOM     35  C   UNL     1      -9.010   6.648   2.504  0.00  0.00    +0.012 A 
ATOM     36  C   UNL     1      -9.851   7.696   2.812  0.00  0.00    +0.039 A 
ATOM     37  C   UNL     1      -9.346   8.839   3.412  0.00  0.00    +0.123 A 
ATOM     38  C   UNL     1      -7.996   8.934   3.710  0.00  0.00    +0.039 A 
ATOM     39  C   UNL     1      -7.147   7.889   3.412  0.00  0.00    +0.012 A 
ATOM     40  F   UNL     1     -10.174   9.866   3.707  0.00  0.00    -0.205 F 
ENDBRANCH  31  34
ENDBRANCH  28  29
ENDBRANCH   2  28
TORSDOF 9
