REMARK  Name = ZINC18038699
REMARK  8 active torsions:
REMARK  status: ('A' for Active; 'I' for Inactive)
REMARK    1  A    between atoms: C_1  and  C_2
REMARK    2  A    between atoms: N_10  and  N_14
REMARK    3  A    between atoms: C_15  and  C_17
REMARK    4  A    between atoms: C_17  and  C_18
REMARK    5  A    between atoms: C_18  and  C_19
REMARK    6  A    between atoms: C_19  and  C_20
REMARK    7  A    between atoms: C_20  and  C_21
REMARK    8  A    between atoms: C_21  and  N_22
REMARK                            x       y       z     vdW  Elec       q    Type
REMARK                         _______ _______ _______ _____ _____    ______ ____
ROOT
ATOM      1  N   UNL     1       9.695   7.555  -4.605  0.00  0.00    -0.224 N 
ATOM      2  C   UNL     1       8.587   6.832  -4.351  0.00  0.00    +0.230 C 
ATOM      3  O   UNL     1       7.917   6.407  -5.269  0.00  0.00    -0.274 OA
ATOM      4  H   UNL     1      10.231   7.895  -3.871  0.00  0.00    +0.174 HD
ENDROOT
BRANCH   1  14
ATOM      5  C   UNL     1      11.647   9.583 -12.025  0.00  0.00    +0.007 C 
ATOM      6  C   UNL     1      11.093   9.797 -10.616  0.00  0.00    -0.014 C 
ATOM      7  C   UNL     1       9.927   8.836 -10.375  0.00  0.00    +0.006 C 
ATOM      8  C   UNL     1       9.365   9.059  -8.968  0.00  0.00    +0.035 C 
ATOM      9  C   UNL     1      10.462   8.822  -7.936  0.00  0.00    +0.114 C 
ATOM     10  C   UNL     1      11.643   9.756  -8.179  0.00  0.00    +0.035 C 
ATOM     11  C   UNL     1      12.195   9.530  -9.588  0.00  0.00    +0.006 C 
ATOM     12  C   UNL     1       9.920   9.011  -6.538  0.00  0.00    +0.263 C 
ATOM     13  O   UNL     1       9.447  10.022  -6.065  0.00  0.00    -0.271 OA
ATOM     14  N   UNL     1      10.073   7.817  -5.928  0.00  0.00    -0.137 N 
ATOM     15  C   UNL     1      10.637   6.917  -6.742  0.00  0.00    +0.326 C 
ATOM     16  O   UNL     1      10.882   5.771  -6.417  0.00  0.00    -0.251 OA
ATOM     17  N   UNL     1      10.900   7.421  -7.963  0.00  0.00    -0.284 N 
ATOM     18  H   UNL     1      11.304   6.952  -8.710  0.00  0.00    +0.151 HD
ENDBRANCH   1  14
BRANCH   2  19
ATOM     19  C   UNL     1       8.180   6.550  -2.928  0.00  0.00    +0.097 C 
BRANCH  19  20
ATOM     20  C   UNL     1       6.898   5.715  -2.920  0.00  0.00    +0.009 C 
BRANCH  20  21
ATOM     21  C   UNL     1       6.485   5.429  -1.474  0.00  0.00    +0.002 C 
BRANCH  21  22
ATOM     22  C   UNL     1       5.202   4.595  -1.466  0.00  0.00    +0.022 C 
BRANCH  22  23
ATOM     23  C   UNL     1       4.790   4.309  -0.021  0.00  0.00    +0.127 C 
BRANCH  23  24
ATOM     24  N   UNL     1       3.562   3.510  -0.013  0.00  0.00    -0.288 N 
ATOM     25  C   UNL     1       3.648   2.162  -0.022  0.00  0.00    +0.262 A 
ATOM     26  O   UNL     1       4.729   1.606  -0.035  0.00  0.00    -0.267 OA
ATOM     27  C   UNL     1       2.397   1.382  -0.014  0.00  0.00    +0.063 A 
ATOM     28  C   UNL     1       2.402  -0.011  -0.021  0.00  0.00    +0.015 A 
ATOM     29  C   UNL     1       1.204  -0.695  -0.013  0.00  0.00    +0.001 A 
ATOM     30  C   UNL     1       0.002  -0.004   0.002  0.00  0.00    +0.002 A 
ATOM     31  C   UNL     1      -0.017   1.377   0.010  0.00  0.00    +0.026 A 
ATOM     32  C   UNL     1       1.178   2.081   0.002  0.00  0.00    +0.053 A 
ATOM     33  N   UNL     1       1.203   3.468   0.010  0.00  0.00    -0.335 N 
ATOM     34  H   UNL     1       0.369   3.963   0.021  0.00  0.00    +0.168 HD
ATOM     35  C   UNL     1       2.372   4.131   0.002  0.00  0.00    +0.161 A 
ATOM     36  S   UNL     1       2.342   5.843   0.011  0.00  0.00    -0.013 S 
ENDBRANCH  23  24
ENDBRANCH  22  23
ENDBRANCH  21  22
ENDBRANCH  20  21
ENDBRANCH  19  20
ENDBRANCH   2  19
TORSDOF 7
