REMARK  Name = ZINC57932642
REMARK  6 active torsions:
REMARK  status: ('A' for Active; 'I' for Inactive)
REMARK    1  A    between atoms: C_1  and  N_2
REMARK    2  A    between atoms: C_5  and  O_22
REMARK    3  A    between atoms: C_6  and  O_20
REMARK    4  A    between atoms: C_10  and  C_14
REMARK    5  A    between atoms: O_20  and  C_21
REMARK    6  A    between atoms: O_22  and  C_23
REMARK                            x       y       z     vdW  Elec       q    Type
REMARK                         _______ _______ _______ _____ _____    ______ ____
ROOT
ATOM      1  C   UNL     1      -0.018   1.461   0.010  0.00  0.00    +0.138 C 
ATOM      2  N   UNL     1       0.002  -0.004   0.002  0.00  0.00    -0.271 N 
ATOM      3  C   UNL     1      -1.207  -0.714   0.004  0.00  0.00    +0.061 A 
ATOM      4  C   UNL     1      -2.400  -0.077   0.306  0.00  0.00    +0.074 A 
ATOM      5  C   UNL     1      -3.587  -0.793   0.299  0.00  0.00    +0.163 A 
ATOM      6  C   UNL     1      -3.583  -2.149  -0.012  0.00  0.00    +0.163 A 
ATOM      7  C   UNL     1      -2.390  -2.790  -0.313  0.00  0.00    +0.074 A 
ATOM      8  C   UNL     1      -1.206  -2.075  -0.303  0.00  0.00    +0.053 A 
ATOM      9  N   UNL     1       0.018  -2.700  -0.593  0.00  0.00    -0.328 N 
ATOM     10  C   UNL     1       1.232  -2.160   0.037  0.00  0.00    +0.188 C 
ATOM     11  C   UNL     1       1.181  -0.654  -0.013  0.00  0.00    +0.244 C 
ATOM     12  O   UNL     1       2.214  -0.020  -0.063  0.00  0.00    -0.273 OA
ATOM     13  H   UNL     1       0.061  -3.463  -1.190  0.00  0.00    +0.147 HD
ENDROOT
BRANCH  10  14
ATOM     14  C   UNL     1       1.305  -2.622   1.470  0.00  0.00    -0.018 A 
ATOM     15  C   UNL     1       0.158  -2.672   2.239  0.00  0.00    +0.006 A 
ATOM     16  C   UNL     1       0.224  -3.095   3.553  0.00  0.00    +0.000 A 
ATOM     17  C   UNL     1       1.438  -3.469   4.098  0.00  0.00    +0.000 A 
ATOM     18  C   UNL     1       2.586  -3.420   3.328  0.00  0.00    +0.000 A 
ATOM     19  C   UNL     1       2.518  -3.000   2.013  0.00  0.00    +0.006 A 
ENDBRANCH  10  14
BRANCH   6  20
ATOM     20  O   UNL     1      -4.751  -2.848  -0.019  0.00  0.00    -0.491 OA
ATOM     21  C   UNL     1      -4.674  -4.237  -0.347  0.00  0.00    +0.277 C 
ENDBRANCH   6  20
BRANCH   5  22
ATOM     22  O   UNL     1      -4.758  -0.168   0.596  0.00  0.00    -0.491 OA
ATOM     23  C   UNL     1      -4.690   1.225   0.906  0.00  0.00    +0.277 C 
ENDBRANCH   5  22
TORSDOF 3
