REMARK  Name = ZINC48942466
REMARK  6 active torsions:
REMARK  status: ('A' for Active; 'I' for Inactive)
REMARK    1  A    between atoms: C_1  and  C_2
REMARK    2  A    between atoms: C_3  and  C_19
REMARK    3  A    between atoms: C_5  and  C_7
REMARK    4  A    between atoms: C_7  and  N_8
REMARK    5  A    between atoms: C_9  and  C_11
REMARK    6  A    between atoms: C_13  and  C_17
REMARK                            x       y       z     vdW  Elec       q    Type
REMARK                         _______ _______ _______ _____ _____    ______ ____
ROOT
ATOM      1  N   UNL     1      -1.322  -3.664   1.881  0.00  0.00    -0.301 N 
ATOM      2  C   UNL     1      -1.550  -4.731   2.673  0.00  0.00    +0.263 C 
ATOM      3  O   UNL     1      -0.616  -5.353   3.140  0.00  0.00    -0.269 OA
ATOM      4  H   UNL     1      -2.067  -3.167   1.509  0.00  0.00    +0.150 HD
ENDROOT
BRANCH   2   5
ATOM      5  C   UNL     1      -2.930  -5.142   2.971  0.00  0.00    +0.134 A 
ATOM      6  C   UNL     1      -3.328  -6.205   3.765  0.00  0.00    +0.070 A 
ATOM      7  C   UNL     1      -4.725  -6.184   3.739  0.00  0.00    +0.074 A 
ATOM      8  N   UNL     1      -5.097  -5.182   2.985  0.00  0.00    -0.177 NA
ATOM      9  N   UNL     1      -4.079  -4.549   2.525  0.00  0.00    -0.271 N 
ATOM     10  H   UNL     1      -4.118  -3.771   1.948  0.00  0.00    +0.189 HD
ATOM     11  C   UNL     1      -5.640  -7.145   4.453  0.00  0.00    +0.068 C 
ATOM     12 BR   UNL     1      -2.216  -7.425   4.689  0.00  0.00    -0.046 Br
ENDBRANCH   2   5
BRANCH   1  13
ATOM     13  C   UNL     1       0.053  -3.253   1.584  0.00  0.00    +0.200 C 
BRANCH  13  18
ATOM     14  C   UNL     1      -0.018   1.503   0.010  0.00  0.00    +0.069 C 
ATOM     15  C   UNL     1       0.002  -0.004   0.002  0.00  0.00    +0.079 A 
ATOM     16  C   UNL     1       0.008  -0.791  -1.087  0.00  0.00    +0.125 A 
ATOM     17  O   UNL     1       0.027  -2.067  -0.654  0.00  0.00    -0.443 OA
ATOM     18  C   UNL     1       0.033  -2.044   0.685  0.00  0.00    +0.213 A 
ATOM     19  N   UNL     1       0.024  -0.803   1.083  0.00  0.00    -0.217 NA
ATOM     20  C   UNL     1      -0.005  -0.333  -2.522  0.00  0.00    +0.088 C 
ENDBRANCH  13  18
ENDBRANCH   1  13
TORSDOF 3
