REMARK  Name = ZINC66942114
REMARK  6 active torsions:
REMARK  status: ('A' for Active; 'I' for Inactive)
REMARK    1  A    between atoms: C_6  and  C_7
REMARK    2  A    between atoms: C_7  and  C_9
REMARK    3  A    between atoms: C_7  and  N_15
REMARK    4  A    between atoms: C_16  and  C_18
REMARK    5  A    between atoms: C_21  and  N_25
REMARK    6  A    between atoms: C_22  and  O_24
REMARK                            x       y       z     vdW  Elec       q    Type
REMARK                         _______ _______ _______ _____ _____    ______ ____
ROOT
ATOM      1  N   UNL     1      -1.163  -1.938   0.891  0.00  0.00    -0.302 N 
ATOM      2  C   UNL     1      -2.259  -2.480   1.458  0.00  0.00    +0.245 C 
ATOM      3  O   UNL     1      -3.356  -2.003   1.239  0.00  0.00    -0.270 OA
ATOM      4  H   UNL     1      -0.288  -2.319   1.065  0.00  0.00    +0.150 HD
ENDROOT
BRANCH   2   5
ATOM      5  C   UNL     1      -2.128  -3.654   2.346  0.00  0.00    +0.040 A 
ATOM      6  C   UNL     1      -0.870  -4.201   2.604  0.00  0.00    +0.015 A 
ATOM      7  C   UNL     1      -0.751  -5.297   3.434  0.00  0.00    +0.037 A 
ATOM      8  C   UNL     1      -1.876  -5.857   4.012  0.00  0.00    +0.167 A 
ATOM      9  C   UNL     1      -3.131  -5.320   3.762  0.00  0.00    +0.148 A 
ATOM     10  C   UNL     1      -3.261  -4.217   2.935  0.00  0.00    +0.060 A 
BRANCH   8  11
ATOM     11  N   UNL     1      -1.740  -7.033   4.901  0.00  0.00    +0.060 N 
ATOM     12  O   UNL     1      -0.648  -7.502   5.120  0.00  0.00    -0.126 OA
ATOM     13  O   UNL     1      -2.722  -7.524   5.407  0.00  0.00    -0.126 OA
ENDBRANCH   8  11
BRANCH   9  14
ATOM     14  O   UNL     1      -4.233  -5.875   4.333  0.00  0.00    -0.504 OA
ATOM     15  H   UNL     1      -4.461  -5.498   5.194  0.00  0.00    +0.292 HD
ENDBRANCH   9  14
ENDBRANCH   2   5
BRANCH   1  16
ATOM     16  C   UNL     1      -1.293  -0.775   0.010  0.00  0.00    +0.132 C 
BRANCH  16  22
ATOM     17  C   UNL     1      -0.017   1.378   0.010  0.00  0.00    +0.008 A 
ATOM     18  C   UNL     1       1.170   2.086   0.002  0.00  0.00    +0.038 A 
ATOM     19  C   UNL     1       2.379   1.410  -0.013  0.00  0.00    +0.123 A 
ATOM     20  C   UNL     1       2.396   0.026  -0.021  0.00  0.00    +0.038 A 
ATOM     21  C   UNL     1       1.208  -0.680  -0.013  0.00  0.00    +0.008 A 
ATOM     22  C   UNL     1       0.002  -0.004   0.002  0.00  0.00    -0.025 A 
ATOM     23  F   UNL     1       3.540   2.101  -0.021  0.00  0.00    -0.205 F 
ENDBRANCH  16  22
BRANCH  16  24
ATOM     24  C   UNL     1      -1.617  -1.243  -1.410  0.00  0.00    +0.143 C 
ATOM     25  C   UNL     1      -2.964  -2.009  -1.430  0.00  0.00    +0.036 C 
ATOM     26  C   UNL     1      -3.395  -1.808  -2.908  0.00  0.00    +0.031 C 
ATOM     27  C   UNL     1      -2.854  -0.396  -3.219  0.00  0.00    +0.160 C 
ATOM     28  O   UNL     1      -1.812  -0.113  -2.275  0.00  0.00    -0.374 OA
ENDBRANCH  16  24
ENDBRANCH   1  16
TORSDOF 6
