REMARK  Name = ZINC15084958
REMARK  9 active torsions:
REMARK  status: ('A' for Active; 'I' for Inactive)
REMARK    1  A    between atoms: C_1  and  C_2
REMARK    2  A    between atoms: C_2  and  O_3
REMARK    3  A    between atoms: O_3  and  C_4
REMARK    4  A    between atoms: C_7  and  C_12
REMARK    5  A    between atoms: C_9  and  O_10
REMARK    6  A    between atoms: O_10  and  C_11
REMARK    7  A    between atoms: C_15  and  C_35
REMARK    8  A    between atoms: C_29  and  O_33
REMARK    9  A    between atoms: O_33  and  C_34
REMARK                            x       y       z     vdW  Elec       q    Type
REMARK                         _______ _______ _______ _____ _____    ______ ____
ROOT
ATOM      1  C   UNL     1      -1.528  -5.949   0.055  0.00  0.00    +0.112 C 
ATOM      2  C   UNL     1      -1.291  -6.565  -1.289  0.00  0.00    +0.033 A 
ATOM      3  C   UNL     1      -1.469  -5.838  -2.486  0.00  0.00    +0.067 A 
ATOM      4  N   UNL     1      -1.193  -6.614  -3.495  0.00  0.00    -0.168 NA
ATOM      5  N   UNL     1      -0.828  -7.864  -2.996  0.00  0.00    -0.193 N 
ATOM      6  C   UNL     1      -0.898  -7.814  -1.619  0.00  0.00    +0.136 A 
ATOM      7  N   UNL     1      -0.599  -8.914  -0.853  0.00  0.00    -0.269 N 
ATOM      8  C   UNL     1      -0.530  -9.153   0.423  0.00  0.00    +0.228 C 
ATOM      9  O   UNL     1      -0.119 -10.256   0.713  0.00  0.00    -0.275 OA
ATOM     10  C   UNL     1      -0.871  -8.293   1.576  0.00  0.00    +0.166 C 
ATOM     11  S   UNL     1      -0.419  -6.571   1.322  0.00  0.00    -0.138 S 
ATOM     12  C   UNL     1      -0.457  -8.969  -3.754  0.00  0.00    +0.196 A 
ATOM     13  N   UNL     1      -0.111 -10.167  -3.348  0.00  0.00    -0.221 NA
ATOM     14  C   UNL     1       0.228 -11.155  -4.204  0.00  0.00    +0.081 A 
ATOM     15  C   UNL     1       0.618 -12.480  -3.898  0.00  0.00    +0.032 A 
ATOM     16  C   UNL     1       0.931 -13.361  -4.885  0.00  0.00    +0.048 A 
ATOM     17  C   UNL     1       0.883 -13.000  -6.229  0.00  0.00    +0.121 A 
ATOM     18  C   UNL     1       0.505 -11.710  -6.569  0.00  0.00    +0.063 A 
ATOM     19  C   UNL     1       0.187 -10.816  -5.576  0.00  0.00    +0.044 A 
ATOM     20  S   UNL     1      -0.339  -9.120  -5.531  0.00  0.00    -0.048 S 
ATOM     21  C   UNL     1      -1.907  -4.399  -2.581  0.00  0.00    +0.068 C 
ATOM     22  H   UNL     1      -0.391  -9.695  -1.389  0.00  0.00    +0.156 HD
ENDROOT
BRANCH   1  26
ATOM     23  C   UNL     1      -1.006  -1.717  -0.267  0.00  0.00    +0.162 A 
ATOM     24  C   UNL     1       0.050  -2.571  -0.543  0.00  0.00    +0.050 A 
ATOM     25  C   UNL     1      -0.122  -3.939  -0.438  0.00  0.00    +0.009 A 
ATOM     26  C   UNL     1      -1.346  -4.458  -0.058  0.00  0.00    -0.026 A 
ATOM     27  C   UNL     1      -2.403  -3.611   0.218  0.00  0.00    +0.054 A 
ATOM     28  C   UNL     1      -2.236  -2.239   0.121  0.00  0.00    +0.162 A 
BRANCH  28  29
ATOM     29  O   UNL     1      -3.273  -1.405   0.398  0.00  0.00    -0.491 OA
ATOM     30  C   UNL     1      -4.506  -2.011   0.790  0.00  0.00    +0.277 C 
ENDBRANCH  28  29
BRANCH  23  31
ATOM     31  O   UNL     1      -0.838  -0.371  -0.369  0.00  0.00    -0.489 OA
BRANCH  31  33
ATOM     32  C   UNL     1       0.448   1.622  -0.831  0.00  0.00    +0.048 C 
ATOM     33  C   UNL     1       0.452   0.093  -0.773  0.00  0.00    +0.226 C 
ENDBRANCH  31  33
ENDBRANCH  23  31
ENDBRANCH   1  26
BRANCH  17  34
ATOM     34  O   UNL     1       1.203 -13.901  -7.195  0.00  0.00    -0.495 OA
ATOM     35  C   UNL     1       1.583 -15.209  -6.763  0.00  0.00    +0.277 C 
ENDBRANCH  17  34
TORSDOF 5
