REMARK  Name = ZINC32950258
REMARK  10 active torsions:
REMARK  status: ('A' for Active; 'I' for Inactive)
REMARK    1  A    between atoms: C_1  and  C_2
REMARK    2  A    between atoms: C_2  and  C_3
REMARK    3  A    between atoms: C_6  and  C_9
REMARK    4  A    between atoms: C_9  and  C_11
REMARK    5  A    between atoms: C_9  and  N_12
REMARK    6  A    between atoms: C_13  and  C_15
REMARK    7  A    between atoms: C_15  and  S_16
REMARK    8  A    between atoms: S_16  and  C_17
REMARK    9  A    between atoms: C_20  and  C_23
REMARK   10  A    between atoms: N_21  and  N_22
REMARK                            x       y       z     vdW  Elec       q    Type
REMARK                         _______ _______ _______ _____ _____    ______ ____
ROOT
ATOM      1  C   UNL     1      -0.022   1.758   0.012  0.00  0.00    +0.209 A 
ATOM      2  N   UNL     1       1.023   2.553   0.006  0.00  0.00    -0.121 NA
ATOM      3  N   UNL     1       0.639   3.779   0.016  0.00  0.00    -0.128 NA
ATOM      4  C   UNL     1      -0.663   3.840   0.029  0.00  0.00    +0.195 A 
ATOM      5  N   UNL     1      -1.131   2.555   0.021  0.00  0.00    -0.225 N 
ENDROOT
BRANCH   4   6
ATOM      6  C   UNL     1      -1.498   5.094   0.044  0.00  0.00    +0.280 C 
ATOM      7  C   UNL     1      -1.475   5.748  -1.345  0.00  0.00    +0.281 C 
ATOM      8  O   UNL     1      -2.265   6.941  -1.292  0.00  0.00    -0.484 OA
ATOM      9  C   UNL     1      -2.058   7.765  -0.229  0.00  0.00    +0.162 A 
ATOM     10  C   UNL     1      -2.503   9.077  -0.287  0.00  0.00    +0.049 A 
ATOM     11  C   UNL     1      -2.302   9.925   0.785  0.00  0.00    +0.004 A 
ATOM     12  C   UNL     1      -1.657   9.469   1.919  0.00  0.00    +0.004 A 
ATOM     13  C   UNL     1      -1.211   8.162   1.984  0.00  0.00    +0.049 A 
ATOM     14  C   UNL     1      -1.407   7.306   0.911  0.00  0.00    +0.163 A 
ATOM     15  O   UNL     1      -0.956   6.024   0.987  0.00  0.00    -0.474 OA
ENDBRANCH   4   6
BRANCH   5  16
ATOM     16  N   UNL     1      -2.436   2.152   0.023  0.00  0.00    -0.295 N 
ATOM     17  H   UNL     1      -3.242   2.900   0.031  0.00  0.00    +0.163 HD
ATOM     18  H   UNL     1      -2.680   1.079   0.018  0.00  0.00    +0.163 HD
ENDBRANCH   5  16
BRANCH   1  19
ATOM     19  S   UNL     1       0.002  -0.004   0.002  0.00  0.00    -0.075 S 
BRANCH  19  20
ATOM     20  C   UNL     1       1.789  -0.294  -0.016  0.00  0.00    +0.173 C 
BRANCH  20  22
ATOM     21  N   UNL     1       3.325  -2.232  -0.040  0.00  0.00    -0.308 N 
ATOM     22  C   UNL     1       2.057  -1.777  -0.026  0.00  0.00    +0.224 C 
ATOM     23  O   UNL     1       1.131  -2.561  -0.022  0.00  0.00    -0.275 OA
ATOM     24  H   UNL     1       4.165  -1.522  -0.044  0.00  0.00    +0.149 HD
BRANCH  21  25
ATOM     25  C   UNL     1       3.586  -3.674  -0.050  0.00  0.00    +0.100 C 
ATOM     26  C   UNL     1       3.566  -4.206   1.384  0.00  0.00    +0.033 C 
BRANCH  25  30
ATOM     27  C   UNL     1       7.415  -4.416  -1.792  0.00  0.00    -0.048 A 
ATOM     28  C   UNL     1       6.351  -5.251  -2.079  0.00  0.00    +0.004 A 
ATOM     29  C   UNL     1       5.112  -5.011  -1.516  0.00  0.00    +0.006 A 
ATOM     30  C   UNL     1       4.937  -3.936  -0.665  0.00  0.00    -0.027 A 
ATOM     31  C   UNL     1       5.999  -3.098  -0.381  0.00  0.00    +0.006 A 
ATOM     32  C   UNL     1       7.239  -3.341  -0.941  0.00  0.00    +0.004 A 
BRANCH  27  34
ATOM     33  C   UNL     1       8.872  -3.933  -3.739  0.00  0.00    +0.009 C 
ATOM     34  C   UNL     1       8.766  -4.677  -2.407  0.00  0.00    +0.032 C 
ENDBRANCH  27  34
ENDBRANCH  25  30
ENDBRANCH  21  25
ENDBRANCH  20  22
ENDBRANCH  19  20
ENDBRANCH   1  19
TORSDOF 8
