REMARK  Name = ZINC13555346
REMARK  12 active torsions:
REMARK  status: ('A' for Active; 'I' for Inactive)
REMARK    1  A    between atoms: C_1  and  C_2
REMARK    2  A    between atoms: C_2  and  C_3
REMARK    3  A    between atoms: C_3  and  C_4
REMARK    4  A    between atoms: C_4  and  O_5
REMARK    5  A    between atoms: O_5  and  C_6
REMARK    6  A    between atoms: C_9  and  C_12
REMARK    7  A    between atoms: N_14  and  N_15
REMARK    8  A    between atoms: C_23  and  S_25
REMARK    9  A    between atoms: S_25  and  C_26
REMARK   10  A    between atoms: C_29  and  C_31
REMARK   11  A    between atoms: C_29  and  C_32
REMARK   12  A    between atoms: C_32  and  C_33
REMARK                            x       y       z     vdW  Elec       q    Type
REMARK                         _______ _______ _______ _____ _____    ______ ____
ROOT
ATOM      1  N   UNL     1      -5.565   0.823   3.003  0.00  0.00    -0.248 N 
ATOM      2  C   UNL     1      -4.601   0.599   2.037  0.00  0.00    +0.148 A 
ATOM      3  C   UNL     1      -4.857  -0.293   0.958  0.00  0.00    +0.052 A 
ATOM      4  C   UNL     1      -6.063  -1.072   0.678  0.00  0.00    -0.020 A 
ATOM      5  C   UNL     1      -6.049  -1.851  -0.425  0.00  0.00    +0.021 A 
ATOM      6  S   UNL     1      -4.453  -1.599  -1.148  0.00  0.00    -0.071 S 
ATOM      7  C   UNL     1      -3.804  -0.445   0.033  0.00  0.00    +0.115 A 
ATOM      8  N   UNL     1      -2.665   0.207   0.169  0.00  0.00    -0.215 NA
ATOM      9  C   UNL     1      -2.481   1.023   1.198  0.00  0.00    +0.191 A 
ATOM     10  N   UNL     1      -3.432   1.211   2.106  0.00  0.00    -0.205 NA
ATOM     11  C   UNL     1      -7.165  -2.727  -0.904  0.00  0.00    +0.203 C 
ATOM     12  O   UNL     1      -8.353  -2.363  -0.185  0.00  0.00    -0.368 OA
ATOM     13  C   UNL     1      -8.158  -2.270   1.229  0.00  0.00    +0.071 C 
ATOM     14  C   UNL     1      -7.306  -1.042   1.563  0.00  0.00    +0.071 C 
ATOM     15  C   UNL     1      -7.444  -3.529   1.726  0.00  0.00    +0.042 C 
ATOM     16  H   UNL     1      -6.469   0.495   2.871  0.00  0.00    +0.172 HD
ENDROOT
BRANCH   1  19
ATOM     17  C   UNL     1      -6.177   1.740   5.113  0.00  0.00    +0.260 C 
ATOM     18  O   UNL     1      -7.310   1.330   4.947  0.00  0.00    -0.269 OA
ATOM     19  N   UNL     1      -5.237   1.522   4.171  0.00  0.00    -0.231 N 
ATOM     20  H   UNL     1      -4.334   1.849   4.303  0.00  0.00    +0.173 HD
BRANCH  17  24
ATOM     21  C   UNL     1      -5.183   3.860   8.655  0.00  0.00    +0.121 A 
ATOM     22  C   UNL     1      -6.478   3.392   8.468  0.00  0.00    +0.046 A 
ATOM     23  C   UNL     1      -6.804   2.704   7.321  0.00  0.00    +0.016 A 
ATOM     24  C   UNL     1      -5.831   2.477   6.344  0.00  0.00    +0.038 A 
ATOM     25  C   UNL     1      -4.529   2.944   6.538  0.00  0.00    +0.016 A 
ATOM     26  C   UNL     1      -4.212   3.636   7.686  0.00  0.00    +0.046 A 
BRANCH  21  27
ATOM     27  O   UNL     1      -4.865   4.538   9.787  0.00  0.00    -0.492 OA
BRANCH  27  28
ATOM     28  C   UNL     1      -3.515   4.991   9.915  0.00  0.00    +0.229 C 
BRANCH  28  29
ATOM     29  C   UNL     1      -3.349   5.728  11.245  0.00  0.00    +0.041 C 
BRANCH  29  31
ATOM     30  C   UNL     1      -1.738   6.950  12.713  0.00  0.00    +0.004 C 
ATOM     31  C   UNL     1      -1.904   6.213  11.382  0.00  0.00    -0.000 C 
ENDBRANCH  29  31
ENDBRANCH  28  29
ENDBRANCH  27  28
ENDBRANCH  21  27
ENDBRANCH  17  24
ENDBRANCH   1  19
BRANCH   9  32
ATOM     32  S   UNL     1      -0.948   1.877   1.361  0.00  0.00    -0.089 S 
ATOM     33  C   UNL     1      -0.083   1.252  -0.101  0.00  0.00    +0.093 C 
ENDBRANCH   9  32
BRANCH  13  34
ATOM     34  C   UNL     1      -9.516  -2.150   1.922  0.00  0.00    +0.032 C 
ATOM     35  C   UNL     1     -10.315  -3.437   1.706  0.00  0.00    +0.007 C 
ENDBRANCH  13  34
TORSDOF 8
