REMARK  Name = ZINC14902464
REMARK  9 active torsions:
REMARK  status: ('A' for Active; 'I' for Inactive)
REMARK    1  A    between atoms: C_1  and  C_2
REMARK    2  A    between atoms: C_5  and  C_8
REMARK    3  A    between atoms: C_9  and  C_34
REMARK    4  A    between atoms: C_17  and  C_19
REMARK    5  A    between atoms: C_19  and  S_20
REMARK    6  A    between atoms: S_20  and  C_21
REMARK    7  A    between atoms: C_24  and  C_27
REMARK    8  A    between atoms: N_25  and  N_26
REMARK    9  A    between atoms: C_30  and  C_33
REMARK                            x       y       z     vdW  Elec       q    Type
REMARK                         _______ _______ _______ _____ _____    ______ ____
ROOT
ATOM      1  C   UNL     1       2.584   1.473  -0.014  0.00  0.00    +0.007 A 
ATOM      2  C   UNL     1       3.594   2.376  -0.019  0.00  0.00    -0.003 A 
ATOM      3  S   UNL     1       2.745   3.943  -0.002  0.00  0.00    -0.073 S 
ATOM      4  C   UNL     1       1.071   3.356   0.010  0.00  0.00    +0.116 A 
ATOM      5  C   UNL     1       1.209   1.958   0.001  0.00  0.00    +0.080 A 
ATOM      6  C   UNL     1      -0.015   1.215   0.009  0.00  0.00    +0.260 A 
ATOM      7  O   UNL     1       0.002  -0.004   0.002  0.00  0.00    -0.267 OA
ATOM      8  N   UNL     1      -1.183   1.882   0.018  0.00  0.00    -0.310 N 
ATOM      9  H   UNL     1      -2.015   1.384   0.019  0.00  0.00    +0.170 HD
ATOM     10  C   UNL     1      -1.220   3.239   0.031  0.00  0.00    +0.121 A 
ATOM     11  N   UNL     1      -0.121   3.945   0.025  0.00  0.00    -0.226 NA
ATOM     12  C   UNL     1       5.078   2.117  -0.034  0.00  0.00    +0.052 C 
ENDROOT
BRANCH   1  17
ATOM     13  C   UNL     1       3.700  -4.176  -0.053  0.00  0.00    +0.044 C 
ATOM     14  C   UNL     1       3.407  -2.698  -0.043  0.00  0.00    -0.050 A 
ATOM     15  C   UNL     1       3.761  -1.918  -1.130  0.00  0.00    +0.004 A 
ATOM     16  C   UNL     1       3.496  -0.564  -1.126  0.00  0.00    +0.009 A 
ATOM     17  C   UNL     1       2.871   0.018  -0.024  0.00  0.00    -0.016 A 
ATOM     18  C   UNL     1       2.522  -0.771   1.070  0.00  0.00    +0.009 A 
ATOM     19  C   UNL     1       2.787  -2.126   1.053  0.00  0.00    +0.004 A 
ENDBRANCH   1  17
BRANCH  10  20
ATOM     20  C   UNL     1      -2.553   3.943   0.048  0.00  0.00    +0.151 C 
BRANCH  20  21
ATOM     21  S   UNL     1      -2.289   5.734   0.055  0.00  0.00    -0.077 S 
BRANCH  21  22
ATOM     22  C   UNL     1      -3.961   6.290   0.074  0.00  0.00    +0.209 A 
ATOM     23  N   UNL     1      -5.034   5.532   0.080  0.00  0.00    -0.121 NA
ATOM     24  N   UNL     1      -6.091   6.263   0.094  0.00  0.00    -0.127 NA
ATOM     25  C   UNL     1      -5.757   7.533   0.097  0.00  0.00    +0.182 A 
ATOM     26  N   UNL     1      -4.382   7.589   0.090  0.00  0.00    -0.224 N 
BRANCH  25  27
ATOM     27  C   UNL     1      -6.683   8.685   0.112  0.00  0.00    +0.021 A 
ATOM     28  C   UNL     1      -6.216   9.964  -0.192  0.00  0.00    +0.012 A 
ATOM     29  C   UNL     1      -7.087  11.034  -0.182  0.00  0.00    +0.004 A 
ATOM     30  C   UNL     1      -8.418  10.843   0.140  0.00  0.00    -0.050 A 
ATOM     31  C   UNL     1      -8.887   9.578   0.448  0.00  0.00    +0.004 A 
ATOM     32  C   UNL     1      -8.028   8.499   0.436  0.00  0.00    +0.012 A 
ATOM     33  C   UNL     1      -9.363  12.017   0.155  0.00  0.00    +0.044 C 
ENDBRANCH  25  27
BRANCH  26  34
ATOM     34  N   UNL     1      -3.602   8.710   0.096  0.00  0.00    -0.295 N 
ATOM     35  H   UNL     1      -3.403   9.017  -0.845  0.00  0.00    +0.163 HD
ATOM     36  H   UNL     1      -4.032   9.447   0.633  0.00  0.00    +0.163 HD
ENDBRANCH  26  34
ENDBRANCH  21  22
ENDBRANCH  20  21
ENDBRANCH  10  20
TORSDOF 6
