REMARK  Name = ZINC40701982
REMARK  12 active torsions:
REMARK  status: ('A' for Active; 'I' for Inactive)
REMARK    1  A    between atoms: C_1  and  C_2
REMARK    2  A    between atoms: C_2  and  N_3
REMARK    3  A    between atoms: N_3  and  C_4
REMARK    4  A    between atoms: N_3  and  S_6
REMARK    5  A    between atoms: C_4  and  C_5
REMARK    6  A    between atoms: S_6  and  C_9
REMARK    7  A    between atoms: C_12  and  N_15
REMARK    8  A    between atoms: C_17  and  N_35
REMARK    9  A    between atoms: C_18  and  N_22
REMARK   10  A    between atoms: N_22  and  C_23
REMARK   11  A    between atoms: N_22  and  C_25
REMARK   12  A    between atoms: C_23  and  C_24
REMARK                            x       y       z     vdW  Elec       q    Type
REMARK                         _______ _______ _______ _____ _____    ______ ____
ROOT
ATOM      1  N   UNL     1      -0.612   4.036  -5.782  0.00  0.00    -0.299 N 
ATOM      2  C   UNL     1       0.370   4.380  -6.705  0.00  0.00    +0.126 A 
ATOM      3  C   UNL     1       0.299   5.590  -7.398  0.00  0.00    +0.104 A 
ATOM      4  C   UNL     1       1.312   5.886  -8.312  0.00  0.00    +0.151 A 
ATOM      5  N   UNL     1       2.298   5.009  -8.488  0.00  0.00    -0.220 NA
ATOM      6  C   UNL     1       2.327   3.878  -7.813  0.00  0.00    +0.200 A 
ATOM      7  N   UNL     1       1.394   3.563  -6.937  0.00  0.00    -0.333 N 
ATOM      8  H   UNL     1      -1.402   4.591  -5.686  0.00  0.00    +0.154 HD
ATOM      9  H   UNL     1       1.453   2.721  -6.457  0.00  0.00    +0.168 HD
ENDROOT
BRANCH   1  13
ATOM     10  C   UNL     1      -0.161   0.626  -3.435  0.00  0.00    +0.106 A 
ATOM     11  C   UNL     1      -1.400   0.942  -3.961  0.00  0.00    +0.030 A 
ATOM     12  C   UNL     1      -1.553   2.072  -4.740  0.00  0.00    +0.025 A 
ATOM     13  C   UNL     1      -0.461   2.892  -4.994  0.00  0.00    +0.032 A 
ATOM     14  C   UNL     1       0.782   2.572  -4.463  0.00  0.00    +0.025 A 
ATOM     15  C   UNL     1       0.927   1.443  -3.681  0.00  0.00    +0.030 A 
BRANCH  10  16
ATOM     16  S   UNL     1       0.029  -0.817  -2.442  0.00  0.00    +0.061 S 
ATOM     17  O   UNL     1       1.401  -1.182  -2.515  0.00  0.00    -0.153 OA
ATOM     18  O   UNL     1      -1.016  -1.705  -2.812  0.00  0.00    -0.153 OA
BRANCH  16  19
ATOM     19  N   UNL     1      -0.259  -0.373  -0.873  0.00  0.00    -0.177 NA
BRANCH  19  21
ATOM     20  C   UNL     1      -2.289   0.925  -0.456  0.00  0.00    +0.022 C 
ATOM     21  C   UNL     1      -1.618  -0.444  -0.330  0.00  0.00    +0.106 C 
ENDBRANCH  19  21
BRANCH  19  22
ATOM     22  C   UNL     1       0.845   0.089  -0.028  0.00  0.00    +0.106 C 
ATOM     23  C   UNL     1       1.389  -1.085   0.788  0.00  0.00    +0.022 C 
ENDBRANCH  19  22
ENDBRANCH  16  19
ENDBRANCH  10  16
ENDBRANCH   1  13
BRANCH   3  24
ATOM     24  N   UNL     1      -0.760   6.485  -7.181  0.00  0.00    -0.353 N 
ATOM     25  H   UNL     1      -1.419   6.299  -6.493  0.00  0.00    +0.143 HD
ATOM     26  H   UNL     1      -0.834   7.289  -7.719  0.00  0.00    +0.143 HD
ENDBRANCH   3  24
BRANCH   4  27
ATOM     27  N   UNL     1       1.290   7.077  -9.029  0.00  0.00    -0.283 N 
BRANCH  27  28
ATOM     28  C   UNL     1       0.760   7.105 -10.318  0.00  0.00    +0.043 A 
ATOM     29  C   UNL     1      -0.578   7.375 -10.514  0.00  0.00    +0.024 A 
ATOM     30  C   UNL     1      -1.117   7.406 -11.796  0.00  0.00    +0.002 A 
ATOM     31  C   UNL     1      -0.342   7.172 -12.891  0.00  0.00    +0.008 A 
ATOM     32  C   UNL     1       1.026   6.893 -12.735  0.00  0.00    -0.016 A 
ATOM     33  C   UNL     1       1.589   6.864 -11.435  0.00  0.00    +0.003 A 
ATOM     34  C   UNL     1       2.957   6.590 -11.281  0.00  0.00    +0.010 A 
ATOM     35  C   UNL     1       3.726   6.362 -12.381  0.00  0.00    +0.001 A 
ATOM     36  C   UNL     1       3.175   6.396 -13.661  0.00  0.00    +0.001 A 
ATOM     37  C   UNL     1       1.851   6.647 -13.847  0.00  0.00    +0.008 A 
ENDBRANCH  27  28
BRANCH  27  38
ATOM     38  C   UNL     1       1.825   8.302  -8.430  0.00  0.00    +0.109 C 
ATOM     39  C   UNL     1       3.285   8.481  -8.851  0.00  0.00    +0.025 C 
ENDBRANCH  27  38
ENDBRANCH   4  27
TORSDOF 9
