REMARK  Name = ZINC45842380
REMARK  10 active torsions:
REMARK  status: ('A' for Active; 'I' for Inactive)
REMARK    1  A    between atoms: C_1  and  C_2
REMARK    2  A    between atoms: C_11  and  N_34
REMARK    3  A    between atoms: C_13  and  C_15
REMARK    4  A    between atoms: C_15  and  S_16
REMARK    5  A    between atoms: S_16  and  C_17
REMARK    6  A    between atoms: C_20  and  C_29
REMARK    7  A    between atoms: N_21  and  C_22
REMARK    8  A    between atoms: C_22  and  C_23
REMARK    9  A    between atoms: C_29  and  C_30
REMARK   10  A    between atoms: C_30  and  C_31
REMARK                            x       y       z     vdW  Elec       q    Type
REMARK                         _______ _______ _______ _____ _____    ______ ____
ROOT
ATOM      1  S   UNL     1       4.822  -7.490   0.510  0.00  0.00    -0.078 S 
ENDROOT
BRANCH   1   2
ATOM      2  C   UNL     1       5.564  -9.073   0.724  0.00  0.00    +0.192 A 
ATOM      3  N   UNL     1       4.936 -10.213   0.901  0.00  0.00    -0.122 NA
ATOM      4  N   UNL     1       5.788 -11.167   1.022  0.00  0.00    -0.134 NA
ATOM      5  C   UNL     1       7.001 -10.698   0.932  0.00  0.00    +0.135 A 
ATOM      6  N   UNL     1       6.902  -9.349   0.733  0.00  0.00    -0.303 N 
BRANCH   6   7
ATOM      7  C   UNL     1       8.002  -8.396   0.567  0.00  0.00    +0.157 C 
BRANCH   7   8
ATOM      8  C   UNL     1       8.420  -7.856   1.936  0.00  0.00    +0.138 C 
ATOM      9  C   UNL     1       9.643  -6.915   1.793  0.00  0.00    +0.035 C 
ATOM     10  C   UNL     1       9.483  -6.030   3.059  0.00  0.00    +0.031 C 
ATOM     11  C   UNL     1       7.949  -5.931   3.199  0.00  0.00    +0.160 C 
ATOM     12  O   UNL     1       7.377  -7.037   2.488  0.00  0.00    -0.375 OA
ENDBRANCH   7   8
ENDBRANCH   6   7
BRANCH   5  13
ATOM     13  C   UNL     1       8.276 -11.497   1.023  0.00  0.00    +0.085 C 
BRANCH  13  14
ATOM     14  C   UNL     1       8.681 -11.972  -0.373  0.00  0.00    +0.103 C 
BRANCH  14  15
ATOM     15  C   UNL     1       9.956 -12.771  -0.282  0.00  0.00    +0.211 C 
ATOM     16  O   UNL     1      10.488 -12.942   0.794  0.00  0.00    -0.276 OA
ATOM     17  N   UNL     1      10.504 -13.294  -1.396  0.00  0.00    -0.329 N 
ATOM     18  H   UNL     1      10.078 -13.157  -2.257  0.00  0.00    +0.145 HD
ATOM     19  H   UNL     1      11.325 -13.808  -1.337  0.00  0.00    +0.145 HD
ENDBRANCH  14  15
ENDBRANCH  13  14
ENDBRANCH   5  13
ENDBRANCH   1   2
BRANCH   1  20
ATOM     20  C   UNL     1       3.042  -7.823   0.601  0.00  0.00    +0.153 C 
BRANCH  20  32
ATOM     21  C   UNL     1      -2.009   0.731   0.322  0.00  0.00    +0.008 C 
ATOM     22  C   UNL     1      -1.528  -0.718   0.214  0.00  0.00    -0.009 C 
ATOM     23  C   UNL     1      -0.605  -0.864  -0.999  0.00  0.00    +0.008 C 
ATOM     24  C   UNL     1      -0.321  -2.343  -1.259  0.00  0.00    +0.037 C 
ATOM     25  C   UNL     1       0.187  -2.983   0.030  0.00  0.00    -0.025 A 
ATOM     26  C   UNL     1      -0.027  -2.386   1.225  0.00  0.00    -0.004 A 
ATOM     27  S   UNL     1       0.721  -3.460   2.425  0.00  0.00    -0.073 S 
ATOM     28  C   UNL     1       1.321  -4.704   1.329  0.00  0.00    +0.114 A 
ATOM     29  C   UNL     1       0.915  -4.242   0.051  0.00  0.00    +0.051 A 
ATOM     30  C   UNL     1       1.262  -5.053  -1.067  0.00  0.00    +0.128 A 
ATOM     31  N   UNL     1       1.936  -6.167  -0.788  0.00  0.00    -0.216 NA
ATOM     32  C   UNL     1       2.280  -6.535   0.430  0.00  0.00    +0.143 A 
ATOM     33  N   UNL     1       1.988  -5.825   1.514  0.00  0.00    -0.224 NA
ATOM     34  C   UNL     1      -0.746  -1.097   1.480  0.00  0.00    +0.046 C 
BRANCH  30  35
ATOM     35  N   UNL     1       0.921  -4.705  -2.361  0.00  0.00    -0.343 N 
ATOM     36  H   UNL     1       1.363  -5.134  -3.111  0.00  0.00    +0.144 HD
ATOM     37  H   UNL     1       0.239  -4.033  -2.519  0.00  0.00    +0.144 HD
ENDBRANCH  30  35
ENDBRANCH  20  32
ENDBRANCH   1  20
TORSDOF 9
