REMARK  Name = ZINC33812639
REMARK  11 active torsions:
REMARK  status: ('A' for Active; 'I' for Inactive)
REMARK    1  A    between atoms: C_1  and  C_2
REMARK    2  A    between atoms: C_2  and  C_3
REMARK    3  A    between atoms: C_3  and  N_4
REMARK    4  A    between atoms: C_5  and  N_30
REMARK    5  A    between atoms: C_6  and  C_14
REMARK    6  A    between atoms: C_7  and  C_13
REMARK    7  A    between atoms: C_8  and  C_11
REMARK    8  A    between atoms: N_18  and  C_22
REMARK    9  A    between atoms: C_22  and  C_23
REMARK   10  A    between atoms: C_26  and  C_29
REMARK   11  A    between atoms: N_33  and  C_36
REMARK                            x       y       z     vdW  Elec       q    Type
REMARK                         _______ _______ _______ _____ _____    ______ ____
ROOT
ATOM      1  N   UNL     1       0.332  -2.182  -1.303  0.00  0.00    -0.295 N 
ATOM      2  C   UNL     1       1.462  -2.715  -0.771  0.00  0.00    +0.112 A 
ATOM      3  C   UNL     1       1.830  -4.039  -1.059  0.00  0.00    +0.019 A 
ATOM      4  C   UNL     1       1.019  -4.814  -1.906  0.00  0.00    -0.017 A 
ATOM      5  C   UNL     1      -0.134  -4.244  -2.438  0.00  0.00    +0.120 A 
ATOM      6  C   UNL     1      -0.464  -2.904  -2.112  0.00  0.00    +0.270 A 
ATOM      7  O   UNL     1      -1.475  -2.402  -2.571  0.00  0.00    -0.266 OA
ATOM      8  C   UNL     1       1.391  -6.237  -2.232  0.00  0.00    +0.046 C 
ENDROOT
BRANCH   3   9
ATOM      9  C   UNL     1       3.050  -4.608  -0.483  0.00  0.00    +0.032 C 
ATOM     10  C   UNL     1       2.968  -5.641   0.399  0.00  0.00    +0.077 C 
ATOM     11  C   UNL     1       4.014  -6.374   1.040  0.00  0.00    +0.259 C 
ATOM     12  O   UNL     1       5.184  -6.110   0.830  0.00  0.00    -0.269 OA
ATOM     13  N   UNL     1       3.673  -7.346   1.867  0.00  0.00    -0.251 N 
ATOM     14  C   UNL     1       2.374  -7.638   2.100  0.00  0.00    +0.121 C 
ATOM     15  S   UNL     1       1.711  -8.842   3.121  0.00  0.00    -0.027 S 
ATOM     16  S   UNL     1       1.523  -6.445   1.078  0.00  0.00    -0.061 S 
BRANCH  13  17
ATOM     17  C   UNL     1       4.718  -8.119   2.542  0.00  0.00    +0.150 C 
BRANCH  17  18
ATOM     18  C   UNL     1       5.063  -7.460   3.853  0.00  0.00    -0.030 A 
ATOM     19  C   UNL     1       6.056  -6.500   3.904  0.00  0.00    +0.005 A 
ATOM     20  C   UNL     1       6.372  -5.895   5.106  0.00  0.00    +0.003 A 
ATOM     21  C   UNL     1       5.695  -6.251   6.258  0.00  0.00    -0.050 A 
ATOM     22  C   UNL     1       4.702  -7.211   6.207  0.00  0.00    +0.003 A 
ATOM     23  C   UNL     1       4.383  -7.813   5.004  0.00  0.00    +0.005 A 
ATOM     24  C   UNL     1       6.040  -5.593   7.569  0.00  0.00    +0.044 C 
ENDBRANCH  17  18
ENDBRANCH  13  17
ENDBRANCH   3   9
BRANCH   2  25
ATOM     25  N   UNL     1       2.245  -1.958   0.050  0.00  0.00    -0.320 N 
ATOM     26  C   UNL     1       2.070  -1.997   1.510  0.00  0.00    +0.088 C 
ATOM     27  C   UNL     1       3.438  -2.235   2.158  0.00  0.00    -0.060 C 
ATOM     28  N   UNL     1       4.384  -1.215   1.688  0.00  0.00    +0.380 N 
ATOM     29  C   UNL     1       4.600  -1.361   0.243  0.00  0.00    -0.060 C 
ATOM     30  C   UNL     1       3.293  -1.084  -0.499  0.00  0.00    +0.088 C 
ATOM     31  C   UNL     1       5.664  -1.376   2.392  0.00  0.00    -0.096 C 
ATOM     32  H   UNL     1       4.011  -0.298   1.880  0.00  0.00    -0.082 HD
ENDBRANCH   2  25
BRANCH   5  33
ATOM     33  C   UNL     1      -0.982  -5.006  -3.305  0.00  0.00    +0.105 C 
ATOM     34  N   UNL     1      -1.655  -5.611  -3.992  0.00  0.00    -0.191 NA
ENDBRANCH   5  33
BRANCH   1  35
ATOM     35  C   UNL     1      -0.029  -0.798  -0.987  0.00  0.00    +0.126 C 
BRANCH  35  37
ATOM     36  C   UNL     1      -1.388   0.662   0.517  0.00  0.00    +0.005 C 
ATOM     37  C   UNL     1      -1.011  -0.783   0.187  0.00  0.00    +0.018 C 
ENDBRANCH  35  37
ENDBRANCH   1  35
TORSDOF 7
