REMARK  Name = ZINC12877006
REMARK  11 active torsions:
REMARK  status: ('A' for Active; 'I' for Inactive)
REMARK    1  A    between atoms: C_1  and  C_2
REMARK    2  A    between atoms: C_13  and  O_30
REMARK    3  A    between atoms: C_17  and  C_29
REMARK    4  A    between atoms: C_22  and  C_28
REMARK    5  A    between atoms: C_23  and  C_24
REMARK    6  A    between atoms: C_23  and  O_27
REMARK    7  A    between atoms: C_24  and  C_26
REMARK    8  A    between atoms: O_30  and  C_31
REMARK    9  A    between atoms: C_31  and  C_33
REMARK   10  A    between atoms: C_33  and  C_34
REMARK   11  A    between atoms: C_34  and  N_82
REMARK                            x       y       z     vdW  Elec       q    Type
REMARK                         _______ _______ _______ _____ _____    ______ ____
ROOT
ATOM      1  C   UNL     1       0.779  -0.139   5.425  0.00  0.00    +0.011 C 
ATOM      2  C   UNL     1       0.695   1.258   4.807  0.00  0.00    +0.026 C 
ATOM      3  C   UNL     1      -0.582   1.377   3.931  0.00  0.00    +0.011 C 
ATOM      4  C   UNL     1      -0.064   1.058   2.525  0.00  0.00    +0.002 C 
ATOM      5  C   UNL     1      -0.907   1.599   1.369  0.00  0.00    +0.000 C 
ATOM      6  C   UNL     1      -2.275   0.909   1.358  0.00  0.00    +0.031 C 
ATOM      7  C   UNL     1      -3.021   1.310   0.119  0.00  0.00    -0.027 C 
ATOM      8  C   UNL     1      -2.426   1.677  -0.978  0.00  0.00    -0.064 C 
ATOM      9  C   UNL     1      -3.287   2.054  -2.172  0.00  0.00    +0.075 C 
ATOM     10  C   UNL     1      -2.796   1.264  -3.390  0.00  0.00    +0.180 C 
ATOM     11  C   UNL     1      -1.303   1.520  -3.595  0.00  0.00    +0.046 C 
ATOM     12  C   UNL     1      -0.518   0.990  -2.394  0.00  0.00    +0.015 C 
ATOM     13  C   UNL     1      -0.949   1.756  -1.129  0.00  0.00    -0.008 C 
ATOM     14  C   UNL     1      -0.175   1.234   0.070  0.00  0.00    +0.003 C 
ATOM     15  C   UNL     1       1.247   1.788   0.047  0.00  0.00    +0.005 C 
ATOM     16  C   UNL     1       2.049   1.351   1.283  0.00  0.00    +0.010 C 
ATOM     17  C   UNL     1       1.284   1.827   2.503  0.00  0.00    +0.007 C 
ATOM     18  C   UNL     1       1.901   1.501   3.860  0.00  0.00    +0.131 C 
ATOM     19  C   UNL     1       1.024   3.330   2.399  0.00  0.00    +0.015 C 
ATOM     20  C   UNL     1      -0.581   3.228  -1.330  0.00  0.00    +0.016 C 
ENDROOT
BRANCH  18  21
ATOM     21  C   UNL     1       2.730   2.661   4.348  0.00  0.00    +0.162 C 
ATOM     22  O   UNL     1       2.244   3.481   5.089  0.00  0.00    -0.295 OA
ATOM     23  C   UNL     1       4.166   2.798   3.912  0.00  0.00    +0.089 C 
ENDBRANCH  18  21
BRANCH  18  24
ATOM     24  O   UNL     1       2.704   0.322   3.769  0.00  0.00    -0.380 OA
ATOM     25  H   UNL     1       3.122   0.066   4.602  0.00  0.00    +0.211 HD
ENDBRANCH  18  24
BRANCH  10  26
ATOM     26  O   UNL     1      -3.527   1.690  -4.570  0.00  0.00    -0.461 OA
BRANCH  26  27
ATOM     27  C   UNL     1      -4.661   1.031  -4.855  0.00  0.00    +0.306 C 
ATOM     28  O   UNL     1      -5.031   0.128  -4.142  0.00  0.00    -0.251 OA
BRANCH  27  29
ATOM     29  C   UNL     1      -5.474   1.417  -6.064  0.00  0.00    +0.102 C 
BRANCH  29  30
ATOM     30  C   UNL     1      -6.707   0.516  -6.159  0.00  0.00    -0.068 C 
BRANCH  30  36
ATOM     31  C   UNL     1      -8.056   2.243  -7.188  0.00  0.00    -0.079 C 
ATOM     32  C   UNL     1      -8.750   2.657  -8.488  0.00  0.00    -0.019 C 
ATOM     33  C   UNL     1      -9.864   1.656  -8.807  0.00  0.00    -0.004 C 
ATOM     34  C   UNL     1      -9.264   0.251  -8.910  0.00  0.00    -0.019 C 
ATOM     35  C   UNL     1      -8.556  -0.093  -7.598  0.00  0.00    -0.079 C 
ATOM     36  N   UNL     1      -7.479   0.892  -7.361  0.00  0.00    +0.380 N 
ATOM     37  H   UNL     1      -6.850   0.901  -8.172  0.00  0.00    -0.082 HD
ENDBRANCH  30  36
ENDBRANCH  29  30
ENDBRANCH  27  29
ENDBRANCH  26  27
ENDBRANCH  10  26
TORSDOF 7
