REMARK  Name = ZINC04195692
REMARK  12 active torsions:
REMARK  status: ('A' for Active; 'I' for Inactive)
REMARK    1  A    between atoms: C_1  and  C_2
REMARK    2  A    between atoms: C_2  and  O_3
REMARK    3  A    between atoms: O_3  and  C_4
REMARK    4  A    between atoms: C_4  and  C_6
REMARK    5  A    between atoms: C_7  and  C_22
REMARK    6  A    between atoms: C_12  and  C_14
REMARK    7  A    between atoms: C_17  and  O_20
REMARK    8  A    between atoms: O_20  and  C_21
REMARK    9  A    between atoms: C_22  and  N_56
REMARK   10  A    between atoms: C_23  and  C_24
REMARK   11  A    between atoms: C_23  and  N_56
REMARK   12  A    between atoms: C_27  and  C_30
REMARK                            x       y       z     vdW  Elec       q    Type
REMARK                         _______ _______ _______ _____ _____    ______ ____
ROOT
ATOM      1  C   UNL     1      -2.943   0.971   1.471  0.00  0.00    +0.076 C 
ATOM      2  C   UNL     1      -4.196   1.388   1.756  0.00  0.00    +0.007 C 
ATOM      3  N   UNL     1      -5.021   1.863   0.777  0.00  0.00    -0.274 N 
ATOM      4  C   UNL     1      -4.668   1.953  -0.512  0.00  0.00    +0.304 C 
ATOM      5  O   UNL     1      -5.472   2.389  -1.312  0.00  0.00    -0.252 OA
ATOM      6  N   UNL     1      -3.451   1.576  -0.950  0.00  0.00    -0.288 N 
ATOM      7  C   UNL     1      -2.485   1.048   0.029  0.00  0.00    +0.143 C 
ATOM      8  H   UNL     1      -5.912   2.151   1.029  0.00  0.00    +0.156 HD
ATOM      9  H   UNL     1      -3.217   1.650  -1.888  0.00  0.00    +0.151 HD
ENDROOT
BRANCH   7  10
ATOM     10  C   UNL     1      -1.253   1.914  -0.022  0.00  0.00    -0.022 A 
ATOM     11  C   UNL     1       0.001   1.331  -0.012  0.00  0.00    +0.009 A 
ATOM     12  C   UNL     1       1.132   2.123  -0.064  0.00  0.00    +0.046 A 
ATOM     13  C   UNL     1       1.009   3.503  -0.121  0.00  0.00    +0.120 A 
ATOM     14  C   UNL     1      -0.250   4.086  -0.125  0.00  0.00    +0.046 A 
ATOM     15  C   UNL     1      -1.378   3.290  -0.073  0.00  0.00    +0.009 A 
BRANCH  13  16
ATOM     16  O   UNL     1       2.121   4.284  -0.173  0.00  0.00    -0.495 OA
ATOM     17  C   UNL     1       1.919   5.697  -0.230  0.00  0.00    +0.277 C 
ENDBRANCH  13  16
ENDBRANCH   7  10
BRANCH   1  18
ATOM     18  C   UNL     1      -2.087   0.479   2.484  0.00  0.00    +0.339 C 
ATOM     19  O   UNL     1      -1.925  -0.720   2.614  0.00  0.00    -0.245 OA
BRANCH  18  20
ATOM     20  O   UNL     1      -1.452   1.340   3.307  0.00  0.00    -0.462 OA
BRANCH  20  22
ATOM     21  C   UNL     1       0.026   1.895   5.137  0.00  0.00    +0.048 C 
ATOM     22  C   UNL     1      -0.603   0.773   4.308  0.00  0.00    +0.229 C 
ENDBRANCH  20  22
ENDBRANCH  18  20
ENDBRANCH   1  18
BRANCH   2  23
ATOM     23  C   UNL     1      -4.691   1.328   3.178  0.00  0.00    -0.030 C 
BRANCH  23  24
ATOM     24  N   UNL     1      -4.920   2.701   3.668  0.00  0.00    +0.385 N 
ATOM     25  H   UNL     1      -5.620   3.160   3.074  0.00  0.00    -0.085 HD
ATOM     26  H   UNL     1      -4.038   3.226   3.627  0.00  0.00    -0.085 HD
BRANCH  24  27
ATOM     27  C   UNL     1      -5.406   2.673   5.061  0.00  0.00    -0.046 C 
BRANCH  27  28
ATOM     28  C   UNL     1      -5.630   4.086   5.534  0.00  0.00    -0.064 A 
ATOM     29  C   UNL     1      -4.606   4.779   6.151  0.00  0.00    +0.002 A 
ATOM     30  C   UNL     1      -4.810   6.077   6.580  0.00  0.00    +0.003 A 
ATOM     31  C   UNL     1      -6.042   6.678   6.402  0.00  0.00    -0.050 A 
ATOM     32  C   UNL     1      -7.068   5.983   5.790  0.00  0.00    +0.003 A 
ATOM     33  C   UNL     1      -6.862   4.687   5.355  0.00  0.00    +0.002 A 
ATOM     34  C   UNL     1      -6.266   8.091   6.875  0.00  0.00    +0.044 C 
ENDBRANCH  27  28
ENDBRANCH  24  27
ENDBRANCH  23  24
ENDBRANCH   2  23
TORSDOF 9
