REMARK  Name = ZINC15643107
REMARK  8 active torsions:
REMARK  status: ('A' for Active; 'I' for Inactive)
REMARK    1  A    between atoms: C_1  and  C_2
REMARK    2  A    between atoms: C_2  and  C_4
REMARK    3  A    between atoms: C_2  and  O_17
REMARK    4  A    between atoms: N_6  and  C_7
REMARK    5  A    between atoms: C_12  and  C_13
REMARK    6  A    between atoms: O_17  and  C_18
REMARK    7  A    between atoms: C_18  and  C_20
REMARK    8  A    between atoms: C_25  and  N_26
REMARK                            x       y       z     vdW  Elec       q    Type
REMARK                         _______ _______ _______ _____ _____    ______ ____
ROOT
ATOM      1  C   UNL     1       6.190   2.221  -0.064  0.00  0.00    +0.342 C 
ATOM      2  O   UNL     1       6.180   3.433  -0.157  0.00  0.00    -0.245 OA
ENDROOT
BRANCH   1   3
ATOM      3  C   UNL     1       4.920   1.472  -0.058  0.00  0.00    +0.080 A 
ATOM      4  C   UNL     1       4.932   0.078  -0.055  0.00  0.00    +0.017 A 
ATOM      5  C   UNL     1       3.746  -0.633  -0.049  0.00  0.00    +0.013 A 
ATOM      6  C   UNL     1       2.525   0.035  -0.046  0.00  0.00    +0.035 A 
ATOM      7  C   UNL     1       2.493   1.441  -0.049  0.00  0.00    +0.054 A 
ATOM      8  C   UNL     1       3.694   2.163  -0.055  0.00  0.00    +0.050 A 
ATOM      9  C   UNL     1       1.203   2.151  -0.044  0.00  0.00    +0.196 C 
ATOM     10  O   UNL     1       1.178   3.366  -0.047  0.00  0.00    -0.287 OA
ATOM     11  C   UNL     1      -0.062   1.385  -0.037  0.00  0.00    +0.033 A 
ATOM     12  C   UNL     1      -1.285   2.050  -0.027  0.00  0.00    +0.012 A 
ATOM     13  C   UNL     1      -2.464   1.325  -0.025  0.00  0.00    +0.001 A 
ATOM     14  C   UNL     1      -2.436  -0.058  -0.023  0.00  0.00    +0.001 A 
ATOM     15  C   UNL     1      -1.229  -0.734  -0.028  0.00  0.00    +0.012 A 
ATOM     16  C   UNL     1      -0.034  -0.020  -0.035  0.00  0.00    +0.033 A 
ATOM     17  C   UNL     1       1.260  -0.734  -0.039  0.00  0.00    +0.195 C 
ATOM     18  O   UNL     1       1.285  -1.948  -0.037  0.00  0.00    -0.287 OA
BRANCH   8  19
ATOM     19  N   UNL     1       3.675   3.543  -0.058  0.00  0.00    -0.357 N 
ATOM     20  H   UNL     1       4.355   4.036  -0.543  0.00  0.00    +0.142 HD
ATOM     21  H   UNL     1       2.982   4.019   0.425  0.00  0.00    +0.142 HD
ENDBRANCH   8  19
ENDBRANCH   1   3
BRANCH   1  22
ATOM     22  O   UNL     1       7.362   1.563   0.035  0.00  0.00    -0.449 OA
BRANCH  22  24
ATOM     23  C   UNL     1       8.938   2.757   1.455  0.00  0.00    +0.062 C 
ATOM     24  C   UNL     1       8.572   2.365   0.022  0.00  0.00    +0.259 C 
BRANCH  24  25
ATOM     25  C   UNL     1       9.697   1.566  -0.584  0.00  0.00    +0.258 C 
ATOM     26  O   UNL     1       9.499   0.433  -0.967  0.00  0.00    -0.271 OA
ATOM     27  N   UNL     1      10.924   2.112  -0.699  0.00  0.00    -0.282 N 
ATOM     28  H   UNL     1      11.104   2.987  -0.321  0.00  0.00    +0.155 HD
BRANCH  27  29
ATOM     29  C   UNL     1      11.939   1.416  -1.365  0.00  0.00    +0.045 A 
ATOM     30  C   UNL     1      11.617   0.463  -2.323  0.00  0.00    +0.024 A 
ATOM     31  C   UNL     1      12.621  -0.218  -2.982  0.00  0.00    +0.002 A 
ATOM     32  C   UNL     1      13.947   0.040  -2.682  0.00  0.00    +0.001 A 
ATOM     33  C   UNL     1      14.270   0.984  -1.725  0.00  0.00    +0.014 A 
ATOM     34  C   UNL     1      13.271   1.673  -1.066  0.00  0.00    +0.076 A 
BRANCH  34  35
ATOM     35  C   UNL     1      13.625   2.700  -0.022  0.00  0.00    +0.419 C 
ATOM     36  F   UNL     1      15.016   2.780   0.102  0.00  0.00    -0.166 F 
ATOM     37  F   UNL     1      13.119   3.947  -0.405  0.00  0.00    -0.166 F 
ATOM     38  F   UNL     1      13.068   2.329   1.206  0.00  0.00    -0.166 F 
ENDBRANCH  34  35
ENDBRANCH  27  29
ENDBRANCH  24  25
ENDBRANCH  22  24
ENDBRANCH   1  22
TORSDOF 7
