REMARK  Name = ZINC58004730
REMARK  7 active torsions:
REMARK  status: ('A' for Active; 'I' for Inactive)
REMARK    1  A    between atoms: C_1  and  C_2
REMARK    2  A    between atoms: C_5  and  C_8
REMARK    3  A    between atoms: C_8  and  C_10
REMARK    4  A    between atoms: C_8  and  N_15
REMARK    5  A    between atoms: N_18  and  N_19
REMARK    6  A    between atoms: C_20  and  C_22
REMARK    7  A    between atoms: C_23  and  C_31
REMARK                            x       y       z     vdW  Elec       q    Type
REMARK                         _______ _______ _______ _____ _____    ______ ____
ROOT
ATOM      1  N   UNL     1       0.959  -4.758   1.029  0.00  0.00    -0.287 N 
ATOM      2  C   UNL     1       1.534  -5.972   0.919  0.00  0.00    +0.317 C 
ATOM      3  O   UNL     1       1.306  -6.667  -0.053  0.00  0.00    -0.251 OA
ATOM      4  N   UNL     1       2.362  -6.416   1.885  0.00  0.00    -0.218 N 
ATOM      5  H   UNL     1       1.142  -4.204   1.804  0.00  0.00    +0.151 HD
ATOM      6  H   UNL     1       2.776  -7.290   1.806  0.00  0.00    +0.174 HD
ENDROOT
BRANCH   4   7
ATOM      7  N   UNL     1       2.625  -5.615   3.004  0.00  0.00    -0.227 N 
ATOM      8  C   UNL     1       3.453  -6.059   3.971  0.00  0.00    +0.296 C 
ATOM      9  O   UNL     1       3.972  -7.155   3.871  0.00  0.00    -0.265 OA
ATOM     10  H   UNL     1       2.212  -4.742   3.084  0.00  0.00    +0.173 HD
BRANCH   8  11
ATOM     11  C   UNL     1       3.729  -5.219   5.145  0.00  0.00    +0.195 A 
ATOM     12  C   UNL     1       4.547  -5.559   6.174  0.00  0.00    +0.008 A 
ATOM     13  C   UNL     1       4.518  -4.431   7.104  0.00  0.00    +0.024 A 
ATOM     14  C   UNL     1       5.133  -4.164   8.330  0.00  0.00    +0.012 A 
ATOM     15  C   UNL     1       4.890  -2.979   8.965  0.00  0.00    +0.001 A 
ATOM     16  C   UNL     1       4.038  -2.040   8.400  0.00  0.00    +0.004 A 
ATOM     17  C   UNL     1       3.422  -2.284   7.192  0.00  0.00    +0.047 A 
ATOM     18  C   UNL     1       3.654  -3.483   6.527  0.00  0.00    +0.136 A 
ATOM     19  O   UNL     1       3.212  -3.992   5.360  0.00  0.00    -0.450 OA
ATOM     20  C   UNL     1       5.327  -6.840   6.327  0.00  0.00    +0.048 C 
ENDBRANCH   8  11
ENDBRANCH   4   7
BRANCH   1  21
ATOM     21  C   UNL     1       0.059  -4.275  -0.021  0.00  0.00    +0.142 C 
BRANCH  21  26
ATOM     22  C   UNL     1      -0.018   1.503   0.010  0.00  0.00    +0.044 C 
ATOM     23  C   UNL     1       0.002  -0.004   0.002  0.00  0.00    -0.050 A 
ATOM     24  C   UNL     1       0.006  -0.689  -1.199  0.00  0.00    +0.004 A 
ATOM     25  C   UNL     1       0.025  -2.071  -1.206  0.00  0.00    +0.006 A 
ATOM     26  C   UNL     1       0.040  -2.768  -0.013  0.00  0.00    -0.022 A 
ATOM     27  C   UNL     1       0.037  -2.084   1.188  0.00  0.00    +0.006 A 
ATOM     28  C   UNL     1       0.023  -0.702   1.195  0.00  0.00    +0.004 A 
ENDBRANCH  21  26
BRANCH  21  29
ATOM     29  C   UNL     1      -1.332  -4.797   0.230  0.00  0.00    +0.014 A 
ATOM     30  C   UNL     1      -2.241  -5.266  -0.659  0.00  0.00    +0.013 A 
ATOM     31  C   UNL     1      -3.470  -5.698  -0.196  0.00  0.00    +0.008 A 
ATOM     32  C   UNL     1      -3.729  -5.641   1.133  0.00  0.00    +0.045 A 
ATOM     33  S   UNL     1      -2.207  -4.965   1.777  0.00  0.00    -0.099 S 
ENDBRANCH  21  29
ENDBRANCH   1  21
TORSDOF 5
