REMARK  Name = ZINC38915573
REMARK  8 active torsions:
REMARK  status: ('A' for Active; 'I' for Inactive)
REMARK    1  A    between atoms: C_10  and  C_11
REMARK    2  A    between atoms: C_11  and  S_12
REMARK    3  A    between atoms: S_12  and  C_13
REMARK    4  A    between atoms: C_17  and  S_20
REMARK    5  A    between atoms: S_20  and  C_21
REMARK    6  A    between atoms: C_21  and  C_22
REMARK    7  A    between atoms: N_24  and  N_25
REMARK    8  A    between atoms: C_26  and  C_27
REMARK                            x       y       z     vdW  Elec       q    Type
REMARK                         _______ _______ _______ _____ _____    ______ ____
ROOT
ATOM      1  C   UNL     1       7.043   1.393   1.477  0.00  0.00    +0.187 C 
ATOM      2  N   UNL     1       6.850   2.621   0.644  0.00  0.00    -0.232 NA
ATOM      3  N   UNL     1       8.086   3.073   0.040  0.00  0.00    -0.232 NA
ATOM      4  C   UNL     1       9.050   2.006  -0.320  0.00  0.00    +0.187 C 
ATOM      5  S   UNL     1       8.244   0.505   0.388  0.00  0.00    -0.099 S 
ATOM      6  H   UNL     1       6.420   3.358   1.182  0.00  0.00    +0.143 HD
ATOM      7  H   UNL     1       7.903   3.676  -0.749  0.00  0.00    +0.143 HD
ENDROOT
BRANCH   1   8
ATOM      8  S   UNL     1       5.496   0.464   1.661  0.00  0.00    -0.125 S 
BRANCH   8   9
ATOM      9  C   UNL     1       4.960   0.161  -0.046  0.00  0.00    +0.107 C 
BRANCH   9  19
ATOM     10  C   UNL     1      -0.016   1.357   0.009  0.00  0.00    +0.001 A 
ATOM     11  C   UNL     1       1.169   2.091   0.002  0.00  0.00    +0.001 A 
ATOM     12  C   UNL     1       2.378   1.468  -0.013  0.00  0.00    +0.009 A 
ATOM     13  C   UNL     1       2.438   0.064  -0.021  0.00  0.00    -0.014 A 
ATOM     14  C   UNL     1       1.233  -0.683  -0.013  0.00  0.00    -0.018 A 
ATOM     15  C   UNL     1       0.002  -0.004   0.002  0.00  0.00    +0.008 A 
ATOM     16  C   UNL     1       1.292  -2.087  -0.021  0.00  0.00    +0.008 A 
ATOM     17  C   UNL     1       2.502  -2.709  -0.036  0.00  0.00    +0.001 A 
ATOM     18  C   UNL     1       3.687  -1.976  -0.043  0.00  0.00    +0.005 A 
ATOM     19  C   UNL     1       3.668  -0.615  -0.037  0.00  0.00    -0.030 A 
ENDBRANCH   9  19
ENDBRANCH   8   9
ENDBRANCH   1   8
BRANCH   4  20
ATOM     20  S   UNL     1       9.219   1.865  -2.120  0.00  0.00    -0.121 S 
BRANCH  20  21
ATOM     21  C   UNL     1       7.543   1.465  -2.688  0.00  0.00    +0.169 C 
BRANCH  21  22
ATOM     22  C   UNL     1       7.543   1.319  -4.188  0.00  0.00    +0.242 C 
ATOM     23  O   UNL     1       8.572   1.469  -4.812  0.00  0.00    -0.273 OA
ATOM     24  N   UNL     1       6.399   1.021  -4.836  0.00  0.00    -0.206 N 
ATOM     25  H   UNL     1       5.576   0.900  -4.337  0.00  0.00    +0.177 HD
BRANCH  24  26
ATOM     26  N   UNL     1       6.399   0.884  -6.230  0.00  0.00    -0.188 NA
ATOM     27  C   UNL     1       5.288   0.595  -6.859  0.00  0.00    +0.136 C 
BRANCH  27  28
ATOM     28  C   UNL     1       5.287   0.459  -8.255  0.00  0.00    +0.000 C 
ATOM     29  C   UNL     1       4.199   0.161  -9.072  0.00  0.00    +0.004 A 
ATOM     30  C   UNL     1       2.836  -0.085  -8.794  0.00  0.00    +0.010 A 
ATOM     31  C   UNL     1       1.980  -0.355  -9.811  0.00  0.00    +0.001 A 
ATOM     32  C   UNL     1       2.411  -0.399 -11.140  0.00  0.00    +0.002 A 
ATOM     33  C   UNL     1       3.703  -0.173 -11.480  0.00  0.00    +0.026 A 
ATOM     34  C   UNL     1       4.659   0.117 -10.471  0.00  0.00    +0.043 A 
ATOM     35  N   UNL     1       5.949   0.368 -10.539  0.00  0.00    -0.380 N 
ATOM     36  C   UNL     1       6.467   0.610  -9.189  0.00  0.00    +0.150 C 
ATOM     37  H   UNL     1       6.474   0.393 -11.355  0.00  0.00    +0.160 HD
ENDBRANCH  27  28
ENDBRANCH  24  26
ENDBRANCH  21  22
ENDBRANCH  20  21
ENDBRANCH   4  20
TORSDOF 8
