REMARK  Name = ZINC59170618
REMARK  6 active torsions:
REMARK  status: ('A' for Active; 'I' for Inactive)
REMARK    1  A    between atoms: C_3  and  S_30
REMARK    2  A    between atoms: C_6  and  N_7
REMARK    3  A    between atoms: C_9  and  C_19
REMARK    4  A    between atoms: C_14  and  O_18
REMARK    5  A    between atoms: N_21  and  C_22
REMARK    6  A    between atoms: S_30  and  N_33
REMARK                            x       y       z     vdW  Elec       q    Type
REMARK                         _______ _______ _______ _____ _____    ______ ____
ROOT
ATOM      1  N   UNL     1      -1.898  -0.336  -0.372  0.00  0.00    -0.325 N 
ATOM      2  C   UNL     1      -1.549  -1.484  -0.912  0.00  0.00    +0.212 A 
ATOM      3  C   UNL     1      -2.307  -2.720  -0.634  0.00  0.00    +0.098 A 
ATOM      4  C   UNL     1      -2.257  -3.727  -1.588  0.00  0.00    +0.030 A 
ATOM      5  C   UNL     1      -1.461  -3.517  -2.742  0.00  0.00    +0.018 A 
ATOM      6  C   UNL     1      -1.531  -4.408  -3.824  0.00  0.00    +0.015 A 
ATOM      7  C   UNL     1      -0.792  -4.173  -4.946  0.00  0.00    +0.046 A 
ATOM      8  C   UNL     1       0.040  -3.058  -5.025  0.00  0.00    +0.120 A 
ATOM      9  C   UNL     1       0.137  -2.177  -3.958  0.00  0.00    +0.092 A 
ATOM     10  C   UNL     1      -0.600  -2.404  -2.808  0.00  0.00    +0.141 A 
ATOM     11  O   UNL     1      -0.482  -1.572  -1.747  0.00  0.00    -0.438 OA
ATOM     12  H   UNL     1      -2.728  -0.265   0.124  0.00  0.00    +0.169 HD
ENDROOT
BRANCH   1  18
ATOM     13  C   UNL     1      -1.640   1.999  -0.847  0.00  0.00    +0.027 A 
ATOM     14  C   UNL     1      -0.819   3.099  -0.987  0.00  0.00    +0.030 A 
ATOM     15  C   UNL     1       0.546   2.976  -0.795  0.00  0.00    +0.105 A 
ATOM     16  C   UNL     1       1.097   1.751  -0.464  0.00  0.00    +0.030 A 
ATOM     17  C   UNL     1       0.289   0.643  -0.321  0.00  0.00    +0.027 A 
ATOM     18  C   UNL     1      -1.090   0.759  -0.512  0.00  0.00    +0.042 A 
BRANCH  15  19
ATOM     19  S   UNL     1       1.587   4.386  -0.976  0.00  0.00    +0.056 S 
ATOM     20  O   UNL     1       2.885   3.896  -1.281  0.00  0.00    -0.153 OA
ATOM     21  O   UNL     1       0.896   5.294  -1.824  0.00  0.00    -0.153 OA
BRANCH  19  22
ATOM     22  N   UNL     1       1.691   5.111   0.509  0.00  0.00    -0.204 NA
ATOM     23  H   UNL     1       1.218   4.734   1.267  0.00  0.00    +0.144 HD
ATOM     24  H   UNL     1       2.224   5.914   0.620  0.00  0.00    +0.144 HD
ENDBRANCH  19  22
ENDBRANCH  15  19
ENDBRANCH   1  18
BRANCH   3  25
ATOM     25  C   UNL     1      -3.085  -2.877   0.605  0.00  0.00    +0.253 C 
ATOM     26  O   UNL     1      -3.789  -3.858   0.760  0.00  0.00    -0.270 OA
ATOM     27  N   UNL     1      -3.019  -1.936   1.567  0.00  0.00    -0.280 N 
ATOM     28  H   UNL     1      -2.495  -1.132   1.424  0.00  0.00    +0.155 HD
BRANCH  27  29
ATOM     29  C   UNL     1      -3.706  -2.117   2.772  0.00  0.00    +0.054 A 
ATOM     30  C   UNL     1      -4.779  -2.997   2.835  0.00  0.00    +0.044 A 
ATOM     31  C   UNL     1      -5.456  -3.174   4.027  0.00  0.00    +0.043 A 
ATOM     32  C   UNL     1      -5.066  -2.476   5.157  0.00  0.00    +0.021 A 
ATOM     33  C   UNL     1      -3.999  -1.599   5.096  0.00  0.00    +0.023 A 
ATOM     34  C   UNL     1      -3.313  -1.422   3.909  0.00  0.00    +0.062 A 
ATOM     35 CL   UNL     1      -1.968  -0.327   3.837  0.00  0.00    -0.082 Cl
ATOM     36 CL   UNL     1      -6.798  -4.273   4.107  0.00  0.00    -0.083 Cl
ENDBRANCH  27  29
ENDBRANCH   3  25
BRANCH   8  37
ATOM     37  O   UNL     1       0.760  -2.832  -6.153  0.00  0.00    -0.507 OA
ATOM     38  H   UNL     1       0.301  -2.292  -6.811  0.00  0.00    +0.292 HD
ENDBRANCH   8  37
TORSDOF 6
