REMARK  Name = ZINC16120631
REMARK  8 active torsions:
REMARK  status: ('A' for Active; 'I' for Inactive)
REMARK    1  A    between atoms: C_1  and  C_2
REMARK    2  A    between atoms: C_2  and  C_3
REMARK    3  A    between atoms: C_2  and  C_4
REMARK    4  A    between atoms: C_2  and  C_5
REMARK    5  A    between atoms: C_12  and  C_14
REMARK    6  A    between atoms: N_16  and  N_17
REMARK    7  A    between atoms: N_17  and  S_18
REMARK    8  A    between atoms: S_18  and  C_21
REMARK                            x       y       z     vdW  Elec       q    Type
REMARK                         _______ _______ _______ _____ _____    ______ ____
ROOT
ATOM      1  C   UNL     1       5.675   0.174  -3.163  0.00  0.00    +0.265 C 
ATOM      2  O   UNL     1       6.559  -0.654  -3.045  0.00  0.00    -0.268 OA
ATOM      3  N   UNL     1       4.521   0.030  -2.482  0.00  0.00    -0.227 N 
ATOM      4  H   UNL     1       3.816   0.690  -2.577  0.00  0.00    +0.171 HD
ENDROOT
BRANCH   1  11
ATOM      5  C   UNL     1       7.854   4.767  -6.789  0.00  0.00    -0.001 C 
ATOM      6  C   UNL     1       6.449   5.009  -7.346  0.00  0.00    +0.009 C 
ATOM      7  C   UNL     1       5.430   4.824  -6.212  0.00  0.00    +0.043 C 
ATOM      8  C   UNL     1       5.745   3.546  -5.497  0.00  0.00    -0.006 A 
ATOM      9  C   UNL     1       6.897   2.818  -5.582  0.00  0.00    -0.036 A 
ATOM     10  C   UNL     1       6.962   1.663  -4.820  0.00  0.00    +0.024 A 
ATOM     11  C   UNL     1       5.866   1.328  -4.046  0.00  0.00    +0.076 A 
ATOM     12  S   UNL     1       4.747   2.674  -4.398  0.00  0.00    -0.088 S 
ATOM     13  C   UNL     1       8.043   3.282  -6.477  0.00  0.00    +0.040 C 
BRANCH   5  15
ATOM     14  C   UNL     1       8.714   4.387  -9.104  0.00  0.00    +0.011 C 
ATOM     15  C   UNL     1       8.893   5.205  -7.823  0.00  0.00    -0.035 C 
ATOM     16  C   UNL     1       8.706   6.691  -8.136  0.00  0.00    +0.011 C 
ATOM     17  C   UNL     1      10.299   4.975  -7.263  0.00  0.00    +0.011 C 
ENDBRANCH   5  15
ENDBRANCH   1  11
BRANCH   3  18
ATOM     18  N   UNL     1       4.338  -1.074  -1.639  0.00  0.00    -0.108 NA
ATOM     19  H   UNL     1       4.451  -1.973  -1.985  0.00  0.00    +0.172 HD
BRANCH  18  20
ATOM     20  S   UNL     1       3.931  -0.843  -0.050  0.00  0.00    +0.074 S 
ATOM     21  O   UNL     1       4.904   0.039   0.494  0.00  0.00    -0.152 OA
ATOM     22  O   UNL     1       3.679  -2.130   0.496  0.00  0.00    -0.152 OA
BRANCH  20  23
ATOM     23  C   UNL     1       2.397   0.024  -0.026  0.00  0.00    +0.110 A 
ATOM     24  C   UNL     1       1.207  -0.680  -0.016  0.00  0.00    +0.032 A 
ATOM     25  C   UNL     1       0.002  -0.004   0.002  0.00  0.00    +0.051 A 
ATOM     26  C   UNL     1      -0.017   1.383   0.010  0.00  0.00    +0.162 A 
ATOM     27  C   UNL     1       1.179   2.090   0.002  0.00  0.00    +0.164 A 
ATOM     28  C   UNL     1       2.386   1.406  -0.017  0.00  0.00    +0.078 A 
ATOM     29  O   UNL     1       1.184   3.451   0.018  0.00  0.00    -0.485 OA
ATOM     30  C   UNL     1      -0.040   4.103  -0.340  0.00  0.00    +0.270 C 
ATOM     31  C   UNL     1      -1.189   3.413   0.408  0.00  0.00    +0.270 C 
ATOM     32  O   UNL     1      -1.212   2.035   0.019  0.00  0.00    -0.485 OA
ENDBRANCH  20  23
ENDBRANCH  18  20
ENDBRANCH   3  18
TORSDOF 5
