REMARK  Name = ZINC64055368
REMARK  5 active torsions:
REMARK  status: ('A' for Active; 'I' for Inactive)
REMARK    1  A    between atoms: C_1  and  N_2
REMARK    2  A    between atoms: N_2  and  C_3
REMARK    3  A    between atoms: C_4  and  C_6
REMARK    4  A    between atoms: C_12  and  C_14
REMARK    5  A    between atoms: C_19  and  O_20
REMARK                            x       y       z     vdW  Elec       q    Type
REMARK                         _______ _______ _______ _____ _____    ______ ____
ROOT
ATOM      1  C   UNL     1      -1.149  -2.181   0.059  0.00  0.00    +0.092 C 
ATOM      2  C   UNL     1      -2.585  -2.710   0.084  0.00  0.00    +0.016 C 
ATOM      3  C   UNL     1      -2.568  -4.239   0.022  0.00  0.00    +0.020 C 
ATOM      4  C   UNL     1      -1.829  -4.787   1.247  0.00  0.00    +0.108 C 
ATOM      5  N   UNL     1      -0.496  -4.171   1.310  0.00  0.00    -0.297 N 
ATOM      6  C   UNL     1      -0.394  -2.706   1.284  0.00  0.00    +0.120 C 
ATOM      7  C   UNL     1       0.611  -4.936   1.391  0.00  0.00    +0.250 C 
ATOM      8  O   UNL     1       1.711  -4.421   1.337  0.00  0.00    -0.270 OA
ENDROOT
BRANCH   7   9
ATOM      9  C   UNL     1       0.487  -6.398   1.546  0.00  0.00    +0.078 A 
ATOM     10  C   UNL     1      -0.279  -6.934   2.580  0.00  0.00    +0.020 A 
ATOM     11  C   UNL     1      -0.399  -8.306   2.728  0.00  0.00    -0.043 A 
ATOM     12  C   UNL     1       0.240  -9.153   1.846  0.00  0.00    -0.041 A 
ATOM     13  C   UNL     1       1.009  -8.630   0.815  0.00  0.00    +0.050 A 
ATOM     14  C   UNL     1       1.135  -7.261   0.652  0.00  0.00    +0.129 A 
ATOM     15  C   UNL     1       0.136 -10.653   1.944  0.00  0.00    +0.035 C 
ATOM     16  C   UNL     1      -0.357 -11.067   3.329  0.00  0.00    +0.005 C 
ATOM     17  C   UNL     1      -1.627 -10.271   3.650  0.00  0.00    +0.005 C 
ATOM     18  C   UNL     1      -1.238  -8.812   3.873  0.00  0.00    +0.035 C 
BRANCH  14  19
ATOM     19  O   UNL     1       1.883  -6.760  -0.362  0.00  0.00    -0.506 OA
ATOM     20  H   UNL     1       2.813  -6.621  -0.134  0.00  0.00    +0.292 HD
ENDBRANCH  14  19
ENDBRANCH   7   9
BRANCH   1  24
ATOM     21  C   UNL     1      -0.027   1.479   0.102  0.00  0.00    +0.131 C 
ATOM     22  N   UNL     1      -0.009   0.015   0.075  0.00  0.00    -0.307 N 
ATOM     23  C   UNL     1       1.269  -0.702   0.034  0.00  0.00    +0.131 C 
ATOM     24  C   UNL     1      -1.167  -0.674   0.087  0.00  0.00    +0.220 C 
ATOM     25  O   UNL     1      -2.225  -0.081   0.121  0.00  0.00    -0.275 OA
ENDBRANCH   1  24
TORSDOF 3
