REMARK  Name = ZINC21225469
REMARK  7 active torsions:
REMARK  status: ('A' for Active; 'I' for Inactive)
REMARK    1  A    between atoms: C_1  and  C_2
REMARK    2  A    between atoms: C_2  and  O_3
REMARK    3  A    between atoms: O_3  and  C_4
REMARK    4  A    between atoms: C_7  and  C_12
REMARK    5  A    between atoms: C_9  and  O_10
REMARK    6  A    between atoms: O_10  and  C_11
REMARK    7  A    between atoms: C_17  and  C_27
REMARK                            x       y       z     vdW  Elec       q    Type
REMARK                         _______ _______ _______ _____ _____    ______ ____
ROOT
ATOM      1  C   UNL     1       1.699   6.666  -1.604  0.00  0.00    +0.032 C 
ATOM      2  C   UNL     1       0.834   5.475  -1.197  0.00  0.00    +0.059 C 
ATOM      3  C   UNL     1       1.717   4.282  -0.872  0.00  0.00    +0.017 C 
ATOM      4  C   UNL     1       2.874   4.093  -1.529  0.00  0.00    +0.039 C 
ATOM      5  C   UNL     1       3.830   2.942  -1.328  0.00  0.00    +0.172 C 
ATOM      6  N   UNL     1       3.561   2.135  -0.156  0.00  0.00    -0.329 N 
ATOM      7  C   UNL     1       2.386   1.392  -0.046  0.00  0.00    +0.049 A 
ATOM      8  C   UNL     1       2.403   0.007  -0.037  0.00  0.00    +0.025 A 
ATOM      9  C   UNL     1       1.205  -0.686  -0.013  0.00  0.00    +0.002 A 
ATOM     10  C   UNL     1       0.002  -0.004   0.002  0.00  0.00    +0.002 A 
ATOM     11  C   UNL     1      -0.017   1.380   0.010  0.00  0.00    +0.025 A 
ATOM     12  C   UNL     1       1.181   2.076   0.002  0.00  0.00    +0.052 A 
ATOM     13  N   UNL     1       1.234   3.461   0.094  0.00  0.00    -0.316 N 
ATOM     14  C   UNL     1       3.296   5.024  -2.508  0.00  0.00    +0.163 C 
ATOM     15  O   UNL     1       4.337   4.817  -3.102  0.00  0.00    -0.292 OA
ATOM     16  C   UNL     1       2.508   6.255  -2.840  0.00  0.00    +0.088 C 
ATOM     17  H   UNL     1       4.290   2.101   0.667  0.00  0.00    +0.147 HD
ATOM     18  H   UNL     1       0.847   3.884   1.033  0.00  0.00    +0.152 HD
ENDROOT
BRANCH   1  22
ATOM     19  C   UNL     1      -0.796  10.007  -2.556  0.00  0.00    +0.162 A 
ATOM     20  C   UNL     1      -0.915   8.824  -3.268  0.00  0.00    +0.050 A 
ATOM     21  C   UNL     1      -0.107   7.746  -2.959  0.00  0.00    +0.008 A 
ATOM     22  C   UNL     1       0.821   7.845  -1.938  0.00  0.00    -0.040 A 
ATOM     23  C   UNL     1       0.941   9.020  -1.220  0.00  0.00    +0.053 A 
ATOM     24  C   UNL     1       0.138  10.106  -1.529  0.00  0.00    +0.162 A 
BRANCH  24  25
ATOM     25  O   UNL     1       0.258  11.264  -0.827  0.00  0.00    -0.491 OA
ATOM     26  C   UNL     1       1.238  11.294   0.213  0.00  0.00    +0.277 C 
ENDBRANCH  24  25
BRANCH  19  27
ATOM     27  O   UNL     1      -1.591  11.068  -2.859  0.00  0.00    -0.489 OA
BRANCH  27  29
ATOM     28  C   UNL     1      -3.326  12.184  -4.117  0.00  0.00    +0.048 C 
ATOM     29  C   UNL     1      -2.528  10.894  -3.924  0.00  0.00    +0.226 C 
ENDBRANCH  27  29
ENDBRANCH  19  27
ENDBRANCH   1  22
BRANCH   5  30
ATOM     30  C   UNL     1       3.771   2.054  -2.543  0.00  0.00    +0.130 A 
ATOM     31  C   UNL     1       4.651   2.052  -3.560  0.00  0.00    +0.047 A 
ATOM     32  C   UNL     1       4.216   1.067  -4.477  0.00  0.00    +0.041 A 
ATOM     33  C   UNL     1       3.091   0.533  -3.970  0.00  0.00    +0.195 A 
ATOM     34  O   UNL     1       2.826   1.134  -2.798  0.00  0.00    -0.466 OA
ENDBRANCH   5  30
TORSDOF 5
