REMARK  Name = ZINC00339602
REMARK  4 active torsions:
REMARK  status: ('A' for Active; 'I' for Inactive)
REMARK    1  A    between atoms: C_1  and  N_2
REMARK    2  A    between atoms: N_2  and  C_3
REMARK    3  A    between atoms: N_7  and  C_17
REMARK    4  A    between atoms: N_10  and  C_11
REMARK                            x       y       z     vdW  Elec       q    Type
REMARK                         _______ _______ _______ _____ _____    ______ ____
ROOT
ATOM      1  C   UNL     1      -1.171  -0.701  -0.192  0.00  0.00    +0.108 A 
ATOM      2  C   UNL     1      -1.163  -2.068  -0.194  0.00  0.00    +0.112 A 
ATOM      3  C   UNL     1      -2.387  -2.757  -0.192  0.00  0.00    +0.259 A 
ATOM      4  O   UNL     1      -2.404  -3.976  -0.193  0.00  0.00    -0.267 OA
ATOM      5  N   UNL     1      -3.542  -2.062  -0.189  0.00  0.00    -0.258 N 
ATOM      6  C   UNL     1      -3.531  -0.717  -0.187  0.00  0.00    +0.334 A 
ATOM      7  O   UNL     1      -4.584  -0.110  -0.184  0.00  0.00    -0.246 OA
ATOM      8  N   UNL     1      -2.372  -0.033  -0.183  0.00  0.00    -0.279 N 
ENDROOT
BRANCH   8   9
ATOM      9  C   UNL     1      -2.390   1.432  -0.174  0.00  0.00    +0.093 C 
ATOM     10  C   UNL     1      -3.106   1.925   1.085  0.00  0.00    +0.025 C 
ATOM     11  C   UNL     1      -3.125   3.455   1.093  0.00  0.00    +0.002 C 
ATOM     12  C   UNL     1      -3.864   3.963  -0.146  0.00  0.00    +0.000 C 
ATOM     13  C   UNL     1      -3.148   3.470  -1.405  0.00  0.00    +0.002 C 
ATOM     14  C   UNL     1      -3.129   1.940  -1.414  0.00  0.00    +0.025 C 
ENDBRANCH   8   9
BRANCH   5  15
ATOM     15  C   UNL     1      -4.820  -2.778  -0.188  0.00  0.00    +0.095 C 
ATOM     16  C   UNL     1      -4.910  -3.659   1.060  0.00  0.00    +0.025 C 
ATOM     17  C   UNL     1      -6.245  -4.406   1.062  0.00  0.00    +0.002 C 
ATOM     18  C   UNL     1      -6.340  -5.283  -0.189  0.00  0.00    +0.000 C 
ATOM     19  C   UNL     1      -6.249  -4.402  -1.437  0.00  0.00    +0.002 C 
ATOM     20  C   UNL     1      -4.914  -3.655  -1.438  0.00  0.00    +0.025 C 
ENDBRANCH   5  15
BRANCH   1  22
ATOM     21  C   UNL     1       1.282  -0.717  -0.318  0.00  0.00    +0.127 C 
ATOM     22  N   UNL     1       0.009  -0.003  -0.193  0.00  0.00    -0.333 N 
ATOM     23  H   UNL     1       0.001   0.964  -0.112  0.00  0.00    +0.147 HD
ENDBRANCH   1  22
TORSDOF 3
