REMARK  Name = ZINC22851763
REMARK  5 active torsions:
REMARK  status: ('A' for Active; 'I' for Inactive)
REMARK    1  A    between atoms: C_4  and  C_7
REMARK    2  A    between atoms: C_7  and  C_9
REMARK    3  A    between atoms: C_7  and  N_23
REMARK    4  A    between atoms: C_15  and  C_17
REMARK    5  A    between atoms: C_26  and  C_29
REMARK                            x       y       z     vdW  Elec       q    Type
REMARK                         _______ _______ _______ _____ _____    ______ ____
ROOT
ATOM      1  C   UNL     1      -8.386   0.319   0.037  0.00  0.00    +0.006 C 
ENDROOT
BRANCH   1   2
ATOM      2  C   UNL     1      -6.882   0.276   0.134  0.00  0.00    +0.050 A 
ATOM      3  C   UNL     1      -6.016   1.287   0.261  0.00  0.00    +0.282 A 
ATOM      4  N   UNL     1      -4.665   1.048   0.335  0.00  0.00    -0.169 N 
ATOM      5  C   UNL     1      -4.258  -0.257   0.271  0.00  0.00    +0.200 A 
ATOM      6  S   UNL     1      -5.792  -1.139   0.108  0.00  0.00    -0.050 S 
ATOM      7  N   UNL     1      -2.959  -0.317   0.348  0.00  0.00    -0.197 NA
ATOM      8  C   UNL     1      -2.464   0.922   0.472  0.00  0.00    +0.218 A 
ATOM      9  N   UNL     1      -3.459   1.784   0.466  0.00  0.00    -0.138 NA
ATOM     10  O   UNL     1      -6.477   2.566   0.320  0.00  0.00    -0.265 OA
BRANCH   8  11
ATOM     11  C   UNL     1      -1.032   1.267   0.591  0.00  0.00    +0.173 A 
ATOM     12  C   UNL     1       0.003   0.385   0.599  0.00  0.00    +0.053 A 
ATOM     13  C   UNL     1       1.183   1.145   0.723  0.00  0.00    +0.042 A 
ATOM     14  C   UNL     1       0.814   2.439   0.791  0.00  0.00    +0.196 A 
ATOM     15  O   UNL     1      -0.525   2.509   0.714  0.00  0.00    -0.460 OA
ENDBRANCH   8  11
ENDBRANCH   1   2
BRANCH   1  16
ATOM     16  N   UNL     1      -8.832  -0.559  -1.053  0.00  0.00    +0.387 N 
ATOM     17  C   UNL     1      -8.197  -0.186  -2.323  0.00  0.00    -0.077 C 
ATOM     18  C   UNL     1      -8.570  -1.207  -3.401  0.00  0.00    -0.006 C 
ATOM     19  C   UNL     1     -10.092  -1.241  -3.560  0.00  0.00    +0.071 C 
ATOM     20  C   UNL     1     -10.731  -1.585  -2.211  0.00  0.00    -0.006 C 
ATOM     21  C   UNL     1     -10.296  -0.553  -1.168  0.00  0.00    -0.077 C 
ATOM     22  H   UNL     1      -8.519  -1.586  -0.811  0.00  0.00    -0.080 HD
BRANCH  19  23
ATOM     23  C   UNL     1     -10.470  -2.286  -4.577  0.00  0.00    +0.213 C 
ATOM     24  O   UNL     1     -11.181  -3.216  -4.257  0.00  0.00    -0.276 OA
ATOM     25  N   UNL     1     -10.019  -2.188  -5.844  0.00  0.00    -0.329 N 
ATOM     26  H   UNL     1     -10.295  -2.951  -6.586  0.00  0.00    +0.145 HD
ATOM     27  H   UNL     1      -9.375  -1.345  -6.134  0.00  0.00    +0.145 HD
ENDBRANCH  19  23
ENDBRANCH   1  16
BRANCH   1  31
ATOM     28  C   UNL     1     -10.089  -1.007   3.723  0.00  0.00    +0.000 A 
ATOM     29  C   UNL     1     -10.111   0.335   3.395  0.00  0.00    +0.000 A 
ATOM     30  C   UNL     1      -9.560   0.765   2.202  0.00  0.00    +0.002 A 
ATOM     31  C   UNL     1      -8.986  -0.149   1.337  0.00  0.00    -0.056 A 
ATOM     32  C   UNL     1      -8.969  -1.492   1.663  0.00  0.00    +0.002 A 
ATOM     33  C   UNL     1      -9.516  -1.921   2.858  0.00  0.00    +0.000 A 
ENDBRANCH   1  31
TORSDOF 5
