REMARK  Name = ZINC30982814
REMARK  7 active torsions:
REMARK  status: ('A' for Active; 'I' for Inactive)
REMARK    1  A    between atoms: C_4  and  C_7
REMARK    2  A    between atoms: C_8  and  C_9
REMARK    3  A    between atoms: C_9  and  N_10
REMARK    4  A    between atoms: C_16  and  C_18
REMARK    5  A    between atoms: N_21  and  C_24
REMARK    6  A    between atoms: C_24  and  C_25
REMARK    7  A    between atoms: C_27  and  C_30
REMARK                            x       y       z     vdW  Elec       q    Type
REMARK                         _______ _______ _______ _____ _____    ______ ____
ROOT
ATOM      1  C   UNL     1       0.703  -2.260  -5.770  0.00  0.00    +0.072 C 
ATOM      2  C   UNL     1      -0.693  -1.713  -5.463  0.00  0.00    -0.006 C 
ATOM      3  C   UNL     1      -1.372  -1.298  -6.770  0.00  0.00    -0.077 C 
ATOM      4  N   UNL     1      -1.468  -2.459  -7.663  0.00  0.00    +0.386 N 
ATOM      5  C   UNL     1      -0.137  -2.973  -8.011  0.00  0.00    -0.077 C 
ATOM      6  C   UNL     1       0.579  -3.438  -6.741  0.00  0.00    -0.006 C 
ATOM      7  H   UNL     1      -2.004  -3.254  -7.124  0.00  0.00    -0.081 HD
ENDROOT
BRANCH   1  14
ATOM      8  N   UNL     1       4.029  -0.329  -2.569  0.00  0.00    -0.296 NA
ATOM      9  C   UNL     1       3.977  -1.773  -2.305  0.00  0.00    +0.103 C 
ATOM     10  C   UNL     1       2.525  -2.253  -2.390  0.00  0.00    +0.123 C 
ATOM     11  N   UNL     1       1.971  -1.838  -3.688  0.00  0.00    -0.299 N 
ATOM     12  C   UNL     1       2.107  -0.428  -4.084  0.00  0.00    +0.123 C 
ATOM     13  C   UNL     1       3.576  -0.020  -3.932  0.00  0.00    +0.103 C 
ATOM     14  C   UNL     1       1.354  -2.726  -4.493  0.00  0.00    +0.219 C 
ATOM     15  O   UNL     1       1.323  -3.900  -4.190  0.00  0.00    -0.275 OA
BRANCH   8  16
ATOM     16  C   UNL     1       5.377   0.202  -2.328  0.00  0.00    +0.111 C 
BRANCH  16  18
ATOM     17  C   UNL     1       6.805  -0.554  -0.480  0.00  0.00    +0.005 C 
ATOM     18  C   UNL     1       5.709   0.086  -0.863  0.00  0.00    -0.011 C 
BRANCH  17  22
ATOM     19  C   UNL     1       7.740  -0.881   3.650  0.00  0.00    +0.000 A 
ATOM     20  C   UNL     1       8.582  -1.443   2.706  0.00  0.00    +0.001 A 
ATOM     21  C   UNL     1       8.284  -1.340   1.363  0.00  0.00    +0.008 A 
ATOM     22  C   UNL     1       7.130  -0.668   0.957  0.00  0.00    -0.025 A 
ATOM     23  C   UNL     1       6.289  -0.099   1.913  0.00  0.00    +0.008 A 
ATOM     24  C   UNL     1       6.595  -0.214   3.254  0.00  0.00    +0.001 A 
ENDBRANCH  17  22
ENDBRANCH  16  18
ENDBRANCH   8  16
ENDBRANCH   1  14
BRANCH   4  25
ATOM     25  C   UNL     1      -2.238  -2.132  -8.871  0.00  0.00    +0.022 C 
BRANCH  25  26
ATOM     26  C   UNL     1      -3.668  -1.845  -8.493  0.00  0.00    +0.211 A 
ATOM     27  N   UNL     1      -4.169  -0.678  -8.173  0.00  0.00    -0.193 NA
ATOM     28  C   UNL     1      -5.477  -0.903  -7.914  0.00  0.00    +0.202 A 
ATOM     29  N   UNL     1      -5.691  -2.181  -8.090  0.00  0.00    -0.056 NA
ATOM     30  O   UNL     1      -4.665  -2.733  -8.427  0.00  0.00    -0.340 OA
BRANCH  28  31
ATOM     31  C   UNL     1      -6.481   0.111  -7.505  0.00  0.00    +0.023 A 
ATOM     32  C   UNL     1      -6.105   1.443  -7.350  0.00  0.00    +0.014 A 
ATOM     33  C   UNL     1      -7.043   2.383  -6.974  0.00  0.00    +0.039 A 
ATOM     34  C   UNL     1      -8.354   2.002  -6.742  0.00  0.00    +0.123 A 
ATOM     35  C   UNL     1      -8.731   0.676  -6.890  0.00  0.00    +0.039 A 
ATOM     36  C   UNL     1      -7.801  -0.269  -7.271  0.00  0.00    +0.014 A 
ATOM     37  F   UNL     1      -9.268   2.924  -6.370  0.00  0.00    -0.205 F 
ENDBRANCH  28  31
ENDBRANCH  25  26
ENDBRANCH   4  25
TORSDOF 7
