REMARK  Name = ZINC38534611
REMARK  5 active torsions:
REMARK  status: ('A' for Active; 'I' for Inactive)
REMARK    1  A    between atoms: C_1  and  C_2
REMARK    2  A    between atoms: C_7  and  C_8
REMARK    3  A    between atoms: N_9  and  C_12
REMARK    4  A    between atoms: C_12  and  C_13
REMARK    5  A    between atoms: C_19  and  C_21
REMARK                            x       y       z     vdW  Elec       q    Type
REMARK                         _______ _______ _______ _____ _____    ______ ____
ROOT
ATOM      1  C   UNL     1      -0.649  -5.703   1.777  0.00  0.00    +0.012 C 
ATOM      2  C   UNL     1      -1.240  -4.529   2.562  0.00  0.00    +0.024 C 
ATOM      3  C   UNL     1      -2.766  -4.659   2.595  0.00  0.00    +0.108 C 
ATOM      4  N   UNL     1      -3.117  -5.981   3.131  0.00  0.00    -0.298 N 
ATOM      5  C   UNL     1      -2.531  -7.175   2.506  0.00  0.00    +0.108 C 
ATOM      6  C   UNL     1      -1.008  -7.017   2.474  0.00  0.00    +0.024 C 
ATOM      7  C   UNL     1      -3.960  -6.096   4.176  0.00  0.00    +0.247 C 
ATOM      8  O   UNL     1      -4.298  -7.197   4.565  0.00  0.00    -0.270 OA
ENDROOT
BRANCH   7   9
ATOM      9  C   UNL     1      -4.474  -4.886   4.847  0.00  0.00    +0.039 A 
ATOM     10  C   UNL     1      -4.374  -4.763   6.240  0.00  0.00    +0.015 A 
ATOM     11  C   UNL     1      -4.845  -3.650   6.872  0.00  0.00    +0.028 A 
ATOM     12  C   UNL     1      -5.430  -2.625   6.137  0.00  0.00    +0.066 A 
ATOM     13  C   UNL     1      -5.539  -2.731   4.739  0.00  0.00    +0.089 A 
ATOM     14  C   UNL     1      -5.051  -3.868   4.095  0.00  0.00    +0.043 A 
ATOM     15  N   UNL     1      -6.143  -1.595   4.301  0.00  0.00    -0.236 NA
ATOM     16  C   UNL     1      -6.404  -0.823   5.315  0.00  0.00    +0.197 A 
ATOM     17  N   UNL     1      -5.986  -1.409   6.470  0.00  0.00    -0.344 N 
ATOM     18  H   UNL     1      -6.065  -1.038   7.363  0.00  0.00    +0.167 HD
ENDBRANCH   7   9
BRANCH   1  19
ATOM     19  C   UNL     1       0.872  -5.559   1.712  0.00  0.00    +0.127 C 
BRANCH  19  28
ATOM     20  C   UNL     1       1.800   1.145   1.935  0.00  0.00    +0.044 C 
ATOM     21  C   UNL     1       1.625  -0.340   1.746  0.00  0.00    -0.045 A 
ATOM     22  C   UNL     1       1.818  -0.892   0.511  0.00  0.00    +0.033 A 
ATOM     23  C   UNL     1       1.658  -2.268   0.330  0.00  0.00    +0.089 A 
ATOM     24  C   UNL     1       1.298  -3.071   1.425  0.00  0.00    +0.069 A 
ATOM     25  C   UNL     1       1.106  -2.493   2.673  0.00  0.00    +0.031 A 
ATOM     26  C   UNL     1       1.275  -1.134   2.828  0.00  0.00    -0.045 A 
ATOM     27  C   UNL     1       1.072  -0.505   4.183  0.00  0.00    +0.044 C 
ATOM     28  N   UNL     1       1.217  -4.362   0.941  0.00  0.00    -0.330 N 
ATOM     29  C   UNL     1       1.518  -4.316  -0.385  0.00  0.00    +0.200 A 
ATOM     30  N   UNL     1       1.776  -3.092  -0.743  0.00  0.00    -0.236 NA
ENDBRANCH  19  28
ENDBRANCH   1  19
TORSDOF 3
