REMARK  Name = ZINC39495630
REMARK  10 active torsions:
REMARK  status: ('A' for Active; 'I' for Inactive)
REMARK    1  A    between atoms: C_4  and  O_7
REMARK    2  A    between atoms: O_7  and  S_8
REMARK    3  A    between atoms: S_8  and  C_11
REMARK    4  A    between atoms: C_14  and  C_25
REMARK    5  A    between atoms: C_15  and  C_18
REMARK    6  A    between atoms: C_16  and  O_17
REMARK    7  A    between atoms: C_23  and  O_24
REMARK    8  A    between atoms: C_25  and  C_27
REMARK    9  A    between atoms: C_25  and  N_30
REMARK   10  A    between atoms: C_27  and  C_28
REMARK                            x       y       z     vdW  Elec       q    Type
REMARK                         _______ _______ _______ _____ _____    ______ ____
ROOT
ATOM      1  C   UNL     1       3.486  -2.642   1.968  0.00  0.00    +0.170 A 
ATOM      2  C   UNL     1       2.421  -2.223   2.745  0.00  0.00    +0.034 A 
ATOM      3  C   UNL     1       1.531  -3.146   3.264  0.00  0.00    +0.008 A 
ATOM      4  C   UNL     1       1.698  -4.493   3.010  0.00  0.00    -0.015 A 
ATOM      5  C   UNL     1       2.768  -4.925   2.229  0.00  0.00    +0.034 A 
ATOM      6  C   UNL     1       3.663  -3.989   1.701  0.00  0.00    +0.153 A 
ENDROOT
BRANCH   5   7
ATOM      7  C   UNL     1       2.953  -6.370   1.954  0.00  0.00    +0.027 A 
ATOM      8  C   UNL     1       2.445  -6.931   0.784  0.00  0.00    +0.012 A 
ATOM      9  C   UNL     1       2.620  -8.276   0.532  0.00  0.00    +0.001 A 
ATOM     10  C   UNL     1       3.299  -9.072   1.438  0.00  0.00    +0.004 A 
ATOM     11  C   UNL     1       3.807  -8.526   2.602  0.00  0.00    +0.046 A 
ATOM     12  C   UNL     1       3.643  -7.176   2.865  0.00  0.00    +0.125 A 
BRANCH  12  13
ATOM     13  O   UNL     1       4.146  -6.637   4.006  0.00  0.00    -0.506 OA
ATOM     14  H   UNL     1       3.564  -6.727   4.773  0.00  0.00    +0.292 HD
ENDBRANCH  12  13
ENDBRANCH   5   7
BRANCH   1  15
ATOM     15  S   UNL     1       4.615  -1.459   1.312  0.00  0.00    +0.154 S 
ATOM     16  O   UNL     1       5.832  -2.151   1.067  0.00  0.00    -0.131 OA
ATOM     17  O   UNL     1       4.544  -0.318   2.157  0.00  0.00    -0.131 OA
BRANCH  15  18
ATOM     18  O   UNL     1       4.078  -1.029  -0.045  0.00  0.00    -0.342 OA
BRANCH  18  22
ATOM     19  C   UNL     1       0.843   1.523   0.159  0.00  0.00    +0.000 A 
ATOM     20  C   UNL     1       2.127   2.037   0.130  0.00  0.00    +0.004 A 
ATOM     21  C   UNL     1       3.212   1.184   0.061  0.00  0.00    +0.048 A 
ATOM     22  C   UNL     1       3.012  -0.188   0.022  0.00  0.00    +0.157 A 
ATOM     23  C   UNL     1       1.724  -0.701   0.052  0.00  0.00    +0.048 A 
ATOM     24  C   UNL     1       0.642   0.156   0.120  0.00  0.00    +0.004 A 
ENDBRANCH  18  22
ENDBRANCH  15  18
ENDBRANCH   1  15
BRANCH   6  25
ATOM     25  O   UNL     1       4.705  -4.401   0.934  0.00  0.00    -0.504 OA
ATOM     26  H   UNL     1       5.509  -4.597   1.435  0.00  0.00    +0.292 HD
ENDBRANCH   6  25
BRANCH   4  27
ATOM     27  C   UNL     1       0.726  -5.494   3.579  0.00  0.00    +0.110 C 
BRANCH  27  28
ATOM     28  N   UNL     1      -0.147  -5.988   2.511  0.00  0.00    -0.311 N 
ATOM     29  C   UNL     1      -0.883  -5.121   1.788  0.00  0.00    +0.326 C 
ATOM     30  O   UNL     1      -0.754  -3.927   1.958  0.00  0.00    -0.280 OA
ATOM     31  H   UNL     1      -0.195  -6.938   2.324  0.00  0.00    +0.149 HD
ENDBRANCH  27  28
BRANCH  27  32
ATOM     32  C   UNL     1      -0.121  -4.824   4.662  0.00  0.00    +0.097 C 
BRANCH  32  33
ATOM     33  C   UNL     1      -1.020  -5.850   5.303  0.00  0.00    +0.225 C 
ATOM     34  O   UNL     1      -1.000  -6.007   6.500  0.00  0.00    -0.301 OA
ENDBRANCH  32  33
ENDBRANCH  27  32
ENDBRANCH   4  27
TORSDOF 10
