REMARK  Name = ZINC43337827
REMARK  7 active torsions:
REMARK  status: ('A' for Active; 'I' for Inactive)
REMARK    1  A    between atoms: C_1  and  C_2
REMARK    2  A    between atoms: C_2  and  C_3
REMARK    3  A    between atoms: C_3  and  C_5
REMARK    4  A    between atoms: C_3  and  N_21
REMARK    5  A    between atoms: C_5  and  C_7
REMARK    6  A    between atoms: C_5  and  O_12
REMARK    7  A    between atoms: O_12  and  C_13
REMARK                            x       y       z     vdW  Elec       q    Type
REMARK                         _______ _______ _______ _____ _____    ______ ____
ROOT
ATOM      1  C   UNL     1       0.672  -2.100   1.295  0.00  0.00    +0.224 C 
ENDROOT
BRANCH   1   2
ATOM      2  C   UNL     1       1.413  -2.788   2.413  0.00  0.00    +0.143 A 
ATOM      3  C   UNL     1       2.666  -3.271   2.345  0.00  0.00    +0.048 A 
ATOM      4  C   UNL     1       2.959  -3.830   3.611  0.00  0.00    +0.041 A 
ATOM      5  C   UNL     1       1.866  -3.655   4.376  0.00  0.00    +0.195 A 
ATOM      6  O   UNL     1       0.935  -3.019   3.647  0.00  0.00    -0.464 OA
ENDBRANCH   1   2
BRANCH   1   7
ATOM      7  C   UNL     1       0.839  -0.586   1.429  0.00  0.00    -0.026 C 
BRANCH   7   8
ATOM      8  N   UNL     1       2.266  -0.242   1.356  0.00  0.00    +0.383 N 
ATOM      9  H   UNL     1       2.376   0.757   1.444  0.00  0.00    -0.089 HD
ATOM     10  H   UNL     1       2.762  -0.703   2.104  0.00  0.00    -0.089 HD
ATOM     11  H   UNL     1       2.639  -0.544   0.469  0.00  0.00    -0.089 HD
ENDBRANCH   7   8
BRANCH   7  13
ATOM     12  C   UNL     1       0.150   1.628   0.499  0.00  0.00    +0.002 C 
ATOM     13  C   UNL     1       0.087   0.113   0.295  0.00  0.00    -0.016 C 
ENDBRANCH   7  13
ENDBRANCH   1   7
BRANCH   1  14
ATOM     14  O   UNL     1      -0.716  -2.434   1.367  0.00  0.00    -0.483 OA
BRANCH  14  15
ATOM     15  C   UNL     1      -1.385  -2.547   0.189  0.00  0.00    +0.124 A 
ATOM     16  C   UNL     1      -0.709  -2.388  -1.012  0.00  0.00    +0.065 A 
ATOM     17  C   UNL     1      -1.391  -2.502  -2.208  0.00  0.00    +0.046 A 
ATOM     18  C   UNL     1      -2.748  -2.775  -2.209  0.00  0.00    +0.040 A 
ATOM     19  C   UNL     1      -3.424  -2.934  -1.012  0.00  0.00    +0.046 A 
ATOM     20  C   UNL     1      -2.743  -2.826   0.186  0.00  0.00    +0.065 A 
ATOM     21 CL   UNL     1      -5.126  -3.276  -1.016  0.00  0.00    -0.083 Cl
ATOM     22 CL   UNL     1      -0.546  -2.304  -3.712  0.00  0.00    -0.083 Cl
ENDBRANCH  14  15
ENDBRANCH   1  14
TORSDOF 6
