REMARK  Name = ZINC47381425
REMARK  7 active torsions:
REMARK  status: ('A' for Active; 'I' for Inactive)
REMARK    1  A    between atoms: C_1  and  C_2
REMARK    2  A    between atoms: C_2  and  C_3
REMARK    3  A    between atoms: C_6  and  N_9
REMARK    4  A    between atoms: C_11  and  C_16
REMARK    5  A    between atoms: N_18  and  C_19
REMARK    6  A    between atoms: C_21  and  C_27
REMARK    7  A    between atoms: C_24  and  C_25
REMARK                            x       y       z     vdW  Elec       q    Type
REMARK                         _______ _______ _______ _____ _____    ______ ____
ROOT
ATOM      1  C   UNL     1       5.567  -2.501  -6.768  0.00  0.00    +0.222 C 
ATOM      2  O   UNL     1       6.253  -1.588  -6.360  0.00  0.00    -0.275 OA
ATOM      3  N   UNL     1       5.921  -3.162  -7.888  0.00  0.00    -0.285 N 
ATOM      4  H   UNL     1       5.343  -3.855  -8.245  0.00  0.00    +0.155 HD
ENDROOT
BRANCH   3   5
ATOM      5  C   UNL     1       7.122  -2.849  -8.535  0.00  0.00    +0.040 A 
ATOM      6  C   UNL     1       7.677  -1.587  -8.393  0.00  0.00    +0.036 A 
ATOM      7  C   UNL     1       8.873  -1.278  -9.039  0.00  0.00    +0.041 A 
ATOM      8  C   UNL     1       9.506  -2.243  -9.825  0.00  0.00    +0.051 A 
ATOM      9  C   UNL     1       8.945  -3.499  -9.961  0.00  0.00    +0.129 A 
ATOM     10  C   UNL     1       7.760  -3.805  -9.315  0.00  0.00    +0.006 A 
ATOM     11  C   UNL     1       7.157  -5.179  -9.462  0.00  0.00    +0.048 C 
ATOM     12  F   UNL     1       9.558  -4.432 -10.723  0.00  0.00    -0.205 F 
BRANCH   7  13
ATOM     13  C   UNL     1       9.470   0.066  -8.892  0.00  0.00    +0.242 C 
ATOM     14  O   UNL     1       8.918   0.905  -8.207  0.00  0.00    -0.270 OA
ATOM     15  N   UNL     1      10.627   0.362  -9.517  0.00  0.00    -0.325 N 
ATOM     16  H   UNL     1      11.068  -0.307 -10.064  0.00  0.00    +0.145 HD
ATOM     17  H   UNL     1      11.019   1.244  -9.421  0.00  0.00    +0.145 HD
ENDBRANCH   7  13
ENDBRANCH   3   5
BRANCH   1  20
ATOM     18  N   UNL     1       2.663  -1.812  -4.669  0.00  0.00    -0.271 N 
ATOM     19  C   UNL     1       4.113  -2.007  -4.776  0.00  0.00    +0.127 C 
ATOM     20  C   UNL     1       4.319  -2.897  -6.021  0.00  0.00    +0.102 C 
ATOM     21  C   UNL     1       3.053  -2.578  -6.850  0.00  0.00    +0.110 C 
ATOM     22  C   UNL     1       2.042  -2.125  -5.820  0.00  0.00    +0.221 C 
ATOM     23  O   UNL     1       0.846  -2.052  -6.006  0.00  0.00    -0.275 OA
BRANCH  18  27
ATOM     24  C   UNL     1       0.716  -0.476  -1.236  0.00  0.00    -0.048 A 
ATOM     25  C   UNL     1       0.002  -0.665  -2.405  0.00  0.00    +0.005 A 
ATOM     26  C   UNL     1       0.644  -1.108  -3.545  0.00  0.00    +0.024 A 
ATOM     27  C   UNL     1       2.009  -1.363  -3.517  0.00  0.00    +0.036 A 
ATOM     28  C   UNL     1       2.724  -1.171  -2.341  0.00  0.00    +0.024 A 
ATOM     29  C   UNL     1       2.076  -0.724  -1.206  0.00  0.00    +0.005 A 
BRANCH  24  31
ATOM     30  C   UNL     1       0.032   1.536   0.040  0.00  0.00    +0.009 C 
ATOM     31  C   UNL     1       0.012   0.006   0.005  0.00  0.00    +0.032 C 
ENDBRANCH  24  31
ENDBRANCH  18  27
ENDBRANCH   1  20
TORSDOF 5
