REMARK  Name = ZINC01379167
REMARK  6 active torsions:
REMARK  status: ('A' for Active; 'I' for Inactive)
REMARK    1  A    between atoms: C_4  and  N_7
REMARK    2  A    between atoms: N_7  and  C_8
REMARK    3  A    between atoms: C_14  and  C_16
REMARK    4  A    between atoms: C_16  and  S_17
REMARK    5  A    between atoms: S_17  and  C_18
REMARK    6  A    between atoms: C_24  and  N_28
REMARK                            x       y       z     vdW  Elec       q    Type
REMARK                         _______ _______ _______ _____ _____    ______ ____
ROOT
ATOM      1  N   UNL     1      -0.026   1.328   0.080  0.00  0.00    -0.240 N 
ATOM      2  C   UNL     1      -1.142   2.071   0.224  0.00  0.00    +0.234 C 
ATOM      3  O   UNL     1      -2.231   1.538   0.208  0.00  0.00    -0.274 OA
ENDROOT
BRANCH   1   7
ATOM      4  C   UNL     1      -0.327  -2.746  -0.742  0.00  0.00    +0.000 A 
ATOM      5  C   UNL     1       0.178  -1.885  -1.698  0.00  0.00    +0.002 A 
ATOM      6  C   UNL     1       0.280  -0.534  -1.429  0.00  0.00    +0.024 A 
ATOM      7  C   UNL     1      -0.127  -0.041  -0.196  0.00  0.00    +0.041 A 
ATOM      8  C   UNL     1      -0.629  -0.909   0.764  0.00  0.00    +0.024 A 
ATOM      9  C   UNL     1      -0.733  -2.258   0.486  0.00  0.00    +0.002 A 
ENDBRANCH   1   7
BRANCH   1  10
ATOM     10  C   UNL     1       1.234   1.927   0.202  0.00  0.00    +0.041 A 
ATOM     11  C   UNL     1       1.666   2.839  -0.752  0.00  0.00    +0.024 A 
ATOM     12  C   UNL     1       2.907   3.432  -0.626  0.00  0.00    +0.002 A 
ATOM     13  C   UNL     1       3.724   3.110   0.442  0.00  0.00    +0.000 A 
ATOM     14  C   UNL     1       3.299   2.197   1.390  0.00  0.00    +0.002 A 
ATOM     15  C   UNL     1       2.057   1.605   1.273  0.00  0.00    +0.024 A 
ENDBRANCH   1  10
BRANCH   2  16
ATOM     16  C   UNL     1      -1.035   3.563   0.404  0.00  0.00    +0.174 C 
BRANCH  16  17
ATOM     17  S   UNL     1      -2.695   4.277   0.520  0.00  0.00    -0.078 S 
BRANCH  17  18
ATOM     18  C   UNL     1      -2.283   5.978   0.720  0.00  0.00    +0.169 A 
ATOM     19  N   UNL     1      -3.187   6.997   0.855  0.00  0.00    -0.318 N 
ATOM     20  H   UNL     1      -4.183   6.908   0.854  0.00  0.00    +0.169 HD
ATOM     21  C   UNL     1      -2.473   8.165   0.991  0.00  0.00    +0.164 A 
ATOM     22  C   UNL     1      -1.117   7.805   0.923  0.00  0.00    +0.148 A 
ATOM     23  N   UNL     1      -1.065   6.460   0.758  0.00  0.00    -0.217 NA
ATOM     24  C   UNL     1      -0.155   8.822   1.030  0.00  0.00    +0.147 A 
ATOM     25  N   UNL     1      -0.571  10.075   1.190  0.00  0.00    -0.219 NA
ATOM     26  C   UNL     1      -1.858  10.365   1.249  0.00  0.00    +0.225 A 
ATOM     27  N   UNL     1      -2.795   9.444   1.153  0.00  0.00    -0.216 NA
BRANCH  24  28
ATOM     28  N   UNL     1       1.198   8.527   0.969  0.00  0.00    -0.341 N 
ATOM     29  H   UNL     1       1.436   7.900   1.711  0.00  0.00    +0.144 HD
ATOM     30  H   UNL     1       1.853   9.239   1.045  0.00  0.00    +0.144 HD
ENDBRANCH  24  28
ENDBRANCH  17  18
ENDBRANCH  16  17
ENDBRANCH   2  16
TORSDOF 6
