REMARK  Name = ZINC14383109
REMARK  9 active torsions:
REMARK  status: ('A' for Active; 'I' for Inactive)
REMARK    1  A    between atoms: C_1  and  O_2
REMARK    2  A    between atoms: O_2  and  C_3
REMARK    3  A    between atoms: C_8  and  C_9
REMARK    4  A    between atoms: N_11  and  C_12
REMARK    5  A    between atoms: N_11  and  C_19
REMARK    6  A    between atoms: C_12  and  C_13
REMARK    7  A    between atoms: C_20  and  N_35
REMARK    8  A    between atoms: N_21  and  C_28
REMARK    9  A    between atoms: C_28  and  C_29
REMARK                            x       y       z     vdW  Elec       q    Type
REMARK                         _______ _______ _______ _____ _____    ______ ____
ROOT
ATOM      1  C   UNL     1       3.117   3.454   1.338  0.00  0.00    +0.140 A 
ATOM      2  C   UNL     1       3.505   2.700   0.249  0.00  0.00    +0.128 A 
ATOM      3  N   UNL     1       2.648   2.575  -0.820  0.00  0.00    -0.276 N 
ATOM      4  C   UNL     1       1.443   3.173  -0.801  0.00  0.00    +0.331 A 
ATOM      5  O   UNL     1       0.699   3.046  -1.754  0.00  0.00    -0.246 OA
ATOM      6  N   UNL     1       1.046   3.908   0.254  0.00  0.00    -0.273 N 
ATOM      7  H   UNL     1       0.146   4.342   0.243  0.00  0.00    +0.173 HD
ATOM      8  C   UNL     1       1.849   4.065   1.324  0.00  0.00    +0.277 A 
ATOM      9  O   UNL     1       1.480   4.734   2.275  0.00  0.00    -0.266 OA
ENDROOT
BRANCH   1  12
ATOM     10  C   UNL     1       3.561   3.229   3.675  0.00  0.00    +0.255 C 
ATOM     11  O   UNL     1       4.291   3.382   4.636  0.00  0.00    -0.269 OA
ATOM     12  N   UNL     1       3.974   3.605   2.448  0.00  0.00    -0.256 N 
BRANCH  10  18
ATOM     13  C   UNL     1       1.579   2.704   5.094  0.00  0.00    +0.132 A 
ATOM     14  C   UNL     1       0.321   2.140   5.249  0.00  0.00    +0.046 A 
ATOM     15  C   UNL     1      -0.291   1.510   4.184  0.00  0.00    +0.004 A 
ATOM     16  C   UNL     1       0.343   1.437   2.954  0.00  0.00    +0.001 A 
ATOM     17  C   UNL     1       1.591   1.996   2.781  0.00  0.00    +0.017 A 
ATOM     18  C   UNL     1       2.224   2.632   3.852  0.00  0.00    +0.079 A 
BRANCH  13  20
ATOM     19  C   UNL     1       1.463   3.358   7.375  0.00  0.00    +0.277 C 
ATOM     20  O   UNL     1       2.181   3.324   6.139  0.00  0.00    -0.494 OA
ENDBRANCH  13  20
ENDBRANCH  10  18
BRANCH  12  21
ATOM     21  C   UNL     1       5.313   4.170   2.267  0.00  0.00    +0.149 C 
BRANCH  21  22
ATOM     22  C   UNL     1       5.251   5.668   2.422  0.00  0.00    -0.030 A 
ATOM     23  C   UNL     1       4.927   6.462   1.338  0.00  0.00    +0.005 A 
ATOM     24  C   UNL     1       4.865   7.835   1.481  0.00  0.00    +0.000 A 
ATOM     25  C   UNL     1       5.138   8.416   2.705  0.00  0.00    +0.000 A 
ATOM     26  C   UNL     1       5.468   7.622   3.788  0.00  0.00    +0.000 A 
ATOM     27  C   UNL     1       5.524   6.248   3.646  0.00  0.00    +0.005 A 
ENDBRANCH  21  22
ENDBRANCH  12  21
ENDBRANCH   1  12
BRANCH   2  28
ATOM     28  N   UNL     1       4.734   2.085   0.231  0.00  0.00    -0.343 N 
ATOM     29  H   UNL     1       5.058   1.674  -0.585  0.00  0.00    +0.144 HD
ATOM     30  H   UNL     1       5.276   2.062   1.035  0.00  0.00    +0.144 HD
ENDBRANCH   2  28
BRANCH   3  31
ATOM     31  C   UNL     1       3.049   1.782  -1.985  0.00  0.00    +0.163 C 
BRANCH  31  32
ATOM     32  C   UNL     1       3.751   2.669  -2.980  0.00  0.00    -0.028 A 
ATOM     33  C   UNL     1       3.026   3.313  -3.965  0.00  0.00    +0.005 A 
ATOM     34  C   UNL     1       3.669   4.131  -4.874  0.00  0.00    +0.000 A 
ATOM     35  C   UNL     1       5.040   4.297  -4.806  0.00  0.00    +0.000 A 
ATOM     36  C   UNL     1       5.766   3.649  -3.824  0.00  0.00    +0.000 A 
ATOM     37  C   UNL     1       5.122   2.835  -2.911  0.00  0.00    +0.005 A 
ENDBRANCH  31  32
ENDBRANCH   3  31
TORSDOF 8
