REMARK  Name = ZINC09289440
REMARK  7 active torsions:
REMARK  status: ('A' for Active; 'I' for Inactive)
REMARK    1  A    between atoms: C_5  and  N_7
REMARK    2  A    between atoms: N_8  and  C_9
REMARK    3  A    between atoms: C_12  and  O_28
REMARK    4  A    between atoms: C_13  and  C_15
REMARK    5  A    between atoms: N_16  and  N_17
REMARK    6  A    between atoms: C_18  and  C_20
REMARK    7  A    between atoms: C_20  and  C_21
REMARK                            x       y       z     vdW  Elec       q    Type
REMARK                         _______ _______ _______ _____ _____    ______ ____
ROOT
ATOM      1  C   UNL     1      -1.457   2.069  -8.354  0.00  0.00    +0.087 A 
ATOM      2  C   UNL     1      -2.604   2.857  -8.200  0.00  0.00    +0.033 A 
ATOM      3  C   UNL     1      -3.063   3.174  -6.941  0.00  0.00    +0.048 A 
ATOM      4  C   UNL     1      -2.393   2.714  -5.816  0.00  0.00    +0.126 A 
ATOM      5  C   UNL     1      -1.243   1.924  -5.957  0.00  0.00    +0.038 A 
ATOM      6  C   UNL     1      -0.773   1.607  -7.229  0.00  0.00    +0.042 A 
ENDROOT
BRANCH   1   8
ATOM      7  N   UNL     1      -1.635   2.189 -10.645  0.00  0.00    -0.148 NA
ATOM      8  N   UNL     1      -1.005   1.758  -9.605  0.00  0.00    -0.149 NA
BRANCH   7  13
ATOM      9  C   UNL     1       0.413   0.781 -13.319  0.00  0.00    +0.002 A 
ATOM     10  C   UNL     1      -0.265   1.245 -14.433  0.00  0.00    +0.002 A 
ATOM     11  C   UNL     1      -1.399   2.024 -14.286  0.00  0.00    +0.022 A 
ATOM     12  C   UNL     1      -1.865   2.339 -13.025  0.00  0.00    +0.068 A 
ATOM     13  C   UNL     1      -1.182   1.878 -11.896  0.00  0.00    +0.104 A 
ATOM     14  C   UNL     1      -0.037   1.091 -12.053  0.00  0.00    +0.031 A 
ATOM     15 CL   UNL     1      -3.292   3.311 -12.843  0.00  0.00    -0.081 Cl
ENDBRANCH   7  13
ENDBRANCH   1   8
BRANCH   5  16
ATOM     16  C   UNL     1      -0.530   1.435  -4.763  0.00  0.00    +0.142 C 
ATOM     17  N   UNL     1      -0.966   1.736  -3.578  0.00  0.00    -0.188 NA
BRANCH  17  18
ATOM     18  N   UNL     1      -0.288   1.272  -2.443  0.00  0.00    -0.207 N 
ATOM     19  C   UNL     1      -0.742   1.585  -1.213  0.00  0.00    +0.237 C 
ATOM     20  O   UNL     1      -1.736   2.268  -1.088  0.00  0.00    -0.274 OA
ATOM     21  H   UNL     1       0.507   0.726  -2.543  0.00  0.00    +0.177 HD
BRANCH  19  22
ATOM     22  C   UNL     1      -0.013   1.086   0.008  0.00  0.00    +0.132 C 
BRANCH  22  23
ATOM     23  C   UNL     1      -0.718   1.572   1.248  0.00  0.00    -0.039 A 
ATOM     24  C   UNL     1      -0.360   2.779   1.819  0.00  0.00    +0.005 A 
ATOM     25  C   UNL     1      -1.010   3.227   2.953  0.00  0.00    +0.015 A 
ATOM     26  C   UNL     1      -2.012   2.463   3.523  0.00  0.00    +0.018 A 
ATOM     27  C   UNL     1      -2.366   1.253   2.955  0.00  0.00    +0.015 A 
ATOM     28  C   UNL     1      -1.719   0.808   1.818  0.00  0.00    +0.005 A 
ATOM     29 BR   UNL     1      -2.897   3.073   5.079  0.00  0.00    -0.050 Br
ENDBRANCH  22  23
ENDBRANCH  19  22
ENDBRANCH  17  18
ENDBRANCH   5  16
BRANCH   4  30
ATOM     30  O   UNL     1      -2.851   3.030  -4.578  0.00  0.00    -0.506 OA
ATOM     31  H   UNL     1      -2.484   3.850  -4.220  0.00  0.00    +0.292 HD
ENDBRANCH   4  30
TORSDOF 7
