REMARK  Name = ZINC20439265
REMARK  12 active torsions:
REMARK  status: ('A' for Active; 'I' for Inactive)
REMARK    1  A    between atoms: C_1  and  C_2
REMARK    2  A    between atoms: C_2  and  C_4
REMARK    3  A    between atoms: C_2  and  O_38
REMARK    4  A    between atoms: C_4  and  N_5
REMARK    5  A    between atoms: N_5  and  C_6
REMARK    6  A    between atoms: C_6  and  C_7
REMARK    7  A    between atoms: C_7  and  C_9
REMARK    8  A    between atoms: C_7  and  O_10
REMARK    9  A    between atoms: C_29  and  C_31
REMARK   10  A    between atoms: C_29  and  C_32
REMARK   11  A    between atoms: C_34  and  S_36
REMARK   12  A    between atoms: S_36  and  C_37
REMARK                            x       y       z     vdW  Elec       q    Type
REMARK                         _______ _______ _______ _____ _____    ______ ____
ROOT
ATOM      1  N   UNL     1       1.211   3.331   0.019  0.00  0.00    -0.309 N 
ATOM      2  C   UNL     1       1.418   1.963  -0.073  0.00  0.00    +0.140 A 
ATOM      3  C   UNL     1       2.692   1.449  -0.267  0.00  0.00    +0.080 A 
ATOM      4  C   UNL     1       2.907   0.069  -0.363  0.00  0.00    +0.094 A 
ATOM      5  C   UNL     1       4.305  -0.353  -0.570  0.00  0.00    +0.038 A 
ATOM      6  C   UNL     1       4.796  -1.675  -0.700  0.00  0.00    -0.024 A 
ATOM      7  C   UNL     1       6.127  -1.880  -0.888  0.00  0.00    +0.022 A 
ATOM      8  C   UNL     1       6.999  -0.788  -0.947  0.00  0.00    +0.128 A 
ATOM      9  N   UNL     1       6.538   0.447  -0.824  0.00  0.00    -0.224 NA
ATOM     10  C   UNL     1       5.254   0.680  -0.644  0.00  0.00    +0.113 A 
ATOM     11  S   UNL     1       4.303   2.167  -0.446  0.00  0.00    -0.064 S 
ATOM     12  N   UNL     1       8.358  -1.000  -1.136  0.00  0.00    -0.310 N 
ATOM     13  C   UNL     1       9.138  -0.444  -0.021  0.00  0.00    +0.134 C 
ATOM     14  C   UNL     1      10.622  -0.752  -0.239  0.00  0.00    +0.178 C 
ATOM     15  O   UNL     1      11.032  -0.223  -1.503  0.00  0.00    -0.377 OA
ATOM     16  C   UNL     1      10.294  -0.744  -2.612  0.00  0.00    +0.178 C 
ATOM     17  C   UNL     1       8.807  -0.436  -2.417  0.00  0.00    +0.134 C 
ATOM     18  C   UNL     1       6.696  -3.268  -1.040  0.00  0.00    +0.199 C 
ATOM     19  O   UNL     1       5.752  -4.240  -0.589  0.00  0.00    -0.369 OA
ATOM     20  C   UNL     1       4.457  -4.086  -1.182  0.00  0.00    +0.068 C 
ATOM     21  C   UNL     1       3.817  -2.815  -0.619  0.00  0.00    +0.070 C 
ATOM     22  C   UNL     1       3.587  -5.297  -0.839  0.00  0.00    +0.041 C 
ATOM     23  C   UNL     1       4.597  -3.964  -2.701  0.00  0.00    +0.041 C 
ATOM     24  N   UNL     1       1.809  -0.714  -0.254  0.00  0.00    -0.221 NA
ATOM     25  C   UNL     1       0.614  -0.194  -0.070  0.00  0.00    +0.190 A 
ATOM     26  N   UNL     1       0.398   1.112   0.021  0.00  0.00    -0.206 NA
ENDROOT
BRANCH  25  27
ATOM     27  S   UNL     1      -0.764  -1.284   0.060  0.00  0.00    -0.089 S 
ATOM     28  C   UNL     1       0.075  -2.877  -0.128  0.00  0.00    +0.093 C 
ENDBRANCH  25  27
BRANCH   1  29
ATOM     29  C   UNL     1      -0.211   3.636   0.222  0.00  0.00    +0.137 C 
BRANCH  29  31
ATOM     30  C   UNL     1      -1.919   5.459   0.273  0.00  0.00    +0.039 C 
ATOM     31  C   UNL     1      -0.444   5.136   0.028  0.00  0.00    +0.129 C 
BRANCH  31  32
ATOM     32  O   UNL     1      -0.090   5.504  -1.306  0.00  0.00    -0.391 OA
ATOM     33  H   UNL     1       0.936   5.346  -1.667  0.00  0.00    +0.210 HD
ENDBRANCH  31  32
ENDBRANCH  29  31
ENDBRANCH   1  29
BRANCH   1  34
ATOM     34  C   UNL     1       2.033   3.916   1.087  0.00  0.00    +0.137 C 
BRANCH  34  35
ATOM     35  C   UNL     1       1.569   3.377   2.442  0.00  0.00    +0.129 C 
ATOM     36  C   UNL     1       2.324   4.094   3.562  0.00  0.00    +0.039 C 
BRANCH  35  37
ATOM     37  O   UNL     1       1.832   1.974   2.511  0.00  0.00    -0.391 OA
ATOM     38  H   UNL     1       1.565   1.409   3.416  0.00  0.00    +0.210 HD
ENDBRANCH  35  37
ENDBRANCH  34  35
ENDBRANCH   1  34
TORSDOF 7
