REMARK  Name = ZINC63532937
REMARK  8 active torsions:
REMARK  status: ('A' for Active; 'I' for Inactive)
REMARK    1  A    between atoms: C_1  and  C_2
REMARK    2  A    between atoms: C_7  and  C_11
REMARK    3  A    between atoms: C_7  and  C_12
REMARK    4  A    between atoms: N_20  and  C_21
REMARK    5  A    between atoms: C_21  and  C_22
REMARK    6  A    between atoms: N_24  and  C_25
REMARK    7  A    between atoms: C_25  and  C_26
REMARK    8  A    between atoms: C_26  and  C_27
REMARK                            x       y       z     vdW  Elec       q    Type
REMARK                         _______ _______ _______ _____ _____    ______ ____
ROOT
ATOM      1  C   UNL     1      -0.019   1.526   0.010  0.00  0.00    +0.033 C 
ATOM      2  C   UNL     1       0.002  -0.004   0.002  0.00  0.00    +0.106 C 
ATOM      3  C   UNL     1      -1.423  -0.501  -0.048  0.00  0.00    +0.032 C 
ATOM      4  C   UNL     1      -2.079  -1.114   0.952  0.00  0.00    +0.017 C 
ATOM      5  C   UNL     1      -3.516  -1.572   0.765  0.00  0.00    +0.058 C 
ATOM      6  C   UNL     1      -4.244  -0.634  -0.196  0.00  0.00    -0.023 C 
ATOM      7  C   UNL     1      -3.493  -0.661  -1.532  0.00  0.00    +0.086 C 
ATOM      8  C   UNL     1      -2.067  -0.268  -1.286  0.00  0.00    +0.163 C 
ATOM      9  O   UNL     1      -1.444   0.271  -2.179  0.00  0.00    -0.292 OA
ATOM     10  C   UNL     1      -5.682  -1.114  -0.399  0.00  0.00    +0.011 C 
ATOM     11  C   UNL     1      -4.245   0.788   0.369  0.00  0.00    +0.011 C 
ATOM     12  N   UNL     1      -1.549  -1.388   2.171  0.00  0.00    -0.316 N 
ATOM     13  C   UNL     1      -0.819  -0.490   2.942  0.00  0.00    +0.052 A 
ATOM     14  C   UNL     1      -1.270  -0.027   4.165  0.00  0.00    +0.025 A 
ATOM     15  C   UNL     1      -0.471   0.829   4.903  0.00  0.00    +0.002 A 
ATOM     16  C   UNL     1       0.767   1.216   4.423  0.00  0.00    +0.002 A 
ATOM     17  C   UNL     1       1.212   0.767   3.191  0.00  0.00    +0.025 A 
ATOM     18  C   UNL     1       0.405  -0.073   2.441  0.00  0.00    +0.052 A 
ATOM     19  N   UNL     1       0.755  -0.459   1.151  0.00  0.00    -0.313 N 
ATOM     20  H   UNL     1      -1.689  -2.278   2.532  0.00  0.00    +0.152 HD
ENDROOT
BRANCH  19  21
ATOM     21  C   UNL     1       1.911  -1.338   0.955  0.00  0.00    +0.201 C 
BRANCH  21  22
ATOM     22  C   UNL     1       3.154  -0.503   0.782  0.00  0.00    +0.230 C 
ATOM     23  O   UNL     1       3.081   0.707   0.819  0.00  0.00    -0.274 OA
ATOM     24  N   UNL     1       4.345  -1.101   0.586  0.00  0.00    -0.314 N 
ATOM     25  H   UNL     1       4.403  -2.069   0.556  0.00  0.00    +0.149 HD
BRANCH  24  26
ATOM     26  C   UNL     1       5.553  -0.290   0.417  0.00  0.00    +0.108 C 
BRANCH  26  27
ATOM     27  C   UNL     1       6.760  -1.208   0.212  0.00  0.00    +0.052 C 
BRANCH  27  28
ATOM     28  C   UNL     1       8.003  -0.374   0.039  0.00  0.00    -0.040 C 
ATOM     29  C   UNL     1       8.891  -0.029   0.999  0.00  0.00    -0.001 A 
ATOM     30  C   UNL     1       8.963  -0.316   2.437  0.00  0.00    +0.010 A 
ATOM     31  C   UNL     1       9.997   0.179   3.154  0.00  0.00    +0.001 A 
ATOM     32  C   UNL     1      11.000   0.958   2.560  0.00  0.00    +0.002 A 
ATOM     33  C   UNL     1      11.002   1.264   1.246  0.00  0.00    +0.026 A 
ATOM     34  C   UNL     1       9.962   0.795   0.396  0.00  0.00    +0.043 A 
ATOM     35  N   UNL     1       9.745   0.954  -0.887  0.00  0.00    -0.380 N 
ATOM     36  C   UNL     1       8.512   0.243  -1.244  0.00  0.00    +0.144 C 
ATOM     37  H   UNL     1      10.307   1.455  -1.498  0.00  0.00    +0.160 HD
ENDBRANCH  27  28
ENDBRANCH  26  27
ENDBRANCH  24  26
ENDBRANCH  21  22
ENDBRANCH  19  21
TORSDOF 5
