REMARK  Name = ZINC21264622
REMARK  5 active torsions:
REMARK  status: ('A' for Active; 'I' for Inactive)
REMARK    1  A    between atoms: C_1  and  C_2
REMARK    2  A    between atoms: C_2  and  N_3
REMARK    3  A    between atoms: N_5  and  C_20
REMARK    4  A    between atoms: C_6  and  C_9
REMARK    5  A    between atoms: C_20  and  C_21
REMARK                            x       y       z     vdW  Elec       q    Type
REMARK                         _______ _______ _______ _____ _____    ______ ____
ROOT
ATOM      1  C   UNL     1      -2.485   1.309   0.517  0.00  0.00    +0.001 A 
ATOM      2  C   UNL     1      -2.126   0.251  -0.320  0.00  0.00    +0.013 A 
ATOM      3  C   UNL     1      -0.951  -0.438  -0.099  0.00  0.00    +0.048 A 
ATOM      4  C   UNL     1      -0.124  -0.082   0.954  0.00  0.00    +0.142 A 
ATOM      5  C   UNL     1      -0.477   0.975   1.794  0.00  0.00    +0.076 A 
ATOM      6  C   UNL     1      -1.656   1.666   1.582  0.00  0.00    +0.037 A 
ATOM      7  N   UNL     1       0.372   1.320   2.855  0.00  0.00    -0.280 N 
ATOM      8  C   UNL     1       1.640   0.852   2.858  0.00  0.00    +0.255 C 
ATOM      9  O   UNL     1       2.383   1.113   3.780  0.00  0.00    -0.272 OA
ATOM     10  C   UNL     1       2.126   0.004   1.711  0.00  0.00    +0.325 C 
ATOM     11  O   UNL     1       1.037  -0.754   1.179  0.00  0.00    -0.481 OA
ATOM     12  H   UNL     1       0.004   1.962   3.668  0.00  0.00    +0.155 HD
ENDROOT
BRANCH   1  16
ATOM     13  N   UNL     1      -7.239   1.663  -0.581  0.00  0.00    -0.261 NA
ATOM     14  C   UNL     1      -6.043   2.091  -0.262  0.00  0.00    +0.169 A 
ATOM     15  N   UNL     1      -4.888   1.370  -0.053  0.00  0.00    -0.320 N 
ATOM     16  C   UNL     1      -3.744   2.048   0.279  0.00  0.00    +0.058 A 
ATOM     17  C   UNL     1      -3.771   3.391   0.382  0.00  0.00    +0.075 A 
ATOM     18  S   UNL     1      -5.477   3.763   0.008  0.00  0.00    -0.058 S 
BRANCH  13  20
ATOM     19  C   UNL     1      -8.877   2.508  -2.189  0.00  0.00    +0.029 C 
ATOM     20  C   UNL     1      -8.334   2.619  -0.763  0.00  0.00    +0.141 C 
ENDBRANCH  13  20
BRANCH  15  21
ATOM     21  C   UNL     1      -4.884  -0.090  -0.176  0.00  0.00    +0.121 C 
ATOM     22  C   UNL     1      -6.210  -0.649   0.342  0.00  0.00    +0.027 C 
ENDBRANCH  15  21
ENDBRANCH   1  16
TORSDOF 3
