REMARK  Name = ZINC00960113
REMARK  12 active torsions:
REMARK  status: ('A' for Active; 'I' for Inactive)
REMARK    1  A    between atoms: C_1  and  C_2
REMARK    2  A    between atoms: C_2  and  O_3
REMARK    3  A    between atoms: O_3  and  C_4
REMARK    4  A    between atoms: C_4  and  C_6
REMARK    5  A    between atoms: C_7  and  C_34
REMARK    6  A    between atoms: C_14  and  C_16
REMARK    7  A    between atoms: C_18  and  O_32
REMARK    8  A    between atoms: C_19  and  O_23
REMARK    9  A    between atoms: O_23  and  C_24
REMARK   10  A    between atoms: C_24  and  C_25
REMARK   11  A    between atoms: C_28  and  C_31
REMARK   12  A    between atoms: O_32  and  C_33
REMARK                            x       y       z     vdW  Elec       q    Type
REMARK                         _______ _______ _______ _____ _____    ______ ____
ROOT
ATOM      1  C   UNL     1      -4.020  -0.555  -0.797  0.00  0.00    -0.014 A 
ATOM      2  C   UNL     1      -3.931   0.808  -0.584  0.00  0.00    +0.055 A 
ATOM      3  C   UNL     1      -3.974   1.681  -1.659  0.00  0.00    +0.163 A 
ATOM      4  C   UNL     1      -4.107   1.183  -2.951  0.00  0.00    +0.176 A 
ATOM      5  C   UNL     1      -4.195  -0.184  -3.158  0.00  0.00    +0.063 A 
ATOM      6  C   UNL     1      -4.146  -1.051  -2.081  0.00  0.00    +0.025 A 
ATOM      7 BR   UNL     1      -4.375  -0.866  -4.913  0.00  0.00    -0.046 Br
ENDROOT
BRANCH   1  16
ATOM      8  C   UNL     1      -2.795  -2.429   0.223  0.00  0.00    +0.082 C 
ATOM      9  C   UNL     1      -2.920  -3.729  -0.087  0.00  0.00    +0.020 C 
ATOM     10  N   UNL     1      -4.142  -4.320  -0.286  0.00  0.00    -0.287 N 
ATOM     11  C   UNL     1      -5.268  -3.603   0.097  0.00  0.00    +0.218 A 
ATOM     12  N   UNL     1      -6.507  -3.989   0.230  0.00  0.00    -0.201 NA
ATOM     13  C   UNL     1      -7.257  -2.956   0.628  0.00  0.00    +0.247 A 
ATOM     14  N   UNL     1      -6.498  -1.895   0.752  0.00  0.00    -0.156 NA
ATOM     15  N   UNL     1      -5.204  -2.285   0.411  0.00  0.00    -0.221 N 
ATOM     16  C   UNL     1      -3.972  -1.504   0.374  0.00  0.00    +0.179 C 
ATOM     17  C   UNL     1      -1.675  -4.568  -0.222  0.00  0.00    +0.061 C 
ATOM     18  H   UNL     1      -4.218  -5.203  -0.678  0.00  0.00    +0.155 HD
BRANCH   8  19
ATOM     19  C   UNL     1      -1.498  -1.906   0.422  0.00  0.00    +0.339 C 
ATOM     20  O   UNL     1      -1.065  -1.766   1.551  0.00  0.00    -0.245 OA
BRANCH  19  21
ATOM     21  O   UNL     1      -0.738  -1.562  -0.639  0.00  0.00    -0.462 OA
BRANCH  21  23
ATOM     22  C   UNL     1       1.269  -0.708  -1.680  0.00  0.00    +0.048 C 
ATOM     23  C   UNL     1       0.563  -1.039  -0.364  0.00  0.00    +0.229 C 
ENDBRANCH  21  23
ENDBRANCH  19  21
ENDBRANCH   8  19
ENDBRANCH   1  16
BRANCH   3  24
ATOM     24  O   UNL     1      -3.888   3.023  -1.450  0.00  0.00    -0.491 OA
ATOM     25  C   UNL     1      -3.754   3.462  -0.097  0.00  0.00    +0.277 C 
ENDBRANCH   3  24
BRANCH   4  26
ATOM     26  O   UNL     1      -4.150   2.037  -4.009  0.00  0.00    -0.483 OA
BRANCH  26  27
ATOM     27  C   UNL     1      -2.904   2.379  -4.619  0.00  0.00    +0.264 C 
BRANCH  27  28
ATOM     28  C   UNL     1      -3.148   3.327  -5.765  0.00  0.00    -0.010 A 
ATOM     29  C   UNL     1      -3.375   2.831  -7.035  0.00  0.00    +0.007 A 
ATOM     30  C   UNL     1      -3.599   3.700  -8.086  0.00  0.00    +0.004 A 
ATOM     31  C   UNL     1      -3.596   5.065  -7.867  0.00  0.00    -0.050 A 
ATOM     32  C   UNL     1      -3.370   5.561  -6.596  0.00  0.00    +0.004 A 
ATOM     33  C   UNL     1      -3.150   4.691  -5.545  0.00  0.00    +0.007 A 
ATOM     34  C   UNL     1      -3.839   6.013  -9.013  0.00  0.00    +0.044 C 
ENDBRANCH  27  28
ENDBRANCH  26  27
ENDBRANCH   4  26
TORSDOF 8
