REMARK  Name = ZINC62473934
REMARK  3 active torsions:
REMARK  status: ('A' for Active; 'I' for Inactive)
REMARK    1  A    between atoms: C_5  and  N_8
REMARK    2  A    between atoms: C_14  and  N_17
REMARK    3  A    between atoms: C_18  and  C_20
REMARK                            x       y       z     vdW  Elec       q    Type
REMARK                         _______ _______ _______ _____ _____    ______ ____
ROOT
ATOM      1  N   UNL     1       2.911  -2.505  -1.423  0.00  0.00    -0.296 N 
ATOM      2  C   UNL     1       2.617  -2.197  -2.702  0.00  0.00    +0.302 C 
ATOM      3  O   UNL     1       1.959  -1.205  -2.952  0.00  0.00    -0.253 OA
ATOM      4  N   UNL     1       3.052  -2.987  -3.703  0.00  0.00    -0.286 N 
ATOM      5  C   UNL     1       2.840  -2.604  -5.105  0.00  0.00    +0.111 C 
ATOM      6  C   UNL     1       4.187  -2.632  -5.833  0.00  0.00    +0.041 C 
ATOM      7  C   UNL     1       4.835  -4.006  -5.648  0.00  0.00    +0.076 C 
ATOM      8  C   UNL     1       5.084  -4.258  -4.159  0.00  0.00    +0.041 C 
ATOM      9  C   UNL     1       3.752  -4.246  -3.412  0.00  0.00    +0.111 C 
ATOM     10  H   UNL     1       3.371  -3.333  -1.218  0.00  0.00    +0.151 HD
ENDROOT
BRANCH   1  15
ATOM     11  C   UNL     1       2.674   0.333   1.972  0.00  0.00    +0.000 C 
ATOM     12  C   UNL     1       1.286  -0.242   1.891  0.00  0.00    +0.000 C 
ATOM     13  C   UNL     1       1.287  -1.782   1.852  0.00  0.00    +0.002 C 
ATOM     14  C   UNL     1       2.392  -2.356   0.943  0.00  0.00    +0.022 C 
ATOM     15  C   UNL     1       2.534  -1.589  -0.344  0.00  0.00    +0.074 C 
ATOM     16  C   UNL     1       3.635  -0.524  -0.160  0.00  0.00    +0.022 C 
ATOM     17  C   UNL     1       3.155   0.656   0.543  0.00  0.00    +0.002 C 
ENDBRANCH   1  15
BRANCH   7  18
ATOM     18  N   UNL     1       6.108  -4.047  -6.370  0.00  0.00    -0.312 N 
ATOM     19  C   UNL     1       6.610  -5.227  -6.785  0.00  0.00    +0.216 C 
ATOM     20  O   UNL     1       6.008  -6.255  -6.560  0.00  0.00    -0.276 OA
ATOM     21  H   UNL     1       6.591  -3.225  -6.550  0.00  0.00    +0.149 HD
BRANCH  19  22
ATOM     22  C   UNL     1       7.921  -5.269  -7.528  0.00  0.00    +0.075 C 
ATOM     23  C   UNL     1       7.806  -4.445  -8.812  0.00  0.00    +0.013 C 
ATOM     24  C   UNL     1       9.136  -4.488  -9.566  0.00  0.00    +0.001 C 
ATOM     25  C   UNL     1       9.476  -5.937  -9.919  0.00  0.00    +0.000 C 
ATOM     26  C   UNL     1       9.591  -6.762  -8.635  0.00  0.00    +0.001 C 
ATOM     27  C   UNL     1       8.261  -6.719  -7.881  0.00  0.00    +0.013 C 
ENDBRANCH  19  22
ENDBRANCH   7  18
TORSDOF 3
