REMARK  Name = ZINC52360529
REMARK  7 active torsions:
REMARK  status: ('A' for Active; 'I' for Inactive)
REMARK    1  A    between atoms: C_1  and  S_2
REMARK    2  A    between atoms: S_2  and  N_5
REMARK    3  A    between atoms: N_5  and  C_6
REMARK    4  A    between atoms: N_9  and  C_12
REMARK    5  A    between atoms: C_12  and  C_13
REMARK    6  A    between atoms: N_15  and  C_16
REMARK    7  A    between atoms: C_16  and  C_20
REMARK                            x       y       z     vdW  Elec       q    Type
REMARK                         _______ _______ _______ _____ _____    ______ ____
ROOT
ATOM      1  C   UNL     1       5.824   0.881  -3.662  0.00  0.00    +0.019 C 
ENDROOT
BRANCH   1   5
ATOM      2  C   UNL     1       2.173   0.025  -1.638  0.00  0.00    +0.073 C 
ATOM      3  C   UNL     1       2.328   1.355  -2.380  0.00  0.00    +0.002 C 
ATOM      4  C   UNL     1       3.816   1.642  -2.596  0.00  0.00    -0.077 C 
ATOM      5  N   UNL     1       4.415   0.563  -3.391  0.00  0.00    +0.385 N 
ATOM      6  C   UNL     1       4.333  -0.704  -2.654  0.00  0.00    -0.077 C 
ATOM      7  C   UNL     1       2.866  -1.080  -2.441  0.00  0.00    +0.002 C 
ATOM      8  H   UNL     1       3.918   0.475  -4.265  0.00  0.00    -0.081 HD
BRANCH   2   9
ATOM      9  N   UNL     1       0.750  -0.293  -1.495  0.00  0.00    -0.192 NA
ATOM     10  H   UNL     1       0.278  -0.740  -2.215  0.00  0.00    +0.148 HD
BRANCH   9  12
ATOM     11  C   UNL     1      -0.034   1.925  -0.066  0.00  0.00    +0.214 C 
ATOM     12  S   UNL     1      -0.053   0.112  -0.105  0.00  0.00    +0.027 S 
ATOM     13  O   UNL     1       0.752  -0.409   0.944  0.00  0.00    -0.158 OA
ATOM     14  O   UNL     1      -1.380  -0.359  -0.302  0.00  0.00    -0.158 OA
ENDBRANCH   9  12
ENDBRANCH   2   9
ENDBRANCH   1   5
BRANCH   1  15
ATOM     15  C   UNL     1       6.407  -0.163  -4.580  0.00  0.00    +0.197 C 
ATOM     16  O   UNL     1       5.717  -1.081  -4.970  0.00  0.00    -0.278 OA
ATOM     17  N   UNL     1       7.695  -0.076  -4.966  0.00  0.00    -0.307 N 
ATOM     18  H   UNL     1       8.225   0.697  -4.717  0.00  0.00    +0.149 HD
BRANCH  17  19
ATOM     19  C   UNL     1       8.293  -1.149  -5.765  0.00  0.00    +0.060 C 
ATOM     20  C   UNL     1       9.566  -0.721  -6.515  0.00  0.00    +0.030 C 
ATOM     21  C   UNL     1       8.646  -0.300  -7.674  0.00  0.00    +0.005 C 
ATOM     22  C   UNL     1       7.636  -1.332  -7.143  0.00  0.00    +0.030 C 
BRANCH  19  23
ATOM     23  C   UNL     1       8.448  -2.435  -4.994  0.00  0.00    -0.024 A 
ATOM     24  C   UNL     1       8.712  -3.615  -5.665  0.00  0.00    +0.006 A 
ATOM     25  C   UNL     1       8.854  -4.794  -4.958  0.00  0.00    +0.000 A 
ATOM     26  C   UNL     1       8.733  -4.794  -3.581  0.00  0.00    +0.000 A 
ATOM     27  C   UNL     1       8.470  -3.614  -2.911  0.00  0.00    +0.000 A 
ATOM     28  C   UNL     1       8.332  -2.433  -3.617  0.00  0.00    +0.006 A 
ENDBRANCH  19  23
ENDBRANCH  17  19
ENDBRANCH   1  15
TORSDOF 6
