REMARK  Name = ZINC20079677
REMARK  13 active torsions:
REMARK  status: ('A' for Active; 'I' for Inactive)
REMARK    1  A    between atoms: C_1  and  C_2
REMARK    2  A    between atoms: C_2  and  C_3
REMARK    3  A    between atoms: C_3  and  C_4
REMARK    4  A    between atoms: C_3  and  C_5
REMARK    5  A    between atoms: C_3  and  N_6
REMARK    6  A    between atoms: C_7  and  C_11
REMARK    7  A    between atoms: C_11  and  C_13
REMARK    8  A    between atoms: C_11  and  N_27
REMARK    9  A    between atoms: C_16  and  C_26
REMARK   10  A    between atoms: C_18  and  C_25
REMARK   11  A    between atoms: N_30  and  C_33
REMARK   12  A    between atoms: C_37  and  C_40
REMARK   13  A    between atoms: C_38  and  C_39
REMARK                            x       y       z     vdW  Elec       q    Type
REMARK                         _______ _______ _______ _____ _____    ______ ____
ROOT
ATOM      1  C   UNL     1       5.114   4.453  -0.113  0.00  0.00    +0.162 C 
ENDROOT
BRANCH   1   2
ATOM      2  C   UNL     1       3.784   3.768   0.070  0.00  0.00    +0.042 A 
ATOM      3  C   UNL     1       3.727   2.415   0.149  0.00  0.00    +0.021 A 
ATOM      4  C   UNL     1       2.420   1.780   0.328  0.00  0.00    +0.002 A 
ATOM      5  C   UNL     1       2.297   0.390   0.416  0.00  0.00    -0.041 A 
ATOM      6  C   UNL     1       1.063  -0.172   0.582  0.00  0.00    +0.007 A 
ATOM      7  C   UNL     1      -0.070   0.625   0.666  0.00  0.00    -0.048 A 
ATOM      8  C   UNL     1       0.027   1.997   0.583  0.00  0.00    +0.029 A 
ATOM      9  C   UNL     1       1.273   2.592   0.413  0.00  0.00    +0.050 A 
ATOM     10  N   UNL     1       1.399   3.962   0.326  0.00  0.00    -0.322 N 
ATOM     11  H   UNL     1       0.507   4.602   0.391  0.00  0.00    +0.169 HD
ATOM     12  C   UNL     1       2.604   4.536   0.161  0.00  0.00    +0.254 A 
ATOM     13  O   UNL     1       2.678   5.750   0.088  0.00  0.00    -0.268 OA
ATOM     14  C   UNL     1      -1.421  -0.017   0.851  0.00  0.00    +0.044 C 
ATOM     15  C   UNL     1       3.521  -0.485   0.327  0.00  0.00    +0.044 C 
ENDBRANCH   1   2
BRANCH   1  16
ATOM     16  N   UNL     1       5.296   5.459   0.942  0.00  0.00    -0.286 NA
ATOM     17  C   UNL     1       6.513   6.250   0.711  0.00  0.00    +0.104 C 
ATOM     18  C   UNL     1       6.624   7.336   1.784  0.00  0.00    +0.120 C 
ATOM     19  N   UNL     1       6.652   6.707   3.112  0.00  0.00    -0.327 N 
ATOM     20  C   UNL     1       5.436   5.915   3.343  0.00  0.00    +0.120 C 
ATOM     21  C   UNL     1       5.325   4.830   2.269  0.00  0.00    +0.104 C 
BRANCH  19  22
ATOM     22  C   UNL     1       6.826   7.663   4.115  0.00  0.00    +0.033 A 
ATOM     23  C   UNL     1       5.856   8.636   4.324  0.00  0.00    +0.023 A 
ATOM     24  C   UNL     1       6.031   9.580   5.317  0.00  0.00    +0.002 A 
ATOM     25  C   UNL     1       7.169   9.557   6.102  0.00  0.00    +0.004 A 
ATOM     26  C   UNL     1       8.136   8.590   5.897  0.00  0.00    -0.046 A 
ATOM     27  C   UNL     1       7.965   7.640   4.909  0.00  0.00    -0.027 A 
ATOM     28  C   UNL     1       9.016   6.583   4.690  0.00  0.00    +0.046 C 
ATOM     29  C   UNL     1       9.374   8.570   6.755  0.00  0.00    +0.044 C 
ENDBRANCH  19  22
ENDBRANCH   1  16
BRANCH   1  31
ATOM     30  N   UNL     1       5.910   4.776  -2.515  0.00  0.00    -0.222 N 
ATOM     31  C   UNL     1       5.150   5.127  -1.461  0.00  0.00    +0.174 A 
ATOM     32  N   UNL     1       4.442   6.164  -1.837  0.00  0.00    -0.111 NA
ATOM     33  N   UNL     1       4.758   6.441  -3.055  0.00  0.00    -0.023 NA
ATOM     34  N   UNL     1       5.643   5.603  -3.468  0.00  0.00    -0.043 NA
BRANCH  30  35
ATOM     35  C   UNL     1       6.864   3.665  -2.568  0.00  0.00    +0.062 C 
ATOM     36  C   UNL     1       7.971   3.893  -1.537  0.00  0.00    +0.036 C 
ATOM     37  C   UNL     1       6.138   2.355  -2.256  0.00  0.00    +0.036 C 
BRANCH  35  39
ATOM     38  C   UNL     1       8.475   2.428  -4.023  0.00  0.00    +0.006 C 
ATOM     39  C   UNL     1       7.479   3.588  -3.967  0.00  0.00    +0.026 C 
ENDBRANCH  35  39
ENDBRANCH  30  35
ENDBRANCH   1  31
TORSDOF 6
