REMARK  Name = ZINC25156160
REMARK  6 active torsions:
REMARK  status: ('A' for Active; 'I' for Inactive)
REMARK    1  A    between atoms: C_1  and  C_2
REMARK    2  A    between atoms: C_2  and  C_4
REMARK    3  A    between atoms: C_2  and  O_19
REMARK    4  A    between atoms: N_6  and  C_7
REMARK    5  A    between atoms: C_11  and  C_13
REMARK    6  A    between atoms: O_19  and  C_20
REMARK                            x       y       z     vdW  Elec       q    Type
REMARK                         _______ _______ _______ _____ _____    ______ ____
ROOT
ATOM      1  C   UNL     1       0.861  -0.294   1.210  0.00  0.00    +0.290 C 
ATOM      2  O   UNL     1       2.196  -0.404   1.075  0.00  0.00    -0.267 OA
ATOM      3  N   UNL     1       0.312  -0.431   2.383  0.00  0.00    -0.173 NA
ENDROOT
BRANCH   3   4
ATOM      4  C   UNL     1       1.089  -0.687   3.474  0.00  0.00    +0.250 A 
ATOM      5  N   UNL     1       0.648  -0.857   4.750  0.00  0.00    -0.243 N 
ATOM      6  H   UNL     1      -0.271  -0.821   5.057  0.00  0.00    +0.192 HD
ATOM      7  N   UNL     1       1.788  -1.097   5.533  0.00  0.00    -0.151 NA
ATOM      8  C   UNL     1       2.825  -1.061   4.725  0.00  0.00    +0.183 A 
ATOM      9  N   UNL     1       2.401  -0.818   3.479  0.00  0.00    -0.190 NA
BRANCH   8  10
ATOM     10  C   UNL     1       4.238  -1.262   5.130  0.00  0.00    +0.021 A 
ATOM     11  C   UNL     1       5.254  -1.194   4.178  0.00  0.00    +0.011 A 
ATOM     12  C   UNL     1       6.567  -1.382   4.560  0.00  0.00    +0.001 A 
ATOM     13  C   UNL     1       6.875  -1.639   5.884  0.00  0.00    +0.000 A 
ATOM     14  C   UNL     1       5.871  -1.708   6.832  0.00  0.00    +0.001 A 
ATOM     15  C   UNL     1       4.555  -1.515   6.463  0.00  0.00    +0.011 A 
ENDBRANCH   8  10
ENDBRANCH   3   4
BRANCH   1  17
ATOM     16  C   UNL     1      -0.252   1.493  -0.100  0.00  0.00    +0.062 C 
ATOM     17  C   UNL     1       0.002  -0.012   0.005  0.00  0.00    +0.260 C 
BRANCH  17  18
ATOM     18  O   UNL     1       0.671  -0.465  -1.174  0.00  0.00    -0.480 OA
BRANCH  18  19
ATOM     19  C   UNL     1      -0.106  -0.775  -2.244  0.00  0.00    +0.123 A 
ATOM     20  C   UNL     1       0.465  -1.331  -3.380  0.00  0.00    +0.046 A 
ATOM     21  C   UNL     1      -0.327  -1.646  -4.467  0.00  0.00    +0.005 A 
ATOM     22  C   UNL     1      -1.688  -1.407  -4.425  0.00  0.00    +0.020 A 
ATOM     23  C   UNL     1      -2.261  -0.852  -3.294  0.00  0.00    +0.044 A 
ATOM     24  C   UNL     1      -1.473  -0.541  -2.202  0.00  0.00    +0.065 A 
ATOM     25 CL   UNL     1      -3.970  -0.553  -3.245  0.00  0.00    -0.083 Cl
ENDBRANCH  18  19
ENDBRANCH  17  18
ENDBRANCH   1  17
TORSDOF 5
