REMARK  Name = ZINC06410063
REMARK  10 active torsions:
REMARK  status: ('A' for Active; 'I' for Inactive)
REMARK    1  A    between atoms: C_1  and  C_2
REMARK    2  A    between atoms: C_7  and  C_14
REMARK    3  A    between atoms: C_14  and  C_16
REMARK    4  A    between atoms: C_14  and  N_28
REMARK    5  A    between atoms: N_20  and  C_21
REMARK    6  A    between atoms: C_21  and  C_22
REMARK    7  A    between atoms: N_28  and  C_29
REMARK    8  A    between atoms: N_28  and  C_37
REMARK    9  A    between atoms: C_29  and  C_30
REMARK   10  A    between atoms: C_37  and  C_38
REMARK                            x       y       z     vdW  Elec       q    Type
REMARK                         _______ _______ _______ _____ _____    ______ ____
ROOT
ATOM      1  C   UNL     1       0.115  -6.586   1.210  0.00  0.00    +0.040 C 
ENDROOT
BRANCH   1   8
ATOM      2  C   UNL     1      -1.554   1.179   0.472  0.00  0.00    +0.044 C 
ATOM      3  C   UNL     1      -1.248  -0.294   0.378  0.00  0.00    -0.048 A 
ATOM      4  C   UNL     1      -1.173  -0.902  -0.868  0.00  0.00    +0.004 A 
ATOM      5  C   UNL     1      -0.896  -2.235  -0.975  0.00  0.00    +0.010 A 
ATOM      6  C   UNL     1      -0.687  -2.995   0.180  0.00  0.00    -0.001 A 
ATOM      7  C   UNL     1      -0.388  -4.426   0.102  0.00  0.00    +0.017 A 
ATOM      8  C   UNL     1      -0.194  -5.112   1.256  0.00  0.00    +0.011 A 
ATOM      9  C   UNL     1      -0.281  -4.449   2.499  0.00  0.00    +0.251 A 
ATOM     10  O   UNL     1      -0.102  -5.084   3.524  0.00  0.00    -0.268 OA
ATOM     11  N   UNL     1      -0.554  -3.136   2.581  0.00  0.00    -0.322 N 
ATOM     12  H   UNL     1      -0.606  -2.712   3.452  0.00  0.00    +0.169 HD
ATOM     13  C   UNL     1      -0.762  -2.382   1.445  0.00  0.00    +0.049 A 
ATOM     14  C   UNL     1      -1.039  -1.022   1.530  0.00  0.00    +0.029 A 
ENDBRANCH   1   8
BRANCH   1  15
ATOM     15  C   UNL     1      -1.024  -7.357   1.825  0.00  0.00    +0.143 A 
ATOM     16  N   UNL     1      -1.305  -7.454   3.102  0.00  0.00    -0.115 NA
ATOM     17  N   UNL     1      -2.350  -8.197   3.224  0.00  0.00    -0.023 NA
ATOM     18  N   UNL     1      -2.744  -8.577   2.059  0.00  0.00    -0.044 NA
ATOM     19  N   UNL     1      -1.955  -8.075   1.169  0.00  0.00    -0.228 N 
BRANCH  19  20
ATOM     20  C   UNL     1      -2.053  -8.255  -0.281  0.00  0.00    +0.178 C 
BRANCH  20  21
ATOM     21  C   UNL     1      -1.247  -9.488  -0.697  0.00  0.00    +0.140 C 
ATOM     22  C   UNL     1      -1.410  -9.750  -2.215  0.00  0.00    +0.035 C 
ATOM     23  C   UNL     1      -0.105 -10.535  -2.521  0.00  0.00    +0.031 C 
ATOM     24  C   UNL     1       0.905  -9.879  -1.555  0.00  0.00    +0.160 C 
ATOM     25  O   UNL     1       0.157  -9.255  -0.503  0.00  0.00    -0.375 OA
ENDBRANCH  20  21
ENDBRANCH  19  20
ENDBRANCH   1  15
BRANCH   1  26
ATOM     26  N   UNL     1       1.348  -6.851   1.962  0.00  0.00    +0.397 N 
ATOM     27  H   UNL     1       1.273  -6.448   2.885  0.00  0.00    -0.079 HD
BRANCH  26  28
ATOM     28  C   UNL     1       1.550  -8.302   2.077  0.00  0.00    -0.041 C 
BRANCH  28  29
ATOM     29  C   UNL     1       2.746  -8.576   2.952  0.00  0.00    -0.064 A 
ATOM     30  C   UNL     1       4.005  -8.673   2.390  0.00  0.00    +0.004 A 
ATOM     31  C   UNL     1       5.103  -8.924   3.191  0.00  0.00    +0.038 A 
ATOM     32  C   UNL     1       4.941  -9.077   4.558  0.00  0.00    +0.123 A 
ATOM     33  C   UNL     1       3.679  -8.979   5.120  0.00  0.00    +0.038 A 
ATOM     34  C   UNL     1       2.584  -8.723   4.317  0.00  0.00    +0.004 A 
ATOM     35  F   UNL     1       6.013  -9.322   5.342  0.00  0.00    -0.205 F 
ENDBRANCH  28  29
ENDBRANCH  26  28
BRANCH  26  36
ATOM     36  C   UNL     1       2.490  -6.253   1.258  0.00  0.00    -0.001 C 
BRANCH  36  37
ATOM     37  C   UNL     1       2.532  -4.772   1.537  0.00  0.00    +0.089 A 
ATOM     38  C   UNL     1       3.058  -4.193   2.631  0.00  0.00    +0.042 A 
ATOM     39  C   UNL     1       2.883  -2.798   2.479  0.00  0.00    +0.041 A 
ATOM     40  C   UNL     1       2.262  -2.609   1.301  0.00  0.00    +0.195 A 
ATOM     41  O   UNL     1       2.057  -3.808   0.732  0.00  0.00    -0.470 OA
ENDBRANCH  36  37
ENDBRANCH  26  36
ENDBRANCH   1  26
TORSDOF 9
