REMARK  Name = ZINC22222400
REMARK  10 active torsions:
REMARK  status: ('A' for Active; 'I' for Inactive)
REMARK    1  A    between atoms: C_1  and  C_2
REMARK    2  A    between atoms: C_2  and  C_3
REMARK    3  A    between atoms: C_3  and  C_4
REMARK    4  A    between atoms: C_7  and  C_10
REMARK    5  A    between atoms: C_10  and  C_38
REMARK    6  A    between atoms: N_13  and  C_17
REMARK    7  A    between atoms: C_17  and  C_18
REMARK    8  A    between atoms: C_21  and  C_33
REMARK    9  A    between atoms: C_24  and  C_26
REMARK   10  A    between atoms: C_29  and  C_32
REMARK                            x       y       z     vdW  Elec       q    Type
REMARK                         _______ _______ _______ _____ _____    ______ ____
ROOT
ATOM      1  C   UNL     1      -0.999   3.738   0.027  0.00  0.00    +0.215 C 
ENDROOT
BRANCH   1   5
ATOM      2  C   UNL     1      -4.338   5.246  -0.582  0.00  0.00    +0.135 C 
ATOM      3  C   UNL     1      -3.028   4.662  -1.073  0.00  0.00    +0.251 C 
ATOM      4  O   UNL     1      -2.678   4.514  -2.224  0.00  0.00    -0.272 OA
ATOM      5  N   UNL     1      -2.334   4.340   0.037  0.00  0.00    -0.215 N 
ATOM      6  C   UNL     1      -3.014   4.643   1.149  0.00  0.00    +0.310 C 
ATOM      7  O   UNL     1      -2.592   4.449   2.272  0.00  0.00    -0.252 OA
ATOM      8  N   UNL     1      -4.216   5.187   0.885  0.00  0.00    -0.281 N 
ATOM      9  C   UNL     1      -5.521   4.401  -1.059  0.00  0.00    +0.047 C 
ATOM     10  H   UNL     1      -5.035   5.554   1.520  0.00  0.00    +0.152 HD
BRANCH   2  14
ATOM     11  C   UNL     1      -4.761   9.290  -1.892  0.00  0.00    -0.047 A 
ATOM     12  C   UNL     1      -5.261   8.906  -0.661  0.00  0.00    +0.004 A 
ATOM     13  C   UNL     1      -5.124   7.598  -0.238  0.00  0.00    +0.006 A 
ATOM     14  C   UNL     1      -4.487   6.673  -1.044  0.00  0.00    -0.015 A 
ATOM     15  C   UNL     1      -3.982   7.058  -2.272  0.00  0.00    +0.006 A 
ATOM     16  C   UNL     1      -4.124   8.366  -2.698  0.00  0.00    +0.004 A 
BRANCH  11  17
ATOM     17  C   UNL     1      -4.910  10.717  -2.354  0.00  0.00    +0.035 C 
BRANCH  17  19
ATOM     18  C   UNL     1      -3.852  12.980  -2.364  0.00  0.00    +0.004 C 
ATOM     19  C   UNL     1      -3.700  11.532  -1.894  0.00  0.00    +0.001 C 
ENDBRANCH  17  19
ENDBRANCH  11  17
ENDBRANCH   2  14
ENDBRANCH   1   5
BRANCH   1  20
ATOM     20  C   UNL     1      -1.125   2.236   0.020  0.00  0.00    +0.253 C 
ATOM     21  O   UNL     1      -2.222   1.720   0.022  0.00  0.00    -0.272 OA
ATOM     22  N   UNL     1      -0.018   1.467   0.010  0.00  0.00    -0.181 N 
ATOM     23  C   UNL     1       0.002  -0.004   0.002  0.00  0.00    +0.173 C 
ATOM     24  C   UNL     1       1.505  -0.345  -0.014  0.00  0.00    +0.090 C 
ATOM     25  C   UNL     1       2.185   1.006  -0.013  0.00  0.00    +0.069 C 
ATOM     26  N   UNL     1       1.294   1.936   0.000  0.00  0.00    -0.181 NA
BRANCH  25  27
ATOM     27  C   UNL     1       3.644   1.224  -0.026  0.00  0.00    -0.002 A 
ATOM     28  C   UNL     1       4.517   0.134  -0.035  0.00  0.00    +0.010 A 
ATOM     29  C   UNL     1       5.880   0.345  -0.052  0.00  0.00    +0.004 A 
ATOM     30  C   UNL     1       6.383   1.635  -0.050  0.00  0.00    -0.050 A 
ATOM     31  C   UNL     1       5.524   2.719  -0.036  0.00  0.00    +0.004 A 
ATOM     32  C   UNL     1       4.159   2.522  -0.024  0.00  0.00    +0.010 A 
ATOM     33  C   UNL     1       7.873   1.858  -0.064  0.00  0.00    +0.044 C 
ENDBRANCH  25  27
BRANCH  23  34
ATOM     34  C   UNL     1      -0.656  -0.550   1.243  0.00  0.00    +0.128 A 
ATOM     35  C   UNL     1      -1.450  -1.634   1.300  0.00  0.00    +0.046 A 
ATOM     36  C   UNL     1      -1.842  -1.784   2.650  0.00  0.00    +0.041 A 
ATOM     37  C   UNL     1      -1.270  -0.778   3.336  0.00  0.00    +0.195 A 
ATOM     38  O   UNL     1      -0.552  -0.034   2.479  0.00  0.00    -0.466 OA
ENDBRANCH  23  34
ENDBRANCH   1  20
TORSDOF 7
