REMARK  Name = ZINC07127124
REMARK  5 active torsions:
REMARK  status: ('A' for Active; 'I' for Inactive)
REMARK    1  A    between atoms: C_1  and  C_2
REMARK    2  A    between atoms: C_5  and  N_8
REMARK    3  A    between atoms: C_13  and  C_16
REMARK    4  A    between atoms: C_16  and  C_17
REMARK    5  A    between atoms: N_19  and  C_20
REMARK                            x       y       z     vdW  Elec       q    Type
REMARK                         _______ _______ _______ _____ _____    ______ ____
ROOT
ATOM      1  N   UNL     1       0.856  -4.191  -0.262  0.00  0.00    -0.226 NA
ATOM      2  C   UNL     1       1.527  -4.842   0.658  0.00  0.00    +0.161 C 
ATOM      3  N   UNL     1       2.287  -4.324   1.685  0.00  0.00    -0.264 N 
ATOM      4  C   UNL     1       2.920  -5.090   2.556  0.00  0.00    +0.232 C 
ATOM      5  O   UNL     1       3.587  -4.627   3.457  0.00  0.00    -0.274 OA
ATOM      6  C   UNL     1       2.760  -6.589   2.358  0.00  0.00    +0.149 C 
ATOM      7  S   UNL     1       1.663  -6.610   0.880  0.00  0.00    -0.077 S 
ATOM      8  H   UNL     1       2.360  -3.361   1.772  0.00  0.00    +0.157 HD
ENDROOT
BRANCH   1  13
ATOM      9  C   UNL     1       0.897   1.455  -0.322  0.00  0.00    +0.044 C 
ATOM     10  C   UNL     1       0.886  -0.052  -0.306  0.00  0.00    -0.050 A 
ATOM     11  C   UNL     1       1.059  -0.754  -1.485  0.00  0.00    +0.005 A 
ATOM     12  C   UNL     1       1.050  -2.134  -1.478  0.00  0.00    +0.028 A 
ATOM     13  C   UNL     1       0.866  -2.821  -0.277  0.00  0.00    +0.067 A 
ATOM     14  C   UNL     1       0.693  -2.106   0.910  0.00  0.00    +0.028 A 
ATOM     15  C   UNL     1       0.709  -0.727   0.889  0.00  0.00    +0.005 A 
ENDBRANCH   1  13
BRANCH   6  16
ATOM     16  C   UNL     1       2.074  -7.238   3.562  0.00  0.00    +0.120 C 
BRANCH  16  17
ATOM     17  C   UNL     1       2.046  -8.733   3.378  0.00  0.00    +0.219 C 
ATOM     18  O   UNL     1       2.528  -9.232   2.383  0.00  0.00    -0.275 OA
ATOM     19  N   UNL     1       1.486  -9.518   4.321  0.00  0.00    -0.285 N 
ATOM     20  H   UNL     1       1.169  -9.128   5.151  0.00  0.00    +0.155 HD
BRANCH  19  21
ATOM     21  C   UNL     1       1.360 -10.893   4.101  0.00  0.00    +0.034 A 
ATOM     22  C   UNL     1       1.129 -11.370   2.806  0.00  0.00    +0.024 A 
ATOM     23  C   UNL     1       1.003 -12.702   2.564  0.00  0.00    +0.010 A 
ATOM     24  C   UNL     1       1.106 -13.620   3.624  0.00  0.00    -0.018 A 
ATOM     25  C   UNL     1       0.981 -15.002   3.403  0.00  0.00    +0.008 A 
ATOM     26  C   UNL     1       1.086 -15.864   4.451  0.00  0.00    +0.001 A 
ATOM     27  C   UNL     1       1.316 -15.398   5.744  0.00  0.00    +0.001 A 
ATOM     28  C   UNL     1       1.443 -14.066   5.996  0.00  0.00    +0.008 A 
ATOM     29  C   UNL     1       1.341 -13.145   4.939  0.00  0.00    -0.016 A 
ATOM     30  C   UNL     1       1.472 -11.765   5.162  0.00  0.00    +0.031 A 
ENDBRANCH  19  21
ENDBRANCH  16  17
ENDBRANCH   6  16
TORSDOF 4
