REMARK  Name = ZINC37286138
REMARK  3 active torsions:
REMARK  status: ('A' for Active; 'I' for Inactive)
REMARK    1  A    between atoms: C_4  and  C_10
REMARK    2  A    between atoms: C_6  and  N_7
REMARK    3  A    between atoms: C_16  and  C_18
REMARK                            x       y       z     vdW  Elec       q    Type
REMARK                         _______ _______ _______ _____ _____    ______ ____
ROOT
ATOM      1  C   UNL     1       3.695  -0.686  -0.038  0.00  0.00    +0.248 C 
ATOM      2  O   UNL     1       4.735  -0.065  -0.139  0.00  0.00    -0.270 OA
ATOM      3  N   UNL     1       3.719  -2.030   0.056  0.00  0.00    -0.286 N 
ATOM      4  C   UNL     1       2.538  -2.912   0.070  0.00  0.00    +0.109 C 
ATOM      5  C   UNL     1       3.061  -4.282  -0.429  0.00  0.00    +0.021 C 
ATOM      6  C   UNL     1       4.470  -4.332   0.217  0.00  0.00    +0.033 C 
ATOM      7  C   UNL     1       4.929  -2.860   0.155  0.00  0.00    +0.162 C 
ENDROOT
BRANCH   1  11
ATOM      8  C   UNL     1      -0.017   1.379   0.016  0.00  0.00    +0.034 A 
ATOM      9  C   UNL     1       0.983   1.783  -0.852  0.00  0.00    +0.017 A 
ATOM     10  C   UNL     1       2.191   1.117  -0.875  0.00  0.00    +0.026 A 
ATOM     11  C   UNL     1       2.404   0.033  -0.019  0.00  0.00    +0.052 A 
ATOM     12  C   UNL     1       1.391  -0.368   0.853  0.00  0.00    +0.046 A 
ATOM     13  C   UNL     1       0.187   0.306   0.865  0.00  0.00    +0.127 A 
ATOM     14  I   UNL     1       3.703   1.729  -2.189  0.00  0.00    -0.043 I 
BRANCH  13  15
ATOM     15  N   UNL     1      -0.888  -0.118   1.790  0.00  0.00    +0.056 N 
ATOM     16  O   UNL     1      -1.943   0.472   1.802  0.00  0.00    -0.126 OA
ATOM     17  O   UNL     1      -0.711  -1.055   2.533  0.00  0.00    -0.126 OA
ENDBRANCH  13  15
ENDBRANCH   1  11
BRANCH   7  18
ATOM     18  C   UNL     1       5.801  -2.642  -1.054  0.00  0.00    +0.231 C 
ATOM     19  O   UNL     1       5.453  -1.869  -1.921  0.00  0.00    -0.274 OA
ATOM     20  N   UNL     1       6.968  -3.307  -1.172  0.00  0.00    -0.328 N 
ATOM     21  H   UNL     1       7.246  -3.925  -0.478  0.00  0.00    +0.145 HD
ATOM     22  H   UNL     1       7.529  -3.167  -1.950  0.00  0.00    +0.145 HD
ENDBRANCH   7  18
TORSDOF 3
