REMARK  Name = ZINC67586717
REMARK  3 active torsions:
REMARK  status: ('A' for Active; 'I' for Inactive)
REMARK    1  A    between atoms: C_1  and  C_2
REMARK    2  A    between atoms: C_2  and  C_3
REMARK    3  A    between atoms: C_16  and  C_18
REMARK                            x       y       z     vdW  Elec       q    Type
REMARK                         _______ _______ _______ _____ _____    ______ ____
ROOT
ATOM      1  C   UNL     1      -1.430  -0.531   0.007  0.00  0.00    +0.006 C 
ATOM      2  C   UNL     1      -1.411  -2.056   0.128  0.00  0.00    +0.006 C 
ATOM      3  C   UNL     1      -2.847  -2.583   0.177  0.00  0.00    +0.019 C 
ATOM      4  C   UNL     1      -3.569  -2.210  -1.122  0.00  0.00    +0.109 C 
ATOM      5  N   UNL     1      -3.466  -0.758  -1.319  0.00  0.00    -0.285 N 
ATOM      6  C   UNL     1      -2.136  -0.133  -1.293  0.00  0.00    +0.112 C 
ATOM      7  C   UNL     1      -4.570  -0.012  -1.521  0.00  0.00    +0.308 C 
ATOM      8  O   UNL     1      -4.482   1.199  -1.588  0.00  0.00    -0.252 OA
ATOM      9  N   UNL     1      -5.772  -0.608  -1.648  0.00  0.00    -0.247 N 
ATOM     10  C   UNL     1      -6.895   0.150  -1.959  0.00  0.00    +0.189 A 
ATOM     11  N   UNL     1      -6.989   1.448  -2.172  0.00  0.00    -0.125 NA
ATOM     12  N   UNL     1      -8.091   2.001  -2.449  0.00  0.00    -0.139 NA
ATOM     13  C   UNL     1      -9.178   1.261  -2.528  0.00  0.00    +0.169 A 
ATOM     14  S   UNL     1      -8.491  -0.350  -2.171  0.00  0.00    -0.030 S 
ATOM     15  H   UNL     1      -5.853  -1.567  -1.522  0.00  0.00    +0.158 HD
ENDROOT
BRANCH  13  16
ATOM     16  C   UNL     1     -10.598   1.659  -2.837  0.00  0.00    +0.398 C 
ATOM     17  F   UNL     1     -10.597   2.774  -3.682  0.00  0.00    -0.202 F 
ATOM     18  F   UNL     1     -11.254   0.596  -3.468  0.00  0.00    -0.202 F 
ENDBRANCH  13  16
BRANCH   1  20
ATOM     19  C   UNL     1      -0.014   1.528  -0.005  0.00  0.00    +0.004 C 
ATOM     20  C   UNL     1       0.005  -0.002  -0.008  0.00  0.00    +0.002 C 
ENDBRANCH   1  20
TORSDOF 2
