REMARK  Name = ZINC05029622
REMARK  11 active torsions:
REMARK  status: ('A' for Active; 'I' for Inactive)
REMARK    1  A    between atoms: C_1  and  C_2
REMARK    2  A    between atoms: C_2  and  C_3
REMARK    3  A    between atoms: C_3  and  C_5
REMARK    4  A    between atoms: C_3  and  C_6
REMARK    5  A    between atoms: C_9  and  N_12
REMARK    6  A    between atoms: C_13  and  N_33
REMARK    7  A    between atoms: C_14  and  C_25
REMARK    8  A    between atoms: N_27  and  C_28
REMARK    9  A    between atoms: C_28  and  C_30
REMARK   10  A    between atoms: C_28  and  C_31
REMARK   11  A    between atoms: C_31  and  C_32
REMARK                            x       y       z     vdW  Elec       q    Type
REMARK                         _______ _______ _______ _____ _____    ______ ____
ROOT
ATOM      1  N   UNL     1       1.132  -0.766  -0.013  0.00  0.00    -0.280 N 
ATOM      2  C   UNL     1       0.002  -0.004   0.002  0.00  0.00    +0.117 A 
ATOM      3  C   UNL     1      -1.129  -0.813   0.015  0.00  0.00    +0.104 A 
ATOM      4  C   UNL     1      -0.649  -2.204  -0.004  0.00  0.00    +0.123 A 
ATOM      5  C   UNL     1       0.814  -2.111  -0.017  0.00  0.00    +0.166 A 
ATOM      6  N   UNL     1       1.532  -3.213  -0.030  0.00  0.00    -0.225 NA
ATOM      7  C   UNL     1       0.924  -4.406  -0.030  0.00  0.00    +0.092 A 
ATOM      8  C   UNL     1       1.685  -5.590  -0.044  0.00  0.00    +0.030 A 
ATOM      9  C   UNL     1       1.058  -6.797  -0.045  0.00  0.00    +0.002 A 
ATOM     10  C   UNL     1      -0.333  -6.884  -0.033  0.00  0.00    +0.002 A 
ATOM     11  C   UNL     1      -1.102  -5.762  -0.019  0.00  0.00    +0.030 A 
ATOM     12  C   UNL     1      -0.490  -4.494  -0.018  0.00  0.00    +0.090 A 
ATOM     13  N   UNL     1      -1.237  -3.383  -0.005  0.00  0.00    -0.241 NA
ENDROOT
BRANCH   1  17
ATOM     14  C   UNL     1       5.014   0.750  -0.043  0.00  0.00    -0.044 A 
ATOM     15  C   UNL     1       4.198   0.965   1.053  0.00  0.00    +0.006 A 
ATOM     16  C   UNL     1       2.911   0.464   1.065  0.00  0.00    +0.026 A 
ATOM     17  C   UNL     1       2.437  -0.256  -0.023  0.00  0.00    +0.050 A 
ATOM     18  C   UNL     1       3.261  -0.475  -1.119  0.00  0.00    +0.026 A 
ATOM     19  C   UNL     1       4.545   0.033  -1.128  0.00  0.00    +0.006 A 
BRANCH  14  20
ATOM     20  C   UNL     1       6.418   1.298  -0.053  0.00  0.00    +0.016 C 
ATOM     21  C   UNL     1       7.414   0.145  -0.195  0.00  0.00    +0.012 C 
BRANCH  20  23
ATOM     22  C   UNL     1       7.964   2.911  -1.171  0.00  0.00    +0.004 C 
ATOM     23  C   UNL     1       6.581   2.260  -1.231  0.00  0.00    +0.004 C 
ENDBRANCH  20  23
ENDBRANCH  14  20
ENDBRANCH   1  17
BRANCH   3  24
ATOM     24  C   UNL     1      -2.521  -0.369   0.037  0.00  0.00    +0.250 C 
ATOM     25  O   UNL     1      -3.117  -0.178  -1.007  0.00  0.00    -0.270 OA
ATOM     26  N   UNL     1      -3.145  -0.170   1.215  0.00  0.00    -0.309 N 
ATOM     27  H   UNL     1      -2.671  -0.321   2.047  0.00  0.00    +0.149 HD
BRANCH  26  28
ATOM     28  C   UNL     1      -4.541   0.276   1.238  0.00  0.00    +0.070 C 
ATOM     29  C   UNL     1      -4.592   1.800   1.121  0.00  0.00    +0.028 C 
BRANCH  28  30
ATOM     30  C   UNL     1      -5.192  -0.157   2.553  0.00  0.00    +0.018 C 
ATOM     31  C   UNL     1      -5.254  -1.684   2.614  0.00  0.00    +0.005 C 
ENDBRANCH  28  30
ENDBRANCH  26  28
ENDBRANCH   3  24
BRANCH   2  32
ATOM     32  N   UNL     1      -0.017   1.367   0.010  0.00  0.00    -0.343 N 
ATOM     33  H   UNL     1       0.817   1.863   0.004  0.00  0.00    +0.144 HD
ATOM     34  H   UNL     1      -0.863   1.840   0.016  0.00  0.00    +0.144 HD
ENDBRANCH   2  32
TORSDOF 7
