REMARK  Name = ZINC47648861
REMARK  9 active torsions:
REMARK  status: ('A' for Active; 'I' for Inactive)
REMARK    1  A    between atoms: C_1  and  N_2
REMARK    2  A    between atoms: N_2  and  C_3
REMARK    3  A    between atoms: N_2  and  C_4
REMARK    4  A    between atoms: C_4  and  C_6
REMARK    5  A    between atoms: C_4  and  C_24
REMARK    6  A    between atoms: C_6  and  N_7
REMARK    7  A    between atoms: C_8  and  C_10
REMARK    8  A    between atoms: C_10  and  N_11
REMARK    9  A    between atoms: C_12  and  C_14
REMARK                            x       y       z     vdW  Elec       q    Type
REMARK                         _______ _______ _______ _____ _____    ______ ____
ROOT
ATOM      1  N   UNL     1      -0.914  -2.531   0.563  0.00  0.00    -0.315 N 
ATOM      2  C   UNL     1      -0.976  -3.877   0.530  0.00  0.00    +0.230 C 
ATOM      3  O   UNL     1      -1.633  -4.433  -0.325  0.00  0.00    -0.274 OA
ATOM      4  H   UNL     1      -0.389  -2.087   1.247  0.00  0.00    +0.149 HD
ENDROOT
BRANCH   1   5
ATOM      5  C   UNL     1      -1.640  -1.740  -0.433  0.00  0.00    +0.096 C 
BRANCH   5   6
ATOM      6  C   UNL     1      -1.509  -0.253  -0.097  0.00  0.00    +0.016 C 
BRANCH   6   7
ATOM      7  C   UNL     1      -0.070   0.169  -0.239  0.00  0.00    +0.093 A 
ATOM      8  C   UNL     1       0.460   0.819  -1.291  0.00  0.00    +0.043 A 
ATOM      9  C   UNL     1       1.831   1.013  -1.006  0.00  0.00    +0.041 A 
ATOM     10  C   UNL     1       2.058   0.470   0.204  0.00  0.00    +0.195 A 
ATOM     11  O   UNL     1       0.902  -0.035   0.666  0.00  0.00    -0.469 OA
ENDBRANCH   6   7
BRANCH   6  13
ATOM     12  C   UNL     1      -1.819   1.404   1.610  0.00  0.00    -0.096 C 
ATOM     13  N   UNL     1      -1.953  -0.022   1.284  0.00  0.00    +0.384 N 
ATOM     14  C   UNL     1      -3.359  -0.425   1.421  0.00  0.00    -0.096 C 
ATOM     15  H   UNL     1      -1.385  -0.566   1.916  0.00  0.00    -0.082 HD
ENDBRANCH   6  13
ENDBRANCH   5   6
ENDBRANCH   1   5
BRANCH   2  16
ATOM     16  C   UNL     1      -0.229  -4.691   1.555  0.00  0.00    +0.200 C 
BRANCH  16  17
ATOM     17  N   UNL     1      -0.456  -6.117   1.305  0.00  0.00    -0.306 N 
ATOM     18  C   UNL     1       0.117  -7.040   2.103  0.00  0.00    +0.220 C 
ATOM     19  O   UNL     1       0.821  -6.691   3.027  0.00  0.00    -0.275 OA
ATOM     20  H   UNL     1      -1.018  -6.397   0.566  0.00  0.00    +0.149 HD
BRANCH  18  21
ATOM     21  C   UNL     1      -0.115  -8.507   1.846  0.00  0.00    +0.048 C 
ATOM     22  C   UNL     1      -1.612  -8.811   1.945  0.00  0.00    +0.019 C 
ATOM     23  C   UNL     1      -1.848 -10.300   1.684  0.00  0.00    -0.009 C 
ATOM     24  C   UNL     1      -1.090 -11.126   2.725  0.00  0.00    +0.007 C 
ATOM     25  C   UNL     1       0.406 -10.823   2.626  0.00  0.00    -0.009 C 
ATOM     26  C   UNL     1       0.643  -9.334   2.886  0.00  0.00    +0.019 C 
ATOM     27  C   UNL     1       0.908 -11.181   1.225  0.00  0.00    +0.007 C 
ATOM     28  C   UNL     1       0.150 -10.354   0.185  0.00  0.00    -0.009 C 
ATOM     29  C   UNL     1      -1.347 -10.658   0.284  0.00  0.00    +0.007 C 
ATOM     30  C   UNL     1       0.386  -8.865   0.446  0.00  0.00    +0.019 C 
ENDBRANCH  18  21
ENDBRANCH  16  17
ENDBRANCH   2  16
TORSDOF 7
