REMARK  Name = ZINC11615758
REMARK  6 active torsions:
REMARK  status: ('A' for Active; 'I' for Inactive)
REMARK    1  A    between atoms: C_4  and  C_7
REMARK    2  A    between atoms: C_8  and  C_27
REMARK    3  A    between atoms: C_11  and  N_16
REMARK    4  A    between atoms: N_16  and  S_17
REMARK    5  A    between atoms: S_17  and  C_20
REMARK    6  A    between atoms: N_29  and  O_30
REMARK                            x       y       z     vdW  Elec       q    Type
REMARK                         _______ _______ _______ _____ _____    ______ ____
ROOT
ATOM      1  C   UNL     1       4.530   0.652  -0.038  0.00  0.00    +0.148 A 
ATOM      2  C   UNL     1       3.797   1.827  -0.024  0.00  0.00    +0.092 A 
ATOM      3  C   UNL     1       2.382   1.410  -0.013  0.00  0.00    +0.035 A 
ATOM      4  C   UNL     1       1.172   2.098   0.002  0.00  0.00    +0.037 A 
ATOM      5  C   UNL     1      -0.017   1.389   0.010  0.00  0.00    +0.049 A 
ATOM      6  C   UNL     1       0.002  -0.004   0.002  0.00  0.00    +0.028 A 
ATOM      7  C   UNL     1       1.197  -0.689  -0.013  0.00  0.00    +0.049 A 
ATOM      8  C   UNL     1       2.401   0.007  -0.021  0.00  0.00    +0.137 A 
ATOM      9  O   UNL     1       3.690  -0.395  -0.036  0.00  0.00    -0.454 OA
ENDROOT
BRANCH   1  13
ATOM     10  C   UNL     1       8.767   0.400  -0.080  0.00  0.00    +0.000 A 
ATOM     11  C   UNL     1       8.008  -0.758  -0.079  0.00  0.00    +0.001 A 
ATOM     12  C   UNL     1       6.631  -0.683  -0.065  0.00  0.00    +0.011 A 
ATOM     13  C   UNL     1       6.003   0.564  -0.052  0.00  0.00    +0.018 A 
ATOM     14  C   UNL     1       6.775   1.728  -0.059  0.00  0.00    +0.011 A 
ATOM     15  C   UNL     1       8.151   1.639  -0.067  0.00  0.00    +0.001 A 
ENDBRANCH   1  13
BRANCH   2  16
ATOM     16  C   UNL     1       4.319   3.199  -0.021  0.00  0.00    +0.271 C 
ATOM     17  O   UNL     1       4.525   3.774  -1.074  0.00  0.00    -0.268 OA
ATOM     18  N   UNL     1       4.569   3.822   1.147  0.00  0.00    -0.193 N 
ATOM     19  H   UNL     1       4.404   3.364   1.986  0.00  0.00    +0.183 HD
BRANCH  18  20
ATOM     20  O   UNL     1       5.072   5.146   1.150  0.00  0.00    -0.295 OA
ATOM     21  H   UNL     1       5.219   5.508   2.035  0.00  0.00    +0.241 HD
ENDBRANCH  18  20
ENDBRANCH   2  16
BRANCH   5  22
ATOM     22  N   UNL     1      -1.238   2.071   0.019  0.00  0.00    -0.216 N 
ATOM     23  H   UNL     1      -1.374   2.830  -0.570  0.00  0.00    +0.174 HD
BRANCH  22  24
ATOM     24  S   UNL     1      -2.450   1.585   1.036  0.00  0.00    +0.072 S 
ATOM     25  O   UNL     1      -3.535   2.480   0.833  0.00  0.00    -0.150 OA
ATOM     26  O   UNL     1      -2.581   0.180   0.870  0.00  0.00    -0.150 OA
BRANCH  24  27
ATOM     27  C   UNL     1      -1.884   1.846   2.684  0.00  0.00    +0.109 A 
ATOM     28  C   UNL     1      -1.209   0.840   3.350  0.00  0.00    +0.030 A 
ATOM     29  C   UNL     1      -0.759   1.046   4.641  0.00  0.00    +0.022 A 
ATOM     30  C   UNL     1      -0.996   2.256   5.271  0.00  0.00    +0.041 A 
ATOM     31  C   UNL     1      -1.677   3.260   4.606  0.00  0.00    +0.022 A 
ATOM     32  C   UNL     1      -2.121   3.054   3.313  0.00  0.00    +0.030 A 
ATOM     33 CL   UNL     1      -0.438   2.513   6.894  0.00  0.00    -0.084 Cl
ENDBRANCH  24  27
ENDBRANCH  22  24
ENDBRANCH   5  22
TORSDOF 6
