REMARK  Name = ZINC39761665
REMARK  15 active torsions:
REMARK  status: ('A' for Active; 'I' for Inactive)
REMARK    1  A    between atoms: C_1  and  C_2
REMARK    2  A    between atoms: C_2  and  C_3
REMARK    3  A    between atoms: C_8  and  N_9
REMARK    4  A    between atoms: C_10  and  C_12
REMARK    5  A    between atoms: C_12  and  S_13
REMARK    6  A    between atoms: S_13  and  C_14
REMARK    7  A    between atoms: C_17  and  CA_23
REMARK    8  A    between atoms: N_18  and  C_19
REMARK    9  A    between atoms: C_19  and  C_20
REMARK   10  A    between atoms: C_20  and  C_21
REMARK   11  A    between atoms: C_20  and  C_22
REMARK   12  A    between atoms: CA_23  and  C_25
REMARK   13  A    between atoms: CA_23  and  N_27
REMARK   14  A    between atoms: C_25  and  O_26
REMARK   15  A    between atoms: C_28  and  C_30
REMARK                            x       y       z     vdW  Elec       q    Type
REMARK                         _______ _______ _______ _____ _____    ______ ____
ROOT
ATOM      1  C   UNL     1      -1.567  -0.142  -7.371  0.00  0.00    +0.192 A 
ATOM      2  N   UNL     1      -0.296   0.180  -7.433  0.00  0.00    -0.122 NA
ATOM      3  N   UNL     1       0.064   0.303  -8.661  0.00  0.00    -0.131 NA
ATOM      4  C   UNL     1      -0.947   0.068  -9.449  0.00  0.00    +0.157 A 
ATOM      5  N   UNL     1      -2.021  -0.230  -8.656  0.00  0.00    -0.304 N 
ENDROOT
BRANCH   1   6
ATOM      6  S   UNL     1      -2.508  -0.417  -5.907  0.00  0.00    -0.077 S 
BRANCH   6   7
ATOM      7  C   UNL     1      -1.320  -0.142  -4.564  0.00  0.00    +0.173 C 
BRANCH   7   9
ATOM      8  N   UNL     1      -1.313  -0.196  -2.091  0.00  0.00    -0.285 N 
ATOM      9  C   UNL     1      -2.005  -0.348  -3.237  0.00  0.00    +0.227 C 
ATOM     10  O   UNL     1      -3.179  -0.651  -3.202  0.00  0.00    -0.275 OA
ATOM     11  H   UNL     1      -0.395   0.116  -2.116  0.00  0.00    +0.155 HD
BRANCH   8  17
ATOM     12  C   UNL     1      -1.167  -1.024   0.173  0.00  0.00    -0.026 A 
ATOM     13  C   UNL     1      -1.767  -1.306   1.385  0.00  0.00    +0.005 A 
ATOM     14  C   UNL     1      -3.116  -1.062   1.564  0.00  0.00    +0.000 A 
ATOM     15  C   UNL     1      -3.869  -0.534   0.531  0.00  0.00    +0.002 A 
ATOM     16  C   UNL     1      -3.275  -0.249  -0.683  0.00  0.00    +0.023 A 
ATOM     17  C   UNL     1      -1.919  -0.488  -0.864  0.00  0.00    +0.037 A 
BRANCH  12  19
ATOM     18  C   UNL     1       1.095  -0.012   0.261  0.00  0.00    +0.009 C 
ATOM     19  C   UNL     1       0.303  -1.291  -0.021  0.00  0.00    +0.033 C 
ENDBRANCH  12  19
ENDBRANCH   8  17
ENDBRANCH   7   9
ENDBRANCH   6   7
ENDBRANCH   1   6
BRANCH   5  20
ATOM     20  C   UNL     1      -3.377  -0.569  -9.094  0.00  0.00    +0.128 C 
BRANCH  20  21
ATOM     21  C   UNL     1      -3.451  -2.062  -9.416  0.00  0.00    +0.003 C 
ATOM     22  C   UNL     1      -3.224  -2.871  -8.137  0.00  0.00    +0.009 C 
ATOM     23  C   UNL     1      -4.830  -2.393  -9.991  0.00  0.00    +0.009 C 
ENDBRANCH  20  21
ENDBRANCH   5  20
BRANCH   4  24
ATOM     24  CA  UNL     1      -0.933   0.110 -10.955  0.00  0.00    +0.167 C 
BRANCH  24  25
ATOM     25  N   UNL     1       0.205  -0.665 -11.455  0.00  0.00    -0.299 N 
ATOM     26  C   UNL     1       0.166  -1.197 -12.693  0.00  0.00    +0.245 C 
ATOM     27  O   UNL     1      -0.813  -1.034 -13.395  0.00  0.00    -0.270 OA
ATOM     28  H   UNL     1       0.986  -0.795 -10.896  0.00  0.00    +0.150 HD
BRANCH  26  29
ATOM     29  C   UNL     1       1.314  -1.979 -13.198  0.00  0.00    +0.037 A 
ATOM     30  C   UNL     1       2.438  -2.173 -12.392  0.00  0.00    +0.014 A 
ATOM     31  C   UNL     1       3.506  -2.904 -12.868  0.00  0.00    +0.021 A 
ATOM     32  C   UNL     1       3.466  -3.445 -14.143  0.00  0.00    +0.041 A 
ATOM     33  C   UNL     1       2.354  -3.255 -14.946  0.00  0.00    +0.021 A 
ATOM     34  C   UNL     1       1.277  -2.531 -14.479  0.00  0.00    +0.014 A 
ATOM     35 CL   UNL     1       4.815  -4.362 -14.736  0.00  0.00    -0.084 Cl
ENDBRANCH  26  29
ENDBRANCH  24  25
BRANCH  24  36
ATOM     36  C   UNL     1      -0.808   1.561 -11.424  0.00  0.00    +0.186 C 
BRANCH  36  37
ATOM     37  O   UNL     1       0.355   2.151 -10.839  0.00  0.00    -0.393 OA
ATOM     38  H   UNL     1       0.498   3.073 -11.093  0.00  0.00    +0.209 HD
ENDBRANCH  36  37
ENDBRANCH  24  36
ENDBRANCH   4  24
TORSDOF 12
