REMARK  Name = ZINC36252091
REMARK  5 active torsions:
REMARK  status: ('A' for Active; 'I' for Inactive)
REMARK    1  A    between atoms: C_1  and  C_2
REMARK    2  A    between atoms: C_2  and  C_3
REMARK    3  A    between atoms: C_2  and  C_4
REMARK    4  A    between atoms: C_2  and  C_5
REMARK    5  A    between atoms: C_11  and  N_15
REMARK                            x       y       z     vdW  Elec       q    Type
REMARK                         _______ _______ _______ _____ _____    ______ ____
ROOT
ATOM      1  C   UNL     1       0.707  -0.490  -1.238  0.00  0.00    +0.143 A 
ATOM      2  N   UNL     1       0.192  -1.243  -2.176  0.00  0.00    -0.133 NA
ATOM      3  N   UNL     1       1.066  -1.473  -3.093  0.00  0.00    -0.128 NA
ATOM      4  C   UNL     1       2.202  -0.869  -2.781  0.00  0.00    +0.175 A 
ATOM      5  N   UNL     1       1.994  -0.222  -1.589  0.00  0.00    -0.283 N 
ATOM      6  C   UNL     1       2.996   0.503  -1.009  0.00  0.00    +0.117 A 
ATOM      7  C   UNL     1       4.210   0.596  -1.605  0.00  0.00    +0.043 A 
ATOM      8  C   UNL     1       4.449  -0.056  -2.832  0.00  0.00    +0.043 A 
ATOM      9  C   UNL     1       3.459  -0.786  -3.412  0.00  0.00    +0.064 A 
ATOM     10 BR   UNL     1       3.760  -1.666  -5.058  0.00  0.00    -0.046 Br
ENDROOT
BRANCH   1  12
ATOM     11  C   UNL     1      -0.019   1.526   0.010  0.00  0.00    +0.019 C 
ATOM     12  C   UNL     1       0.002  -0.004   0.002  0.00  0.00    +0.023 C 
ATOM     13  C   UNL     1       0.742  -0.511   1.242  0.00  0.00    +0.019 C 
ATOM     14  C   UNL     1      -1.433  -0.534   0.013  0.00  0.00    +0.019 C 
ENDBRANCH   1  12
BRANCH   7  15
ATOM     15  N   UNL     1       5.230   1.343  -1.001  0.00  0.00    -0.357 N 
ATOM     16  H   UNL     1       5.067   1.792  -0.157  0.00  0.00    +0.142 HD
ATOM     17  H   UNL     1       6.099   1.410  -1.426  0.00  0.00    +0.142 HD
ENDBRANCH   7  15
TORSDOF 2
