REMARK  Name = ZINC01423087
REMARK  8 active torsions:
REMARK  status: ('A' for Active; 'I' for Inactive)
REMARK    1  A    between atoms: C_1  and  C_2
REMARK    2  A    between atoms: C_2  and  C_3
REMARK    3  A    between atoms: C_6  and  N_9
REMARK    4  A    between atoms: C_15  and  C_17
REMARK    5  A    between atoms: C_15  and  C_18
REMARK    6  A    between atoms: N_26  and  C_29
REMARK    7  A    between atoms: C_30  and  C_33
REMARK    8  A    between atoms: C_31  and  N_32
REMARK                            x       y       z     vdW  Elec       q    Type
REMARK                         _______ _______ _______ _____ _____    ______ ____
ROOT
ATOM      1  N   UNL     1      -4.893   3.043   0.030  0.00  0.00    -0.260 N 
ATOM      2  C   UNL     1      -4.654   3.822  -1.071  0.00  0.00    +0.026 C 
ATOM      3  C   UNL     1      -3.450   4.408  -1.251  0.00  0.00    +0.037 C 
ATOM      4  C   UNL     1      -3.200   5.222  -2.370  0.00  0.00    +0.163 C 
ATOM      5  O   UNL     1      -2.103   5.728  -2.506  0.00  0.00    -0.292 OA
ATOM      6  C   UNL     1      -4.263   5.478  -3.402  0.00  0.00    +0.086 C 
ATOM      7  C   UNL     1      -5.640   5.380  -2.736  0.00  0.00    -0.023 C 
ATOM      8  C   UNL     1      -5.764   4.004  -2.077  0.00  0.00    +0.058 C 
ATOM      9  C   UNL     1      -5.775   6.472  -1.673  0.00  0.00    +0.011 C 
ATOM     10  C   UNL     1      -6.735   5.550  -3.791  0.00  0.00    +0.011 C 
ATOM     11  C   UNL     1      -2.338   4.208  -0.254  0.00  0.00    +0.141 C 
ATOM     12  C   UNL     1      -1.293   3.290  -0.811  0.00  0.00    -0.001 A 
ATOM     13  C   UNL     1      -1.355   1.971  -1.205  0.00  0.00    +0.007 A 
ATOM     14  C   UNL     1      -0.180   1.400  -1.684  0.00  0.00    +0.000 A 
ATOM     15  C   UNL     1       0.990   2.128  -1.769  0.00  0.00    +0.002 A 
ATOM     16  C   UNL     1       1.058   3.457  -1.380  0.00  0.00    +0.024 A 
ATOM     17  C   UNL     1      -0.114   4.040  -0.892  0.00  0.00    +0.041 A 
ATOM     18  N   UNL     1      -0.330   5.328  -0.439  0.00  0.00    -0.273 N 
ATOM     19  C   UNL     1      -1.606   5.518  -0.043  0.00  0.00    +0.240 C 
ATOM     20  O   UNL     1      -2.078   6.545   0.397  0.00  0.00    -0.274 OA
ATOM     21  C   UNL     1       0.704   6.365  -0.394  0.00  0.00    +0.138 C 
ATOM     22  C   UNL     1      -2.858   3.697   1.056  0.00  0.00    +0.089 C 
ATOM     23  C   UNL     1      -4.094   3.140   1.147  0.00  0.00    +0.108 C 
ENDROOT
BRANCH   1  27
ATOM     24  C   UNL     1      -8.075   0.354  -0.002  0.00  0.00    -0.048 A 
ATOM     25  C   UNL     1      -8.253   1.627   0.505  0.00  0.00    +0.005 A 
ATOM     26  C   UNL     1      -7.200   2.521   0.518  0.00  0.00    +0.024 A 
ATOM     27  C   UNL     1      -5.961   2.140   0.020  0.00  0.00    +0.040 A 
ATOM     28  C   UNL     1      -5.787   0.861  -0.494  0.00  0.00    +0.024 A 
ATOM     29  C   UNL     1      -6.842  -0.030  -0.499  0.00  0.00    +0.005 A 
BRANCH  24  31
ATOM     30  C   UNL     1      -9.997  -0.480  -1.328  0.00  0.00    +0.009 C 
ATOM     31  C   UNL     1      -9.225  -0.619  -0.014  0.00  0.00    +0.032 C 
ENDBRANCH  24  31
ENDBRANCH   1  27
BRANCH  23  32
ATOM     32  N   UNL     1      -4.548   2.673   2.357  0.00  0.00    -0.345 N 
ATOM     33  H   UNL     1      -3.956   2.660   3.126  0.00  0.00    +0.144 HD
ATOM     34  H   UNL     1      -5.461   2.357   2.444  0.00  0.00    +0.144 HD
ENDBRANCH  23  32
BRANCH  22  35
ATOM     35  C   UNL     1      -2.040   3.796   2.227  0.00  0.00    +0.100 C 
ATOM     36  N   UNL     1      -1.391   3.874   3.156  0.00  0.00    -0.191 NA
ENDBRANCH  22  35
TORSDOF 4
