REMARK  Name = ZINC09599572
REMARK  8 active torsions:
REMARK  status: ('A' for Active; 'I' for Inactive)
REMARK    1  A    between atoms: C_1  and  N_2
REMARK    2  A    between atoms: N_2  and  C_3
REMARK    3  A    between atoms: N_2  and  S_10
REMARK    4  A    between atoms: C_3  and  C_4
REMARK    5  A    between atoms: S_10  and  C_13
REMARK    6  A    between atoms: C_16  and  C_19
REMARK    7  A    between atoms: N_21  and  C_22
REMARK    8  A    between atoms: C_23  and  C_32
REMARK                            x       y       z     vdW  Elec       q    Type
REMARK                         _______ _______ _______ _____ _____    ______ ____
ROOT
ATOM      1  C   UNL     1       1.954   7.572   2.452  0.00  0.00    +0.249 C 
ATOM      2  O   UNL     1       1.250   8.442   2.928  0.00  0.00    -0.270 OA
ATOM      3  N   UNL     1       3.137   7.895   1.891  0.00  0.00    -0.275 N 
ATOM      4  H   UNL     1       3.699   7.201   1.511  0.00  0.00    +0.156 HD
ENDROOT
BRANCH   3   5
ATOM      5  C   UNL     1       3.550   9.217   1.857  0.00  0.00    +0.085 A 
ATOM      6  C   UNL     1       4.722   9.740   1.334  0.00  0.00    +0.068 A 
ATOM      7  C   UNL     1       4.917  11.181   1.416  0.00  0.00    -0.023 A 
ATOM      8  C   UNL     1       3.917  11.857   2.023  0.00  0.00    -0.004 A 
ATOM      9  S   UNL     1       2.730  10.617   2.463  0.00  0.00    -0.077 S 
ATOM     10  C   UNL     1       3.833  13.329   2.282  0.00  0.00    +0.043 C 
ATOM     11  C   UNL     1       4.168  14.090   0.993  0.00  0.00    +0.005 C 
ATOM     12  C   UNL     1       5.674  14.332   0.953  0.00  0.00    +0.001 C 
ATOM     13  C   UNL     1       6.410  13.171   1.619  0.00  0.00    +0.005 C 
ATOM     14  C   UNL     1       6.155  11.873   0.860  0.00  0.00    +0.037 C 
BRANCH   6  15
ATOM     15  C   UNL     1       5.730   8.873   0.716  0.00  0.00    +0.244 C 
ATOM     16  O   UNL     1       5.678   8.634  -0.477  0.00  0.00    -0.270 OA
ATOM     17  N   UNL     1       6.714   8.341   1.467  0.00  0.00    -0.325 N 
ATOM     18  H   UNL     1       6.755   8.531   2.417  0.00  0.00    +0.145 HD
ATOM     19  H   UNL     1       7.380   7.767   1.058  0.00  0.00    +0.145 HD
ENDBRANCH   6  15
ENDBRANCH   3   5
BRANCH   1  23
ATOM     20  C   UNL     1       0.688   3.520   2.556  0.00  0.00    +0.106 A 
ATOM     21  C   UNL     1       1.905   3.846   1.984  0.00  0.00    +0.029 A 
ATOM     22  C   UNL     1       2.320   5.161   1.942  0.00  0.00    +0.015 A 
ATOM     23  C   UNL     1       1.514   6.162   2.489  0.00  0.00    +0.037 A 
ATOM     24  C   UNL     1       0.290   5.825   3.069  0.00  0.00    +0.015 A 
ATOM     25  C   UNL     1      -0.116   4.507   3.099  0.00  0.00    +0.029 A 
BRANCH  20  26
ATOM     26  S   UNL     1       0.163   1.838   2.600  0.00  0.00    +0.061 S 
ATOM     27  O   UNL     1      -0.756   1.728   3.678  0.00  0.00    -0.153 OA
ATOM     28  O   UNL     1       1.338   1.044   2.516  0.00  0.00    -0.153 OA
BRANCH  26  30
ATOM     29  C   UNL     1      -0.013   1.086   0.008  0.00  0.00    +0.131 C 
ATOM     30  N   UNL     1      -0.698   1.558   1.213  0.00  0.00    -0.177 NA
BRANCH  30  31
ATOM     31  C   UNL     1      -2.146   1.783   1.192  0.00  0.00    +0.140 C 
BRANCH  31  32
ATOM     32  C   UNL     1      -2.871   0.465   1.474  0.00  0.00    +0.134 C 
ATOM     33  C   UNL     1      -4.398   0.651   1.333  0.00  0.00    +0.035 C 
ATOM     34  C   UNL     1      -4.989  -0.237   2.451  0.00  0.00    +0.031 C 
ATOM     35  C   UNL     1      -3.748  -0.853   3.136  0.00  0.00    +0.160 C 
ATOM     36  O   UNL     1      -2.673   0.066   2.848  0.00  0.00    -0.375 OA
ENDBRANCH  31  32
ENDBRANCH  30  31
ENDBRANCH  26  30
ENDBRANCH  20  26
ENDBRANCH   1  23
TORSDOF 7
