REMARK  Name = ZINC06443567
REMARK  13 active torsions:
REMARK  status: ('A' for Active; 'I' for Inactive)
REMARK    1  A    between atoms: C_1  and  C_2
REMARK    2  A    between atoms: C_12  and  C_14
REMARK    3  A    between atoms: C_14  and  C_16
REMARK    4  A    between atoms: C_14  and  N_72
REMARK    5  A    between atoms: N_20  and  C_21
REMARK    6  A    between atoms: C_21  and  C_22
REMARK    7  A    between atoms: C_21  and  C_23
REMARK    8  A    between atoms: C_21  and  C_24
REMARK    9  A    between atoms: C_25  and  C_26
REMARK   10  A    between atoms: C_25  and  N_72
REMARK   11  A    between atoms: C_26  and  C_27
REMARK   12  A    between atoms: C_33  and  C_34
REMARK   13  A    between atoms: C_33  and  N_72
REMARK                            x       y       z     vdW  Elec       q    Type
REMARK                         _______ _______ _______ _____ _____    ______ ____
ROOT
ATOM      1  C   UNL     1       1.796   3.367   0.478  0.00  0.00    +0.039 C 
ENDROOT
BRANCH   1  13
ATOM      2  C   UNL     1      -1.098   5.884   5.816  0.00  0.00    +0.046 C 
ATOM      3  C   UNL     1       0.348   5.848   5.391  0.00  0.00    -0.026 A 
ATOM      4  C   UNL     1       1.318   6.416   6.189  0.00  0.00    +0.005 A 
ATOM      5  C   UNL     1       2.652   6.390   5.808  0.00  0.00    +0.001 A 
ATOM      6  C   UNL     1       3.029   5.801   4.635  0.00  0.00    +0.010 A 
ATOM      7  C   UNL     1       2.062   5.219   3.809  0.00  0.00    -0.001 A 
ATOM      8  C   UNL     1       0.708   5.243   4.192  0.00  0.00    +0.052 A 
ATOM      9  N   UNL     1      -0.242   4.668   3.374  0.00  0.00    -0.322 N 
ATOM     10  H   UNL     1      -1.175   4.686   3.639  0.00  0.00    +0.169 HD
ATOM     11  C   UNL     1       0.106   4.088   2.212  0.00  0.00    +0.251 A 
ATOM     12  O   UNL     1      -0.761   3.594   1.511  0.00  0.00    -0.268 OA
ATOM     13  C   UNL     1       1.450   4.032   1.785  0.00  0.00    +0.011 A 
ATOM     14  C   UNL     1       2.431   4.580   2.545  0.00  0.00    +0.017 A 
ENDBRANCH   1  13
BRANCH   1  15
ATOM     15  C   UNL     1       1.422   1.908   0.543  0.00  0.00    +0.143 A 
ATOM     16  N   UNL     1       0.221   1.401   0.407  0.00  0.00    -0.115 NA
ATOM     17  N   UNL     1       0.314   0.122   0.525  0.00  0.00    -0.023 NA
ATOM     18  N   UNL     1       1.543  -0.201   0.732  0.00  0.00    -0.043 NA
ATOM     19  N   UNL     1       2.257   0.873   0.750  0.00  0.00    -0.225 N 
BRANCH  19  20
ATOM     20  C   UNL     1       3.706   0.951   0.956  0.00  0.00    +0.059 C 
ATOM     21  C   UNL     1       4.252  -0.443   1.271  0.00  0.00    +0.036 C 
ATOM     22  C   UNL     1       4.373   1.486  -0.313  0.00  0.00    +0.036 C 
ATOM     23  C   UNL     1       4.004   1.892   2.124  0.00  0.00    +0.036 C 
ENDBRANCH  19  20
ENDBRANCH   1  15
BRANCH   1  24
ATOM     24  N   UNL     1       1.026   4.008  -0.609  0.00  0.00    +0.392 N 
ATOM     25  H   UNL     1       0.031   3.790  -0.486  0.00  0.00    -0.080 HD
BRANCH  24  26
ATOM     26  C   UNL     1       1.206   5.474  -0.558  0.00  0.00    -0.072 C 
BRANCH  26  27
ATOM     27  C   UNL     1       0.132   6.132  -1.427  0.00  0.00    +0.016 C 
BRANCH  27  28
ATOM     28  C   UNL     1       0.355   7.622  -1.459  0.00  0.00    -0.049 A 
ATOM     29  C   UNL     1      -0.248   8.432  -0.516  0.00  0.00    +0.003 A 
ATOM     30  C   UNL     1      -0.040   9.798  -0.543  0.00  0.00    +0.000 A 
ATOM     31  C   UNL     1       0.764  10.355  -1.520  0.00  0.00    +0.000 A 
ATOM     32  C   UNL     1       1.363   9.546  -2.467  0.00  0.00    +0.000 A 
ATOM     33  C   UNL     1       1.159   8.179  -2.437  0.00  0.00    +0.003 A 
ENDBRANCH  27  28
ENDBRANCH  26  27
ENDBRANCH  24  26
BRANCH  24  34
ATOM     34  C   UNL     1       1.474   3.490  -1.919  0.00  0.00    -0.042 C 
BRANCH  34  35
ATOM     35  C   UNL     1       0.759   2.192  -2.192  0.00  0.00    -0.064 A 
ATOM     36  C   UNL     1       1.391   0.988  -1.938  0.00  0.00    +0.002 A 
ATOM     37  C   UNL     1       0.733  -0.203  -2.184  0.00  0.00    +0.000 A 
ATOM     38  C   UNL     1      -0.551  -0.190  -2.694  0.00  0.00    +0.000 A 
ATOM     39  C   UNL     1      -1.181   1.013  -2.953  0.00  0.00    +0.000 A 
ATOM     40  C   UNL     1      -0.525   2.204  -2.702  0.00  0.00    +0.002 A 
ENDBRANCH  34  35
ENDBRANCH  24  34
ENDBRANCH   1  24
TORSDOF 9
