REMARK  Name = ZINC12479639
REMARK  15 active torsions:
REMARK  status: ('A' for Active; 'I' for Inactive)
REMARK    1  A    between atoms: C_1  and  C_2
REMARK    2  A    between atoms: C_5  and  C_8
REMARK    3  A    between atoms: C_8  and  C_10
REMARK    4  A    between atoms: C_8  and  N_18
REMARK    5  A    between atoms: N_12  and  C_13
REMARK    6  A    between atoms: C_13  and  C_14
REMARK    7  A    between atoms: C_14  and  C_15
REMARK    8  A    between atoms: C_15  and  C_16
REMARK    9  A    between atoms: C_15  and  C_17
REMARK   10  A    between atoms: N_18  and  C_19
REMARK   11  A    between atoms: C_24  and  O_25
REMARK   12  A    between atoms: O_25  and  C_26
REMARK   13  A    between atoms: C_27  and  C_29
REMARK   14  A    between atoms: C_30  and  N_37
REMARK   15  A    between atoms: C_31  and  C_34
REMARK                            x       y       z     vdW  Elec       q    Type
REMARK                         _______ _______ _______ _____ _____    ______ ____
ROOT
ATOM      1  N   UNL     1      -2.368   1.687   3.723  0.00  0.00    -0.247 N 
ATOM      2  C   UNL     1      -3.609   2.004   4.141  0.00  0.00    +0.262 C 
ATOM      3  O   UNL     1      -3.767   2.561   5.212  0.00  0.00    -0.269 OA
ENDROOT
BRANCH   1   4
ATOM      4  C   UNL     1      -2.187   1.045   2.491  0.00  0.00    +0.079 A 
ATOM      5  C   UNL     1      -2.014   1.794   1.336  0.00  0.00    +0.027 A 
ATOM      6  C   UNL     1      -1.841   1.159   0.121  0.00  0.00    +0.002 A 
ATOM      7  C   UNL     1      -1.835  -0.222   0.053  0.00  0.00    +0.004 A 
ATOM      8  C   UNL     1      -2.002  -0.975   1.201  0.00  0.00    +0.047 A 
ATOM      9  C   UNL     1      -2.176  -0.346   2.423  0.00  0.00    +0.141 A 
BRANCH   9  10
ATOM     10  O   UNL     1      -2.341  -1.085   3.552  0.00  0.00    -0.493 OA
ATOM     11  C   UNL     1      -2.324  -2.506   3.405  0.00  0.00    +0.277 C 
ENDBRANCH   9  10
ENDBRANCH   1   4
BRANCH   2  12
ATOM     12  C   UNL     1      -4.768   1.678   3.308  0.00  0.00    +0.116 A 
ATOM     13  C   UNL     1      -6.124   1.913   3.547  0.00  0.00    +0.076 A 
ATOM     14  C   UNL     1      -6.936   1.455   2.509  0.00  0.00    +0.155 A 
ATOM     15  N   UNL     1      -6.382   0.879   1.465  0.00  0.00    -0.203 NA
ATOM     16  S   UNL     1      -4.826   0.883   1.716  0.00  0.00    +0.019 S 
BRANCH  14  17
ATOM     17  C   UNL     1      -8.400   1.616   2.583  0.00  0.00    +0.262 C 
ATOM     18  O   UNL     1      -8.905   2.149   3.552  0.00  0.00    -0.269 OA
ATOM     19  N   UNL     1      -9.178   1.171   1.576  0.00  0.00    -0.324 N 
ATOM     20  H   UNL     1      -8.775   0.745   0.803  0.00  0.00    +0.145 HD
ATOM     21  H   UNL     1     -10.141   1.276   1.625  0.00  0.00    +0.145 HD
ENDBRANCH  14  17
BRANCH  13  22
ATOM     22  N   UNL     1      -6.609   2.534   4.690  0.00  0.00    -0.355 N 
ATOM     23  H   UNL     1      -5.995   2.831   5.379  0.00  0.00    +0.142 HD
ATOM     24  H   UNL     1      -7.564   2.670   4.800  0.00  0.00    +0.142 HD
ENDBRANCH  13  22
ENDBRANCH   2  12
BRANCH   1  25
ATOM     25  C   UNL     1      -1.208   2.013   4.556  0.00  0.00    +0.198 C 
BRANCH  25  30
ATOM     26  C   UNL     1      -0.562   7.750   4.799  0.00  0.00    +0.044 C 
ATOM     27  C   UNL     1      -0.730   6.254   4.736  0.00  0.00    -0.050 A 
ATOM     28  C   UNL     1      -0.691   5.504   5.896  0.00  0.00    +0.004 A 
ATOM     29  C   UNL     1      -0.846   4.131   5.839  0.00  0.00    +0.006 A 
ATOM     30  C   UNL     1      -1.040   3.509   4.620  0.00  0.00    -0.018 A 
ATOM     31  C   UNL     1      -1.073   4.258   3.458  0.00  0.00    +0.006 A 
ATOM     32  C   UNL     1      -0.924   5.631   3.517  0.00  0.00    +0.004 A 
ENDBRANCH  25  30
BRANCH  25  33
ATOM     33  C   UNL     1       0.029   1.392   3.960  0.00  0.00    +0.238 C 
ATOM     34  O   UNL     1       0.232   1.471   2.767  0.00  0.00    -0.273 OA
ATOM     35  N   UNL     1       0.910   0.751   4.753  0.00  0.00    -0.313 N 
ATOM     36  H   UNL     1       0.748   0.688   5.707  0.00  0.00    +0.149 HD
BRANCH  35  37
ATOM     37  C   UNL     1       2.113   0.148   4.173  0.00  0.00    +0.104 C 
BRANCH  37  38
ATOM     38  C   UNL     1       2.937  -0.512   5.281  0.00  0.00    +0.022 C 
BRANCH  38  39
ATOM     39  C   UNL     1       4.193  -1.142   4.676  0.00  0.00    -0.016 C 
ATOM     40  C   UNL     1       5.090  -0.042   4.105  0.00  0.00    +0.007 C 
ATOM     41  C   UNL     1       4.953  -1.908   5.760  0.00  0.00    +0.007 C 
ENDBRANCH  38  39
ENDBRANCH  37  38
ENDBRANCH  35  37
ENDBRANCH  25  33
ENDBRANCH   1  25
TORSDOF 11
