REMARK  Name = ZINC43254313
REMARK  7 active torsions:
REMARK  status: ('A' for Active; 'I' for Inactive)
REMARK    1  A    between atoms: C_1  and  C_2
REMARK    2  A    between atoms: C_2  and  C_3
REMARK    3  A    between atoms: C_2  and  C_4
REMARK    4  A    between atoms: C_2  and  N_5
REMARK    5  A    between atoms: C_6  and  C_24
REMARK    6  A    between atoms: N_15  and  C_18
REMARK    7  A    between atoms: C_27  and  O_30
REMARK                            x       y       z     vdW  Elec       q    Type
REMARK                         _______ _______ _______ _____ _____    ______ ____
ROOT
ATOM      1  N   UNL     1       0.795  -0.477  -1.252  0.00  0.00    -0.174 NA
ATOM      2  C   UNL     1       0.751  -1.973  -1.238  0.00  0.00    +0.130 C 
ATOM      3  C   UNL     1       2.211  -2.372  -1.077  0.00  0.00    +0.139 C 
ATOM      4  C   UNL     1       2.857  -1.156  -1.844  0.00  0.00    +0.241 C 
ATOM      5  O   UNL     1       2.236  -0.077  -1.272  0.00  0.00    -0.282 OA
ATOM      6  C   UNL     1       4.194  -1.663  -2.102  0.00  0.00    +0.254 C 
ATOM      7  O   UNL     1       5.226  -1.029  -2.139  0.00  0.00    -0.272 OA
ATOM      8  N   UNL     1       4.038  -3.011  -2.293  0.00  0.00    -0.236 N 
ATOM      9  C   UNL     1       2.802  -3.472  -1.900  0.00  0.00    +0.230 C 
ATOM     10  O   UNL     1       2.293  -4.540  -2.164  0.00  0.00    -0.275 OA
ENDROOT
BRANCH   8  11
ATOM     11  C   UNL     1       5.081  -3.877  -2.849  0.00  0.00    +0.084 C 
ATOM     12  C   UNL     1       6.319  -3.824  -1.952  0.00  0.00    +0.023 C 
ATOM     13  C   UNL     1       7.409  -4.728  -2.532  0.00  0.00    +0.002 C 
ATOM     14  C   UNL     1       7.776  -4.246  -3.937  0.00  0.00    +0.000 C 
ATOM     15  C   UNL     1       6.538  -4.299  -4.834  0.00  0.00    +0.002 C 
ATOM     16  C   UNL     1       5.449  -3.395  -4.254  0.00  0.00    +0.023 C 
ENDBRANCH   8  11
BRANCH   2  17
ATOM     17  C   UNL     1       0.193  -2.499  -2.535  0.00  0.00    -0.027 A 
ATOM     18  C   UNL     1       0.390  -1.794  -3.708  0.00  0.00    +0.009 A 
ATOM     19  C   UNL     1      -0.120  -2.274  -4.898  0.00  0.00    +0.046 A 
ATOM     20  C   UNL     1      -0.830  -3.466  -4.917  0.00  0.00    +0.117 A 
ATOM     21  C   UNL     1      -1.026  -4.172  -3.739  0.00  0.00    +0.046 A 
ATOM     22  C   UNL     1      -0.509  -3.690  -2.552  0.00  0.00    +0.009 A 
BRANCH  20  23
ATOM     23  O   UNL     1      -1.333  -3.940  -6.087  0.00  0.00    -0.507 OA
ATOM     24  H   UNL     1      -0.729  -4.522  -6.568  0.00  0.00    +0.292 HD
ENDBRANCH  20  23
ENDBRANCH   2  17
BRANCH   1  26
ATOM     25  C   UNL     1       0.197   1.608  -0.116  0.00  0.00    +0.030 C 
ATOM     26  C   UNL     1       0.109   0.081  -0.079  0.00  0.00    +0.039 C 
ATOM     27  C   UNL     1       0.777  -0.437   1.196  0.00  0.00    +0.030 C 
ATOM     28  C   UNL     1      -1.360  -0.346  -0.095  0.00  0.00    +0.030 C 
ENDBRANCH   1  26
TORSDOF 4
