REMARK  Name = ZINC03293061
REMARK  7 active torsions:
REMARK  status: ('A' for Active; 'I' for Inactive)
REMARK    1  A    between atoms: C_1  and  C_2
REMARK    2  A    between atoms: C_5  and  C_8
REMARK    3  A    between atoms: C_10  and  C_18
REMARK    4  A    between atoms: C_21  and  S_24
REMARK    5  A    between atoms: N_22  and  N_23
REMARK    6  A    between atoms: S_24  and  C_25
REMARK    7  A    between atoms: C_25  and  C_26
REMARK                            x       y       z     vdW  Elec       q    Type
REMARK                         _______ _______ _______ _____ _____    ______ ____
ROOT
ATOM      1  C   UNL     1      -1.145   5.881   0.045  0.00  0.00    +0.072 A 
ATOM      2  C   UNL     1      -2.402   5.269   0.054  0.00  0.00    +0.040 A 
ATOM      3  C   UNL     1      -2.485   3.880   0.047  0.00  0.00    +0.032 A 
ATOM      4  C   UNL     1      -1.226   3.132   0.031  0.00  0.00    +0.011 A 
ATOM      5  C   UNL     1      -1.208   1.733   0.017  0.00  0.00    +0.011 A 
ATOM      6  C   UNL     1      -0.013   1.076   0.008  0.00  0.00    +0.001 A 
ATOM      7  C   UNL     1       1.189   1.780   0.000  0.00  0.00    +0.002 A 
ATOM      8  C   UNL     1       1.205   3.142   0.008  0.00  0.00    +0.028 A 
ATOM      9  C   UNL     1      -0.008   3.853   0.023  0.00  0.00    +0.072 A 
ATOM     10  N   UNL     1      -0.023   5.189   0.030  0.00  0.00    -0.247 NA
ENDROOT
BRANCH   1  15
ATOM     11  C   UNL     1      -0.859  11.633   0.076  0.00  0.00    +0.044 C 
ATOM     12  C   UNL     1      -0.934  10.128   0.068  0.00  0.00    -0.050 A 
ATOM     13  C   UNL     1       0.230   9.380   0.052  0.00  0.00    +0.004 A 
ATOM     14  C   UNL     1       0.167   8.002   0.045  0.00  0.00    +0.010 A 
ATOM     15  C   UNL     1      -1.071   7.363   0.053  0.00  0.00    +0.000 A 
ATOM     16  C   UNL     1      -2.241   8.121   0.062  0.00  0.00    +0.010 A 
ATOM     17  C   UNL     1      -2.166   9.499   0.075  0.00  0.00    +0.004 A 
ENDBRANCH   1  15
BRANCH   3  18
ATOM     18  C   UNL     1      -3.788   3.190   0.054  0.00  0.00    +0.182 A 
ATOM     19  N   UNL     1      -3.983   1.890   0.043  0.00  0.00    -0.127 NA
ATOM     20  N   UNL     1      -5.243   1.636   0.058  0.00  0.00    -0.121 NA
ATOM     21  C   UNL     1      -5.930   2.759   0.071  0.00  0.00    +0.209 A 
ATOM     22  N   UNL     1      -5.030   3.785   0.069  0.00  0.00    -0.224 N 
BRANCH  22  23
ATOM     23  N   UNL     1      -5.303   5.123   0.081  0.00  0.00    -0.295 N 
ATOM     24  H   UNL     1      -5.384   5.484  -0.858  0.00  0.00    +0.163 HD
ATOM     25  H   UNL     1      -6.137   5.317   0.615  0.00  0.00    +0.163 HD
ENDBRANCH  22  23
BRANCH  21  26
ATOM     26  S   UNL     1      -7.685   2.910   0.087  0.00  0.00    -0.080 S 
BRANCH  26  27
ATOM     27  C   UNL     1      -8.151   1.161   0.081  0.00  0.00    +0.112 C 
BRANCH  27  28
ATOM     28  C   UNL     1      -9.653   1.042   0.093  0.00  0.00    -0.037 A 
ATOM     29  C   UNL     1     -10.331   0.974   1.296  0.00  0.00    +0.007 A 
ATOM     30  C   UNL     1     -11.709   0.869   1.309  0.00  0.00    +0.038 A 
ATOM     31  C   UNL     1     -12.410   0.821   0.116  0.00  0.00    +0.123 A 
ATOM     32  C   UNL     1     -11.730   0.884  -1.089  0.00  0.00    +0.038 A 
ATOM     33  C   UNL     1     -10.352   0.994  -1.099  0.00  0.00    +0.007 A 
ATOM     34  F   UNL     1     -13.757   0.714   0.127  0.00  0.00    -0.205 F 
ENDBRANCH  27  28
ENDBRANCH  26  27
ENDBRANCH  21  26
ENDBRANCH   3  18
TORSDOF 6
