REMARK  Name = ZINC08927194
REMARK  5 active torsions:
REMARK  status: ('A' for Active; 'I' for Inactive)
REMARK    1  A    between atoms: C_1  and  S_2
REMARK    2  A    between atoms: S_2  and  C_3
REMARK    3  A    between atoms: C_18  and  C_20
REMARK    4  A    between atoms: N_25  and  S_26
REMARK    5  A    between atoms: S_26  and  C_29
REMARK                            x       y       z     vdW  Elec       q    Type
REMARK                         _______ _______ _______ _____ _____    ______ ____
ROOT
ATOM      1  C   UNL     1      -6.906  -8.540   2.459  0.00  0.00    +0.009 A 
ATOM      2  C   UNL     1      -5.597  -8.812   2.069  0.00  0.00    +0.017 A 
ATOM      3  C   UNL     1      -4.608  -7.887   2.200  0.00  0.00    +0.030 A 
ATOM      4  C   UNL     1      -4.876  -6.608   2.740  0.00  0.00    +0.080 A 
ATOM      5  C   UNL     1      -6.212  -6.359   3.127  0.00  0.00    +0.042 A 
ATOM      6  C   UNL     1      -7.208  -7.293   2.995  0.00  0.00    +0.032 A 
ATOM      7  S   UNL     1      -6.125  -4.691   3.736  0.00  0.00    -0.052 S 
ATOM      8  C   UNL     1      -4.380  -4.437   3.447  0.00  0.00    +0.162 A 
ATOM      9  N   UNL     1      -4.011  -5.585   2.928  0.00  0.00    -0.225 NA
ATOM     10  N   UNL     1      -3.614  -3.316   3.701  0.00  0.00    -0.307 N 
ATOM     11  C   UNL     1      -2.215  -3.534   3.311  0.00  0.00    +0.126 C 
ATOM     12  C   UNL     1      -1.368  -2.343   3.772  0.00  0.00    +0.127 C 
ATOM     13  N   UNL     1      -1.974  -1.109   3.249  0.00  0.00    -0.297 N 
ATOM     14  C   UNL     1      -3.408  -0.882   3.488  0.00  0.00    +0.127 C 
ATOM     15  C   UNL     1      -4.176  -2.133   3.033  0.00  0.00    +0.126 C 
ATOM     16  C   UNL     1      -1.234  -0.206   2.575  0.00  0.00    +0.235 C 
ATOM     17  O   UNL     1      -0.052  -0.407   2.392  0.00  0.00    -0.274 OA
ENDROOT
BRANCH  16  18
ATOM     18  C   UNL     1      -1.875   1.052   2.048  0.00  0.00    +0.166 C 
ATOM     19  C   UNL     1      -2.422   1.893   3.221  0.00  0.00    +0.031 C 
ATOM     20  C   UNL     1      -2.106   3.347   2.782  0.00  0.00    +0.019 C 
ATOM     21  C   UNL     1      -0.748   3.162   2.055  0.00  0.00    +0.110 C 
ATOM     22  N   UNL     1      -0.872   1.871   1.353  0.00  0.00    -0.165 NA
BRANCH  22  23
ATOM     23  S   UNL     1      -0.017   1.417   0.010  0.00  0.00    +0.062 S 
ATOM     24  O   UNL     1       0.002  -0.004   0.002  0.00  0.00    -0.153 OA
ATOM     25  O   UNL     1       1.172   2.195   0.003  0.00  0.00    -0.153 OA
BRANCH  23  26
ATOM     26  C   UNL     1      -0.954   1.915  -1.397  0.00  0.00    +0.106 A 
ATOM     27  C   UNL     1      -1.879   1.052  -1.952  0.00  0.00    +0.031 A 
ATOM     28  C   UNL     1      -2.619   1.444  -3.052  0.00  0.00    +0.040 A 
ATOM     29  C   UNL     1      -2.424   2.698  -3.605  0.00  0.00    +0.124 A 
ATOM     30  C   UNL     1      -1.492   3.560  -3.051  0.00  0.00    +0.040 A 
ATOM     31  C   UNL     1      -0.758   3.168  -1.948  0.00  0.00    +0.031 A 
ATOM     32  F   UNL     1      -3.141   3.080  -4.684  0.00  0.00    -0.205 F 
ENDBRANCH  23  26
ENDBRANCH  22  23
ENDBRANCH  16  18
BRANCH   1  34
ATOM     33  C   UNL     1      -7.297 -11.178   1.551  0.00  0.00    +0.090 C 
ATOM     34  S   UNL     1      -8.164  -9.760   2.276  0.00  0.00    -0.129 S 
ENDBRANCH   1  34
TORSDOF 4
