REMARK  Name = ZINC19739890
REMARK  8 active torsions:
REMARK  status: ('A' for Active; 'I' for Inactive)
REMARK    1  A    between atoms: N_9  and  C_10
REMARK    2  A    between atoms: C_10  and  C_11
REMARK    3  A    between atoms: C_11  and  C_12
REMARK    4  A    between atoms: C_12  and  N_13
REMARK    5  A    between atoms: N_13  and  C_14
REMARK    6  A    between atoms: N_17  and  C_20
REMARK    7  A    between atoms: C_23  and  C_26
REMARK    8  A    between atoms: C_32  and  O_35
REMARK                            x       y       z     vdW  Elec       q    Type
REMARK                         _______ _______ _______ _____ _____    ______ ____
ROOT
ATOM      1  C   UNL     1      -7.643   3.616  -3.689  0.00  0.00    -0.069 C 
ATOM      2  C   UNL     1      -8.132   2.628  -2.626  0.00  0.00    +0.003 C 
ATOM      3  C   UNL     1      -9.636   2.401  -2.800  0.00  0.00    +0.103 C 
ATOM      4  N   UNL     1      -9.899   1.871  -4.144  0.00  0.00    -0.330 N 
ATOM      5  C   UNL     1      -9.481   2.822  -5.182  0.00  0.00    +0.103 C 
ATOM      6  C   UNL     1      -7.973   3.062  -5.078  0.00  0.00    +0.003 C 
ENDROOT
BRANCH   4   7
ATOM      7  C   UNL     1     -11.239   1.530  -4.292  0.00  0.00    +0.030 A 
ATOM      8  C   UNL     1     -11.988   2.087  -5.324  0.00  0.00    +0.024 A 
ATOM      9  C   UNL     1     -13.313   1.747  -5.476  0.00  0.00    +0.015 A 
ATOM     10  C   UNL     1     -13.909   0.850  -4.585  0.00  0.00    +0.037 A 
ATOM     11  C   UNL     1     -13.155   0.296  -3.546  0.00  0.00    +0.015 A 
ATOM     12  C   UNL     1     -11.830   0.635  -3.403  0.00  0.00    +0.024 A 
BRANCH  10  13
ATOM     13  C   UNL     1     -15.331   0.489  -4.741  0.00  0.00    +0.247 C 
ATOM     14  O   UNL     1     -15.662  -0.681  -4.760  0.00  0.00    -0.270 OA
ATOM     15  N   UNL     1     -16.262   1.455  -4.862  0.00  0.00    -0.295 N 
ATOM     16  C   UNL     1     -15.870   2.870  -4.924  0.00  0.00    +0.108 C 
ATOM     17  C   UNL     1     -16.642   3.643  -3.850  0.00  0.00    +0.021 C 
ATOM     18  C   UNL     1     -18.142   3.399  -4.031  0.00  0.00    +0.034 C 
ATOM     19  C   UNL     1     -18.442   1.908  -3.861  0.00  0.00    +0.132 C 
ATOM     20  C   UNL     1     -17.689   1.114  -4.940  0.00  0.00    +0.139 C 
BRANCH  19  21
ATOM     21  O   UNL     1     -19.846   1.685  -3.999  0.00  0.00    -0.390 OA
ATOM     22  H   UNL     1     -20.253   0.667  -3.908  0.00  0.00    +0.210 HD
ENDBRANCH  19  21
ENDBRANCH  10  13
ENDBRANCH   4   7
BRANCH   1  23
ATOM     23  N   UNL     1      -6.191   3.793  -3.563  0.00  0.00    +0.381 N 
ATOM     24  H   UNL     1      -5.786   4.094  -4.541  0.00  0.00    -0.086 HD
ATOM     25  H   UNL     1      -5.743   2.835  -3.261  0.00  0.00    -0.086 HD
BRANCH  23  26
ATOM     26  C   UNL     1      -5.870   4.820  -2.564  0.00  0.00    -0.080 C 
BRANCH  26  27
ATOM     27  C   UNL     1      -4.351   4.976  -2.461  0.00  0.00    +0.004 C 
BRANCH  27  28
ATOM     28  C   UNL     1      -4.018   6.046  -1.420  0.00  0.00    +0.144 C 
BRANCH  28  37
ATOM     29  C   UNL     1       0.445   4.500   0.910  0.00  0.00    +0.002 A 
ATOM     30  C   UNL     1      -0.836   4.028   1.167  0.00  0.00    +0.002 A 
ATOM     31  C   UNL     1      -1.909   4.519   0.479  0.00  0.00    +0.029 A 
ATOM     32  C   UNL     1      -1.721   5.508  -0.481  0.00  0.00    +0.089 A 
ATOM     33  C   UNL     1      -0.427   5.989  -0.747  0.00  0.00    +0.113 A 
ATOM     34  C   UNL     1       0.657   5.465  -0.031  0.00  0.00    +0.032 A 
ATOM     35  N   UNL     1      -0.529   6.926  -1.711  0.00  0.00    -0.129 NA
ATOM     36  N   UNL     1      -1.757   7.069  -2.067  0.00  0.00    -0.065 NA
ATOM     37  N   UNL     1      -2.564   6.196  -1.322  0.00  0.00    -0.244 N 
ENDBRANCH  28  37
ENDBRANCH  27  28
ENDBRANCH  26  27
ENDBRANCH  23  26
ENDBRANCH   1  23
TORSDOF 8
