REMARK  Name = ZINC64202214
REMARK  4 active torsions:
REMARK  status: ('A' for Active; 'I' for Inactive)
REMARK    1  A    between atoms: C_4  and  N_19
REMARK    2  A    between atoms: C_5  and  C_7
REMARK    3  A    between atoms: N_19  and  S_20
REMARK    4  A    between atoms: S_20  and  C_23
REMARK                            x       y       z     vdW  Elec       q    Type
REMARK                         _______ _______ _______ _____ _____    ______ ____
ROOT
ATOM      1  C   UNL     1      -0.017   1.373   0.010  0.00  0.00    +0.001 A 
ATOM      2  C   UNL     1       1.170   2.090   0.002  0.00  0.00    +0.002 A 
ATOM      3  C   UNL     1       2.383   1.433  -0.013  0.00  0.00    +0.027 A 
ATOM      4  C   UNL     1       2.422   0.044  -0.021  0.00  0.00    +0.086 A 
ATOM      5  C   UNL     1       1.223  -0.685  -0.013  0.00  0.00    +0.061 A 
ATOM      6  C   UNL     1       0.002  -0.004   0.002  0.00  0.00    +0.015 A 
ENDROOT
BRANCH   5   7
ATOM      7  C   UNL     1       1.250  -2.158  -0.022  0.00  0.00    +0.252 C 
ATOM      8  O   UNL     1       2.314  -2.747  -0.036  0.00  0.00    -0.270 OA
ATOM      9  N   UNL     1       0.096  -2.854  -0.015  0.00  0.00    -0.261 N 
ATOM     10  C   UNL     1       0.121  -4.238  -0.023  0.00  0.00    +0.166 A 
ATOM     11  N   UNL     1       1.159  -5.042  -0.032  0.00  0.00    -0.225 NA
ATOM     12  C   UNL     1       1.035  -6.387  -0.039  0.00  0.00    +0.080 A 
ATOM     13  C   UNL     1       2.062  -7.358  -0.049  0.00  0.00    +0.029 A 
ATOM     14  C   UNL     1       1.762  -8.695  -0.056  0.00  0.00    +0.002 A 
ATOM     15  C   UNL     1       0.448  -9.143  -0.053  0.00  0.00    +0.001 A 
ATOM     16  C   UNL     1      -0.582  -8.221  -0.042  0.00  0.00    +0.017 A 
ATOM     17  C   UNL     1      -0.290  -6.880  -0.036  0.00  0.00    +0.041 A 
ATOM     18  S   UNL     1      -1.250  -5.384  -0.016  0.00  0.00    -0.052 S 
ATOM     19  H   UNL     1      -0.753  -2.384  -0.004  0.00  0.00    +0.157 HD
ENDBRANCH   5   7
BRANCH   4  20
ATOM     20  N   UNL     1       3.642  -0.620  -0.037  0.00  0.00    -0.097 NA
BRANCH  20  21
ATOM     21  S   UNL     1       5.055   0.244  -0.046  0.00  0.00    +0.092 S 
ATOM     22  O   UNL     1       5.101   0.933  -1.288  0.00  0.00    -0.148 OA
ATOM     23  O   UNL     1       5.126   0.920   1.202  0.00  0.00    -0.148 OA
BRANCH  21  24
ATOM     24  C   UNL     1       6.377  -0.919  -0.065  0.00  0.00    +0.112 A 
ATOM     25  C   UNL     1       6.917  -1.398   1.202  0.00  0.00    +0.031 A 
ATOM     26  C   UNL     1       7.929  -2.290   1.258  0.00  0.00    +0.027 A 
ATOM     27  C   UNL     1       8.511  -2.799   0.018  0.00  0.00    +0.056 A 
ATOM     28  N   UNL     1       9.469  -3.642  -0.276  0.00  0.00    -0.268 N 
ATOM     29  C   UNL     1       9.570  -3.726  -1.644  0.00  0.00    +0.308 C 
ATOM     30  O   UNL     1      10.362  -4.422  -2.244  0.00  0.00    -0.252 OA
ATOM     31  N   UNL     1       8.637  -2.903  -2.231  0.00  0.00    -0.267 N 
ATOM     32  C   UNL     1       7.957  -2.308  -1.284  0.00  0.00    +0.058 A 
ATOM     33  C   UNL     1       6.857  -1.346  -1.254  0.00  0.00    +0.054 A 
ATOM     34  H   UNL     1       8.505  -2.785  -3.185  0.00  0.00    +0.156 HD
ATOM     35  H   UNL     1      10.016  -4.124   0.364  0.00  0.00    +0.156 HD
ENDBRANCH  21  24
ENDBRANCH  20  21
ENDBRANCH   4  20
TORSDOF 4
