REMARK  Name = ZINC35514048
REMARK  6 active torsions:
REMARK  status: ('A' for Active; 'I' for Inactive)
REMARK    1  A    between atoms: C_1  and  C_2
REMARK    2  A    between atoms: C_3  and  C_31
REMARK    3  A    between atoms: C_8  and  C_24
REMARK    4  A    between atoms: C_28  and  O_30
REMARK    5  A    between atoms: C_31  and  O_33
REMARK    6  A    between atoms: O_33  and  C_34
REMARK                            x       y       z     vdW  Elec       q    Type
REMARK                         _______ _______ _______ _____ _____    ______ ____
ROOT
ATOM      1  C   UNL     1      -0.018   1.503   0.010  0.00  0.00    +0.067 C 
ATOM      2  C   UNL     1       0.002  -0.004   0.002  0.00  0.00    +0.062 A 
ATOM      3  C   UNL     1       0.006  -0.730  -1.182  0.00  0.00    +0.120 A 
ATOM      4  S   UNL     1       0.032  -2.398  -0.545  0.00  0.00    -0.045 S 
ATOM      5  C   UNL     1       0.035  -2.021   1.095  0.00  0.00    +0.169 A 
ATOM      6  N   UNL     1       0.022  -0.700   1.110  0.00  0.00    -0.229 NA
ATOM      7  N   UNL     1       0.051  -2.888   2.172  0.00  0.00    -0.232 N 
ATOM      8  C   UNL     1       0.076  -4.357   2.099  0.00  0.00    +0.152 C 
ATOM      9  C   UNL     1       0.084  -4.835   3.514  0.00  0.00    +0.072 A 
ATOM     10  C   UNL     1       0.097  -6.190   4.076  0.00  0.00    +0.199 A 
ATOM     11  O   UNL     1       0.281  -7.189   3.404  0.00  0.00    -0.287 OA
ATOM     12  C   UNL     1      -0.135  -6.226   5.542  0.00  0.00    +0.066 A 
ATOM     13  C   UNL     1      -0.349  -7.442   6.192  0.00  0.00    +0.035 A 
ATOM     14  C   UNL     1      -0.568  -7.457   7.553  0.00  0.00    +0.042 A 
ATOM     15  C   UNL     1      -0.575  -6.267   8.269  0.00  0.00    +0.023 A 
ATOM     16  C   UNL     1      -0.363  -5.062   7.638  0.00  0.00    +0.048 A 
ATOM     17  C   UNL     1      -0.137  -5.021   6.263  0.00  0.00    +0.140 A 
ATOM     18  O   UNL     1       0.079  -3.824   5.669  0.00  0.00    -0.450 OA
ATOM     19  C   UNL     1       0.070  -3.736   4.324  0.00  0.00    +0.199 A 
ATOM     20  C   UNL     1       0.053  -2.534   3.474  0.00  0.00    +0.289 C 
ATOM     21  O   UNL     1       0.039  -1.391   3.884  0.00  0.00    -0.266 OA
ATOM     22 CL   UNL     1      -0.836  -8.964   8.371  0.00  0.00    -0.084 Cl
ENDROOT
BRANCH   8  23
ATOM     23  C   UNL     1       1.320  -4.821   1.385  0.00  0.00    -0.019 A 
ATOM     24  C   UNL     1       2.522  -4.173   1.600  0.00  0.00    +0.006 A 
ATOM     25  C   UNL     1       3.665  -4.596   0.947  0.00  0.00    +0.004 A 
ATOM     26  C   UNL     1       3.608  -5.668   0.077  0.00  0.00    +0.045 A 
ATOM     27  C   UNL     1       2.403  -6.320  -0.141  0.00  0.00    +0.117 A 
ATOM     28  C   UNL     1       1.259  -5.897   0.521  0.00  0.00    +0.051 A 
BRANCH  27  29
ATOM     29  O   UNL     1       2.345  -7.375  -0.996  0.00  0.00    -0.507 OA
ATOM     30  H   UNL     1       2.506  -8.231  -0.576  0.00  0.00    +0.292 HD
ENDBRANCH  27  29
ENDBRANCH   8  23
BRANCH   3  31
ATOM     31  C   UNL     1      -0.008  -0.260  -2.566  0.00  0.00    +0.347 C 
ATOM     32  O   UNL     1      -0.026   0.934  -2.803  0.00  0.00    -0.244 OA
BRANCH  31  33
ATOM     33  O   UNL     1      -0.001  -1.149  -3.581  0.00  0.00    -0.464 OA
ATOM     34  C   UNL     1      -0.015  -0.619  -4.908  0.00  0.00    +0.280 C 
ENDBRANCH  31  33
ENDBRANCH   3  31
TORSDOF 4
