REMARK  Name = ZINC16802205
REMARK  8 active torsions:
REMARK  status: ('A' for Active; 'I' for Inactive)
REMARK    1  A    between atoms: C_1  and  C_2
REMARK    2  A    between atoms: C_2  and  C_24
REMARK    3  A    between atoms: N_5  and  C_9
REMARK    4  A    between atoms: C_9  and  C_10
REMARK    5  A    between atoms: N_12  and  C_13
REMARK    6  A    between atoms: N_12  and  C_18
REMARK    7  A    between atoms: C_13  and  C_14
REMARK    8  A    between atoms: C_14  and  C_15
REMARK                            x       y       z     vdW  Elec       q    Type
REMARK                         _______ _______ _______ _____ _____    ______ ____
ROOT
ATOM      1  C   UNL     1      -8.695   0.944  -4.802  0.00  0.00    +0.047 C 
ATOM      2  C   UNL     1      -7.200   1.123  -4.529  0.00  0.00    +0.136 C 
ATOM      3  C   UNL     1      -6.875   0.779  -3.089  0.00  0.00    +0.251 C 
ATOM      4  O   UNL     1      -7.026  -0.291  -2.540  0.00  0.00    -0.272 OA
ATOM      5  N   UNL     1      -6.385   1.911  -2.546  0.00  0.00    -0.215 N 
ATOM      6  C   UNL     1      -6.360   2.913  -3.432  0.00  0.00    +0.310 C 
ATOM      7  O   UNL     1      -5.963   4.033  -3.175  0.00  0.00    -0.252 OA
ATOM      8  N   UNL     1      -6.819   2.542  -4.641  0.00  0.00    -0.281 N 
ATOM      9  H   UNL     1      -6.890   3.101  -5.431  0.00  0.00    +0.152 HD
ENDROOT
BRANCH   2  10
ATOM     10  C   UNL     1      -6.385   0.277  -5.473  0.00  0.00    -0.008 A 
ATOM     11  C   UNL     1      -5.481   0.859  -6.307  0.00  0.00    +0.007 A 
ATOM     12  C   UNL     1      -4.718   0.092  -7.186  0.00  0.00    +0.001 A 
ATOM     13  C   UNL     1      -4.856  -1.261  -7.237  0.00  0.00    +0.008 A 
ATOM     14  C   UNL     1      -5.780  -1.898  -6.391  0.00  0.00    -0.018 A 
ATOM     15  C   UNL     1      -6.551  -1.119  -5.493  0.00  0.00    -0.012 A 
ATOM     16  C   UNL     1      -7.480  -1.755  -4.651  0.00  0.00    +0.009 A 
ATOM     17  C   UNL     1      -7.617  -3.108  -4.702  0.00  0.00    +0.001 A 
ATOM     18  C   UNL     1      -6.854  -3.875  -5.581  0.00  0.00    +0.001 A 
ATOM     19  C   UNL     1      -5.950  -3.292  -6.415  0.00  0.00    +0.008 A 
ENDBRANCH   2  10
BRANCH   5  20
ATOM     20  C   UNL     1      -5.941   2.031  -1.155  0.00  0.00    +0.214 C 
BRANCH  20  21
ATOM     21  C   UNL     1      -4.476   1.689  -1.065  0.00  0.00    +0.238 C 
ATOM     22  O   UNL     1      -3.839   1.480  -2.075  0.00  0.00    -0.274 OA
ATOM     23  N   UNL     1      -3.875   1.616   0.139  0.00  0.00    -0.270 N 
BRANCH  23  24
ATOM     24  C   UNL     1      -4.580   1.963   1.296  0.00  0.00    +0.036 A 
ATOM     25  C   UNL     1      -4.934   3.287   1.525  0.00  0.00    +0.023 A 
ATOM     26  C   UNL     1      -5.636   3.626   2.665  0.00  0.00    +0.002 A 
ATOM     27  C   UNL     1      -5.976   2.651   3.584  0.00  0.00    +0.000 A 
ATOM     28  C   UNL     1      -5.621   1.333   3.363  0.00  0.00    +0.002 A 
ATOM     29  C   UNL     1      -4.924   0.987   2.222  0.00  0.00    +0.023 A 
ENDBRANCH  23  24
BRANCH  23  30
ATOM     30  C   UNL     1      -2.482   1.172   0.236  0.00  0.00    +0.123 C 
BRANCH  30  31
ATOM     31  C   UNL     1      -1.552   2.383   0.131  0.00  0.00    +0.115 C 
BRANCH  31  32
ATOM     32  C   UNL     1      -0.120   1.927   0.231  0.00  0.00    +0.212 C 
ATOM     33  O   UNL     1       0.133   0.749   0.372  0.00  0.00    -0.276 OA
ATOM     34  N   UNL     1       0.881   2.827   0.157  0.00  0.00    -0.329 N 
ATOM     35  H   UNL     1       1.803   2.533   0.218  0.00  0.00    +0.145 HD
ATOM     36  H   UNL     1       0.679   3.769   0.044  0.00  0.00    +0.145 HD
ENDBRANCH  31  32
ENDBRANCH  30  31
ENDBRANCH  23  30
ENDBRANCH  20  21
ENDBRANCH   5  20
TORSDOF 7
