REMARK  Name = ZINC36122162
REMARK  14 active torsions:
REMARK  status: ('A' for Active; 'I' for Inactive)
REMARK    1  A    between atoms: C_1  and  C_2
REMARK    2  A    between atoms: C_2  and  C_3
REMARK    3  A    between atoms: C_2  and  C_4
REMARK    4  A    between atoms: C_7  and  O_10
REMARK    5  A    between atoms: O_10  and  C_11
REMARK    6  A    between atoms: C_11  and  C_12
REMARK    7  A    between atoms: C_22  and  C_24
REMARK    8  A    between atoms: C_24  and  N_25
REMARK    9  A    between atoms: N_25  and  C_26
REMARK   10  A    between atoms: C_26  and  C_27
REMARK   11  A    between atoms: C_27  and  N_28
REMARK   12  A    between atoms: N_35  and  C_36
REMARK   13  A    between atoms: C_36  and  C_37
REMARK   14  A    between atoms: C_36  and  C_38
REMARK                            x       y       z     vdW  Elec       q    Type
REMARK                         _______ _______ _______ _____ _____    ______ ____
ROOT
ATOM      1  C   UNL     1       4.376  -3.024  -5.804  0.00  0.00    +0.144 C 
ATOM      2  C   UNL     1       4.619  -1.773  -6.646  0.00  0.00    -0.014 A 
ATOM      3  C   UNL     1       5.661  -0.880  -6.404  0.00  0.00    +0.013 A 
ATOM      4  C   UNL     1       5.814   0.210  -7.190  0.00  0.00    +0.046 A 
ATOM      5  S   UNL     1       4.460   0.027  -8.341  0.00  0.00    -0.101 S 
ATOM      6  C   UNL     1       3.797  -1.485  -7.692  0.00  0.00    -0.004 A 
ATOM      7  C   UNL     1       2.619  -2.265  -8.177  0.00  0.00    +0.061 C 
ATOM      8  C   UNL     1       2.199  -3.255  -7.080  0.00  0.00    +0.114 C 
ATOM      9  N   UNL     1       3.413  -3.871  -6.522  0.00  0.00    -0.289 N 
ATOM     10  C   UNL     1       3.641  -5.191  -6.669  0.00  0.00    +0.234 C 
ATOM     11  O   UNL     1       4.646  -5.688  -6.207  0.00  0.00    -0.274 OA
ENDROOT
BRANCH   1  12
ATOM     12  C   UNL     1       3.802  -2.628  -4.442  0.00  0.00    +0.256 C 
BRANCH  12  13
ATOM     13  O   UNL     1       2.638  -1.822  -4.632  0.00  0.00    -0.490 OA
BRANCH  13  17
ATOM     14  C   UNL     1       0.707  -0.490  -1.238  0.00  0.00    -0.045 A 
ATOM     15  C   UNL     1       0.221  -0.150  -2.487  0.00  0.00    +0.007 A 
ATOM     16  C   UNL     1       0.865  -0.595  -3.625  0.00  0.00    +0.046 A 
ATOM     17  C   UNL     1       2.002  -1.383  -3.514  0.00  0.00    +0.121 A 
ATOM     18  C   UNL     1       2.489  -1.722  -2.260  0.00  0.00    +0.046 A 
ATOM     19  C   UNL     1       1.843  -1.270  -1.125  0.00  0.00    +0.007 A 
BRANCH  14  21
ATOM     20  C   UNL     1      -0.019   1.526   0.010  0.00  0.00    +0.012 C 
ATOM     21  C   UNL     1       0.002  -0.004   0.002  0.00  0.00    +0.013 C 
ATOM     22  C   UNL     1      -1.433  -0.534   0.013  0.00  0.00    +0.012 C 
ENDBRANCH  14  21
ENDBRANCH  13  17
ENDBRANCH  12  13
ENDBRANCH   1  12
BRANCH  10  23
ATOM     23  C   UNL     1       2.647  -6.050  -7.408  0.00  0.00    +0.205 C 
BRANCH  23  24
ATOM     24  N   UNL     1       3.121  -7.436  -7.431  0.00  0.00    -0.279 N 
ATOM     25  C   UNL     1       3.902  -7.865  -8.441  0.00  0.00    +0.303 C 
ATOM     26  O   UNL     1       4.295  -9.015  -8.460  0.00  0.00    -0.253 OA
ATOM     27  N   UNL     1       4.248  -7.018  -9.432  0.00  0.00    -0.297 N 
ATOM     28  H   UNL     1       3.934  -6.101  -9.417  0.00  0.00    +0.150 HD
BRANCH  27  29
ATOM     29  C   UNL     1       5.097  -7.485 -10.531  0.00  0.00    +0.068 C 
ATOM     30  C   UNL     1       4.228  -8.149 -11.601  0.00  0.00    +0.027 C 
ATOM     31  C   UNL     1       5.838  -6.294 -11.143  0.00  0.00    +0.027 C 
ENDBRANCH  27  29
BRANCH  24  32
ATOM     32  C   UNL     1       2.745  -8.356  -6.354  0.00  0.00    +0.091 C 
BRANCH  32  33
ATOM     33  C   UNL     1       1.440  -9.065  -6.721  0.00  0.00    -0.060 C 
BRANCH  33  34
ATOM     34  N   UNL     1       1.064  -9.988  -5.642  0.00  0.00    +0.381 N 
ATOM     35  C   UNL     1       0.669  -9.224  -4.430  0.00  0.00    -0.079 C 
ATOM     36  C   UNL     1      -0.200 -10.236  -3.642  0.00  0.00    -0.020 C 
ATOM     37  C   UNL     1      -0.972 -10.973  -4.759  0.00  0.00    -0.020 C 
ATOM     38  C   UNL     1      -0.130 -10.769  -6.032  0.00  0.00    -0.079 C 
ATOM     39  H   UNL     1       1.831 -10.607  -5.429  0.00  0.00    -0.082 HD
ENDBRANCH  33  34
ENDBRANCH  32  33
ENDBRANCH  24  32
ENDBRANCH  23  24
ENDBRANCH  10  23
TORSDOF 10
