REMARK  Name = ZINC40382594
REMARK  2 active torsions:
REMARK  status: ('A' for Active; 'I' for Inactive)
REMARK    1  A    between atoms: C_1  and  C_2
REMARK    2  A    between atoms: C_5  and  C_8
REMARK                            x       y       z     vdW  Elec       q    Type
REMARK                         _______ _______ _______ _____ _____    ______ ____
ROOT
ATOM      1  C   UNL     1       0.059  -4.275  -0.021  0.00  0.00    +0.093 C 
ATOM      2  C   UNL     1       1.300  -4.766   0.679  0.00  0.00    +0.069 A 
ATOM      3  C   UNL     1       2.547  -4.641   0.023  0.00  0.00    +0.280 A 
ATOM      4  O   UNL     1       2.604  -4.146  -1.093  0.00  0.00    -0.265 OA
ATOM      5  N   UNL     1       3.665  -5.066   0.628  0.00  0.00    -0.177 NA
ATOM      6  C   UNL     1       3.621  -5.601   1.830  0.00  0.00    +0.195 A 
ATOM      7  N   UNL     1       2.443  -5.740   2.494  0.00  0.00    -0.316 N 
ATOM      8  C   UNL     1       1.268  -5.323   1.918  0.00  0.00    +0.112 A 
ATOM      9  N   UNL     1       0.089  -5.494   2.619  0.00  0.00    -0.300 N 
ATOM     10  C   UNL     1      -1.101  -5.363   1.941  0.00  0.00    +0.048 C 
ATOM     11  C   UNL     1      -1.160  -4.797   0.693  0.00  0.00    +0.034 C 
ATOM     12  C   UNL     1      -2.496  -4.797   0.235  0.00  0.00    +0.193 C 
ATOM     13  O   UNL     1      -2.890  -4.370  -0.834  0.00  0.00    -0.287 OA
ATOM     14  C   UNL     1      -3.329  -5.410   1.292  0.00  0.00    +0.031 A 
ATOM     15  C   UNL     1      -2.453  -5.760   2.350  0.00  0.00    +0.007 A 
ATOM     16  C   UNL     1      -2.932  -6.362   3.503  0.00  0.00    +0.010 A 
ATOM     17  C   UNL     1      -4.307  -6.605   3.566  0.00  0.00    +0.001 A 
ATOM     18  C   UNL     1      -5.154  -6.267   2.537  0.00  0.00    +0.001 A 
ATOM     19  C   UNL     1      -4.686  -5.657   1.368  0.00  0.00    +0.012 A 
ATOM     20  N   UNL     1       4.782  -6.024   2.422  0.00  0.00    -0.329 N 
ATOM     21  H   UNL     1       0.101  -5.700   3.567  0.00  0.00    +0.154 HD
ATOM     22  H   UNL     1       5.627  -5.928   1.955  0.00  0.00    +0.145 HD
ATOM     23  H   UNL     1       4.758  -6.419   3.307  0.00  0.00    +0.145 HD
ATOM     24  H   UNL     1       2.432  -6.135   3.380  0.00  0.00    +0.170 HD
ENDROOT
BRANCH   1  29
ATOM     25  C   UNL     1      -0.018   1.503   0.010  0.00  0.00    +0.044 C 
ATOM     26  C   UNL     1       0.002  -0.004   0.002  0.00  0.00    -0.050 A 
ATOM     27  C   UNL     1       0.006  -0.689  -1.199  0.00  0.00    +0.003 A 
ATOM     28  C   UNL     1       0.025  -2.071  -1.206  0.00  0.00    +0.005 A 
ATOM     29  C   UNL     1       0.040  -2.768  -0.013  0.00  0.00    -0.035 A 
ATOM     30  C   UNL     1       0.037  -2.084   1.188  0.00  0.00    +0.005 A 
ATOM     31  C   UNL     1       0.023  -0.702   1.195  0.00  0.00    +0.003 A 
ENDBRANCH   1  29
TORSDOF 1
