REMARK  Name = ZINC15771274
REMARK  9 active torsions:
REMARK  status: ('A' for Active; 'I' for Inactive)
REMARK    1  A    between atoms: C_1  and  C_2
REMARK    2  A    between atoms: C_5  and  N_8
REMARK    3  A    between atoms: N_8  and  C_9
REMARK    4  A    between atoms: C_9  and  C_11
REMARK    5  A    between atoms: C_9  and  N_30
REMARK    6  A    between atoms: C_11  and  N_13
REMARK    7  A    between atoms: C_11  and  N_21
REMARK    8  A    between atoms: N_13  and  C_14
REMARK    9  A    between atoms: C_17  and  C_20
REMARK                            x       y       z     vdW  Elec       q    Type
REMARK                         _______ _______ _______ _____ _____    ______ ____
ROOT
ATOM      1  C   UNL     1      -2.322  -2.140   1.407  0.00  0.00    +0.236 C 
ENDROOT
BRANCH   1   2
ATOM      2  N   UNL     1      -3.484  -1.308   1.732  0.00  0.00    -0.220 N 
ATOM      3  C   UNL     1      -4.801  -1.702   1.738  0.00  0.00    +0.091 A 
ATOM      4  C   UNL     1      -5.453  -2.900   1.469  0.00  0.00    +0.030 A 
ATOM      5  C   UNL     1      -6.815  -2.970   1.566  0.00  0.00    +0.002 A 
ATOM      6  C   UNL     1      -7.555  -1.853   1.932  0.00  0.00    +0.002 A 
ATOM      7  C   UNL     1      -6.939  -0.667   2.209  0.00  0.00    +0.032 A 
ATOM      8  C   UNL     1      -5.544  -0.568   2.111  0.00  0.00    +0.113 A 
ATOM      9  N   UNL     1      -4.676   0.445   2.304  0.00  0.00    -0.129 NA
ATOM     10  N   UNL     1      -3.471   0.048   2.091  0.00  0.00    -0.063 NA
ENDBRANCH   1   2
BRANCH   1  11
ATOM     11  N   UNL     1      -1.263  -1.904   2.391  0.00  0.00    -0.320 N 
ATOM     12  H   UNL     1      -0.562  -1.259   2.204  0.00  0.00    +0.148 HD
BRANCH  11  17
ATOM     13  C   UNL     1      -1.255  -4.756   7.292  0.00  0.00    +0.044 C 
ATOM     14  C   UNL     1      -1.258  -3.998   5.990  0.00  0.00    -0.050 A 
ATOM     15  C   UNL     1      -0.258  -3.080   5.724  0.00  0.00    +0.005 A 
ATOM     16  C   UNL     1      -0.257  -2.384   4.532  0.00  0.00    +0.023 A 
ATOM     17  C   UNL     1      -1.261  -2.607   3.598  0.00  0.00    +0.029 A 
ATOM     18  C   UNL     1      -2.266  -3.526   3.870  0.00  0.00    +0.023 A 
ATOM     19  C   UNL     1      -2.259  -4.222   5.062  0.00  0.00    +0.005 A 
ENDBRANCH  11  17
ENDBRANCH   1  11
BRANCH   1  20
ATOM     20  C   UNL     1      -1.812  -1.781   0.011  0.00  0.00    +0.236 C 
BRANCH  20  21
ATOM     21  N   UNL     1      -1.313  -0.403   0.013  0.00  0.00    -0.220 N 
ATOM     22  C   UNL     1       0.002  -0.004   0.002  0.00  0.00    +0.091 A 
ATOM     23  C   UNL     1       1.217  -0.681  -0.014  0.00  0.00    +0.030 A 
ATOM     24  C   UNL     1       2.388   0.025  -0.021  0.00  0.00    +0.002 A 
ATOM     25  C   UNL     1       2.376   1.414  -0.014  0.00  0.00    +0.002 A 
ATOM     26  C   UNL     1       1.197   2.101   0.002  0.00  0.00    +0.032 A 
ATOM     27  C   UNL     1      -0.017   1.401   0.010  0.00  0.00    +0.113 A 
ATOM     28  N   UNL     1      -1.307   1.793   0.030  0.00  0.00    -0.129 NA
ATOM     29  N   UNL     1      -2.085   0.769   0.027  0.00  0.00    -0.063 NA
ENDBRANCH  20  21
BRANCH  20  30
ATOM     30  N   UNL     1      -2.906  -1.903  -0.956  0.00  0.00    -0.320 N 
ATOM     31  H   UNL     1      -3.826  -1.816  -0.661  0.00  0.00    +0.148 HD
BRANCH  30  32
ATOM     32  C   UNL     1      -2.624  -2.144  -2.302  0.00  0.00    +0.029 A 
ATOM     33  C   UNL     1      -1.307  -2.264  -2.728  0.00  0.00    +0.023 A 
ATOM     34  C   UNL     1      -1.032  -2.507  -4.059  0.00  0.00    +0.005 A 
ATOM     35  C   UNL     1      -2.066  -2.622  -4.970  0.00  0.00    -0.050 A 
ATOM     36  C   UNL     1      -3.378  -2.499  -4.551  0.00  0.00    +0.005 A 
ATOM     37  C   UNL     1      -3.660  -2.261  -3.220  0.00  0.00    +0.023 A 
ATOM     38  C   UNL     1      -1.763  -2.883  -6.423  0.00  0.00    +0.044 C 
ENDBRANCH  30  32
ENDBRANCH  20  30
ENDBRANCH   1  20
TORSDOF 7
