REMARK  Name = ZINC04978571
REMARK  6 active torsions:
REMARK  status: ('A' for Active; 'I' for Inactive)
REMARK    1  A    between atoms: C_3  and  N_22
REMARK    2  A    between atoms: C_6  and  C_7
REMARK    3  A    between atoms: C_7  and  C_8
REMARK    4  A    between atoms: N_9  and  O_10
REMARK    5  A    between atoms: O_10  and  C_11
REMARK    6  A    between atoms: C_11  and  C_13
REMARK                            x       y       z     vdW  Elec       q    Type
REMARK                         _______ _______ _______ _____ _____    ______ ____
ROOT
ATOM      1  C   UNL     1      -1.738  -1.025  -1.408  0.00  0.00    +0.137 C 
ATOM      2  N   UNL     1      -1.025  -0.590  -2.395  0.00  0.00    -0.063 NA
ATOM      3  N   UNL     1      -2.902  -1.715  -1.652  0.00  0.00    -0.344 N 
ATOM      4  H   UNL     1      -3.437  -2.042  -0.911  0.00  0.00    +0.144 HD
ATOM      5  H   UNL     1      -3.188  -1.876  -2.564  0.00  0.00    +0.144 HD
ENDROOT
BRANCH   1   6
ATOM      6  C   UNL     1      -1.293  -0.775   0.010  0.00  0.00    +0.109 C 
BRANCH   6  12
ATOM      7  C   UNL     1      -0.017   1.378   0.010  0.00  0.00    +0.006 A 
ATOM      8  C   UNL     1       1.171   2.086   0.002  0.00  0.00    +0.033 A 
ATOM      9  C   UNL     1       2.377   1.411  -0.013  0.00  0.00    +0.126 A 
ATOM     10  C   UNL     1       2.396   0.029  -0.020  0.00  0.00    +0.033 A 
ATOM     11  C   UNL     1       1.208  -0.679  -0.012  0.00  0.00    +0.006 A 
ATOM     12  C   UNL     1       0.002  -0.004   0.002  0.00  0.00    -0.040 A 
BRANCH   9  13
ATOM     13  N   UNL     1       3.649   2.168  -0.022  0.00  0.00    +0.056 N 
ATOM     14  O   UNL     1       3.633   3.377  -0.016  0.00  0.00    -0.126 OA
ATOM     15  O   UNL     1       4.704   1.578  -0.035  0.00  0.00    -0.126 OA
ENDBRANCH   9  13
ENDBRANCH   6  12
ENDBRANCH   1   6
BRANCH   2  16
ATOM     16  O   UNL     1      -1.444  -0.824  -3.727  0.00  0.00    -0.310 OA
BRANCH  16  17
ATOM     17  C   UNL     1      -0.613  -0.319  -4.659  0.00  0.00    +0.368 C 
ATOM     18  O   UNL     1       0.391   0.275  -4.319  0.00  0.00    -0.243 OA
BRANCH  17  19
ATOM     19  C   UNL     1      -0.922  -0.487  -6.093  0.00  0.00    +0.081 A 
ATOM     20  C   UNL     1      -2.078  -1.165  -6.486  0.00  0.00    +0.036 A 
ATOM     21  C   UNL     1      -2.361  -1.318  -7.828  0.00  0.00    +0.042 A 
ATOM     22  C   UNL     1      -1.502  -0.802  -8.784  0.00  0.00    +0.021 A 
ATOM     23  C   UNL     1      -0.355  -0.130  -8.402  0.00  0.00    +0.022 A 
ATOM     24  C   UNL     1      -0.062   0.035  -7.062  0.00  0.00    +0.055 A 
ATOM     25 CL   UNL     1       1.374   0.886  -6.584  0.00  0.00    -0.083 Cl
ATOM     26 CL   UNL     1      -3.798  -2.160  -8.320  0.00  0.00    -0.084 Cl
ENDBRANCH  17  19
ENDBRANCH  16  17
ENDBRANCH   2  16
TORSDOF 6
