REMARK  Name = ZINC16982033
REMARK  6 active torsions:
REMARK  status: ('A' for Active; 'I' for Inactive)
REMARK    1  A    between atoms: C_1  and  O_2
REMARK    2  A    between atoms: O_2  and  C_3
REMARK    3  A    between atoms: C_8  and  N_9
REMARK    4  A    between atoms: N_13  and  N_14
REMARK    5  A    between atoms: N_14  and  C_15
REMARK    6  A    between atoms: N_24  and  C_27
REMARK                            x       y       z     vdW  Elec       q    Type
REMARK                         _______ _______ _______ _____ _____    ______ ____
ROOT
ATOM      1  N   UNL     1      -0.225  -3.014  -0.107  0.00  0.00    -0.212 N 
ATOM      2  C   UNL     1       0.726  -2.929  -1.061  0.00  0.00    +0.282 C 
ATOM      3  O   UNL     1       1.887  -2.716  -0.768  0.00  0.00    -0.267 OA
ATOM      4  C   UNL     1       0.318  -3.100  -2.469  0.00  0.00    +0.206 C 
ATOM      5  N   UNL     1       1.193  -3.029  -3.454  0.00  0.00    -0.172 NA
ATOM      6  C   UNL     1      -1.114  -3.355  -2.727  0.00  0.00    +0.282 C 
ATOM      7  O   UNL     1      -1.528  -3.508  -3.860  0.00  0.00    -0.267 OA
ATOM      8  N   UNL     1      -1.950  -3.414  -1.670  0.00  0.00    -0.216 N 
ATOM      9  C   UNL     1      -1.507  -3.254  -0.415  0.00  0.00    +0.158 C 
ATOM     10  S   UNL     1      -2.641  -3.353   0.863  0.00  0.00    -0.017 S 
ENDROOT
BRANCH   1  16
ATOM     11  C   UNL     1       0.119  -1.591   1.822  0.00  0.00    +0.142 A 
ATOM     12  C   UNL     1       0.473  -1.440   3.153  0.00  0.00    +0.047 A 
ATOM     13  C   UNL     1       0.851  -2.543   3.897  0.00  0.00    +0.004 A 
ATOM     14  C   UNL     1       0.877  -3.797   3.316  0.00  0.00    +0.002 A 
ATOM     15  C   UNL     1       0.525  -3.956   1.989  0.00  0.00    +0.027 A 
ATOM     16  C   UNL     1       0.139  -2.855   1.238  0.00  0.00    +0.085 A 
BRANCH  11  18
ATOM     17  C   UNL     1      -0.249   0.758   1.753  0.00  0.00    +0.277 C 
ATOM     18  O   UNL     1      -0.252  -0.507   1.089  0.00  0.00    -0.493 OA
ENDBRANCH  11  18
ENDBRANCH   1  16
BRANCH   8  19
ATOM     19  C   UNL     1      -3.313  -3.655  -1.888  0.00  0.00    +0.043 A 
ATOM     20  C   UNL     1      -3.804  -4.953  -1.856  0.00  0.00    +0.024 A 
ATOM     21  C   UNL     1      -5.148  -5.187  -2.071  0.00  0.00    +0.002 A 
ATOM     22  C   UNL     1      -6.004  -4.129  -2.319  0.00  0.00    +0.000 A 
ATOM     23  C   UNL     1      -5.518  -2.835  -2.352  0.00  0.00    +0.002 A 
ATOM     24  C   UNL     1      -4.176  -2.595  -2.132  0.00  0.00    +0.024 A 
ENDBRANCH   8  19
BRANCH   5  25
ATOM     25  N   UNL     1       0.823  -3.276  -4.665  0.00  0.00    -0.237 N 
ATOM     26  H   UNL     1      -0.073  -3.603  -4.841  0.00  0.00    +0.174 HD
BRANCH  25  27
ATOM     27  C   UNL     1       1.712  -3.073  -5.721  0.00  0.00    +0.048 A 
ATOM     28  C   UNL     1       2.998  -2.610  -5.470  0.00  0.00    +0.026 A 
ATOM     29  C   UNL     1       3.875  -2.410  -6.517  0.00  0.00    +0.022 A 
ATOM     30  C   UNL     1       3.474  -2.670  -7.816  0.00  0.00    +0.041 A 
ATOM     31  C   UNL     1       2.194  -3.131  -8.070  0.00  0.00    +0.022 A 
ATOM     32  C   UNL     1       1.314  -3.339  -7.027  0.00  0.00    +0.026 A 
ATOM     33 CL   UNL     1       4.580  -2.418  -9.131  0.00  0.00    -0.084 Cl
ENDBRANCH  25  27
ENDBRANCH   5  25
TORSDOF 5
