REMARK  Name = ZINC15662272
REMARK  6 active torsions:
REMARK  status: ('A' for Active; 'I' for Inactive)
REMARK    1  A    between atoms: C_1  and  C_2
REMARK    2  A    between atoms: C_8  and  N_10
REMARK    3  A    between atoms: C_11  and  C_13
REMARK    4  A    between atoms: C_16  and  C_19
REMARK    5  A    between atoms: N_21  and  C_22
REMARK    6  A    between atoms: C_28  and  C_30
REMARK                            x       y       z     vdW  Elec       q    Type
REMARK                         _______ _______ _______ _____ _____    ______ ____
ROOT
ATOM      1  C   UNL     1      -0.753   1.593  -1.232  0.00  0.00    +0.075 C 
ATOM      2  C   UNL     1      -0.013   1.086   0.008  0.00  0.00    +0.013 C 
ATOM      3  C   UNL     1      -0.729   1.579   1.267  0.00  0.00    +0.013 C 
ATOM      4  C   UNL     1      -0.750   3.109   1.275  0.00  0.00    +0.075 C 
ATOM      5  C   UNL     1      -1.490   3.616   0.036  0.00  0.00    +0.013 C 
ATOM      6  C   UNL     1      -0.773   3.123  -1.223  0.00  0.00    +0.013 C 
ENDROOT
BRANCH   1   8
ATOM      7  N   UNL     1      -0.524   1.433  -3.689  0.00  0.00    -0.312 N 
ATOM      8  C   UNL     1      -0.047   1.107  -2.471  0.00  0.00    +0.216 C 
ATOM      9  O   UNL     1       0.949   0.422  -2.373  0.00  0.00    -0.276 OA
ATOM     10  H   UNL     1      -1.321   1.980  -3.768  0.00  0.00    +0.149 HD
BRANCH   7  17
ATOM     11  C   UNL     1      -1.969  -0.060  -5.707  0.00  0.00    +0.009 C 
ATOM     12  C   UNL     1      -0.832   0.901  -6.057  0.00  0.00    +0.006 C 
ATOM     13  C   UNL     1      -0.115   0.408  -7.316  0.00  0.00    +0.005 C 
ATOM     14  C   UNL     1       1.022   1.370  -7.665  0.00  0.00    +0.000 C 
ATOM     15  C   UNL     1       2.016   1.428  -6.503  0.00  0.00    +0.002 C 
ATOM     16  C   UNL     1       1.300   1.922  -5.244  0.00  0.00    +0.022 C 
ATOM     17  C   UNL     1       0.162   0.960  -4.895  0.00  0.00    +0.076 C 
ENDBRANCH   7  17
ENDBRANCH   1   8
BRANCH   4  18
ATOM     18  C   UNL     1      -1.455   3.595   2.515  0.00  0.00    +0.216 C 
ATOM     19  O   UNL     1      -2.451   4.279   2.417  0.00  0.00    -0.276 OA
ATOM     20  N   UNL     1      -0.979   3.269   3.733  0.00  0.00    -0.312 N 
ATOM     21  H   UNL     1      -0.181   2.722   3.811  0.00  0.00    +0.149 HD
BRANCH  20  22
ATOM     22  C   UNL     1      -1.664   3.742   4.938  0.00  0.00    +0.076 C 
ATOM     23  C   UNL     1      -1.175   5.149   5.285  0.00  0.00    +0.022 C 
ATOM     24  C   UNL     1       0.334   5.117   5.536  0.00  0.00    +0.002 C 
ATOM     25  C   UNL     1       0.637   4.170   6.700  0.00  0.00    +0.000 C 
ATOM     26  C   UNL     1       0.148   2.763   6.353  0.00  0.00    +0.005 C 
ATOM     27  C   UNL     1      -1.361   2.795   6.102  0.00  0.00    +0.006 C 
ATOM     28  C   UNL     1      -1.851   1.388   5.755  0.00  0.00    +0.009 C 
ENDBRANCH  20  22
ENDBRANCH   4  18
TORSDOF 4
