REMARK  Name = ZINC13303299
REMARK  4 active torsions:
REMARK  status: ('A' for Active; 'I' for Inactive)
REMARK    1  A    between atoms: C_4  and  C_7
REMARK    2  A    between atoms: C_9  and  C_27
REMARK    3  A    between atoms: N_13  and  N_14
REMARK    4  A    between atoms: C_15  and  C_16
REMARK                            x       y       z     vdW  Elec       q    Type
REMARK                         _______ _______ _______ _____ _____    ______ ____
ROOT
ATOM      1  C   UNL     1       3.700  -0.692  -0.088  0.00  0.00    +0.077 A 
ATOM      2  C   UNL     1       3.735  -2.086  -0.103  0.00  0.00    +0.057 A 
ATOM      3  C   UNL     1       4.979  -2.718  -0.106  0.00  0.00    +0.077 A 
ATOM      4  N   UNL     1       6.083  -1.973  -0.096  0.00  0.00    -0.213 NA
ATOM      5  C   UNL     1       6.010  -0.651  -0.082  0.00  0.00    +0.234 A 
ATOM      6  N   UNL     1       4.848  -0.016  -0.084  0.00  0.00    -0.213 NA
ATOM      7  N   UNL     1       7.181   0.087  -0.072  0.00  0.00    -0.228 N 
ATOM      8  H   UNL     1       8.039  -0.364  -0.075  0.00  0.00    +0.175 HD
ENDROOT
BRANCH   3   9
ATOM      9  C   UNL     1       5.070  -4.197  -0.121  0.00  0.00    +0.001 A 
ATOM     10  C   UNL     1       3.910  -4.970  -0.138  0.00  0.00    +0.013 A 
ATOM     11  C   UNL     1       4.000  -6.346  -0.152  0.00  0.00    +0.039 A 
ATOM     12  C   UNL     1       5.241  -6.961  -0.150  0.00  0.00    +0.123 A 
ATOM     13  C   UNL     1       6.398  -6.198  -0.133  0.00  0.00    +0.039 A 
ATOM     14  C   UNL     1       6.317  -4.821  -0.125  0.00  0.00    +0.013 A 
ATOM     15  F   UNL     1       5.325  -8.310  -0.163  0.00  0.00    -0.205 F 
ENDBRANCH   3   9
BRANCH   1  19
ATOM     16  C   UNL     1      -0.016   1.373  -0.076  0.00  0.00    +0.000 A 
ATOM     17  C   UNL     1       1.169   2.087  -0.070  0.00  0.00    +0.001 A 
ATOM     18  C   UNL     1       2.378   1.422  -0.074  0.00  0.00    +0.010 A 
ATOM     19  C   UNL     1       2.404   0.029  -0.083  0.00  0.00    +0.001 A 
ATOM     20  C   UNL     1       1.207  -0.685  -0.088  0.00  0.00    +0.010 A 
ATOM     21  C   UNL     1       0.004  -0.010  -0.085  0.00  0.00    +0.001 A 
ENDBRANCH   1  19
BRANCH   7  22
ATOM     22  N   UNL     1       7.126   1.487  -0.057  0.00  0.00    -0.311 N 
ATOM     23  C   UNL     1       8.266   2.207  -0.047  0.00  0.00    +0.111 C 
ATOM     24  H   UNL     1       6.267   1.939  -0.054  0.00  0.00    +0.184 HD
BRANCH  23  25
ATOM     25  C   UNL     1       8.214   3.588  -0.138  0.00  0.00    +0.047 A 
ATOM     26  C   UNL     1       9.444   4.390  -0.258  0.00  0.00    -0.006 A 
ATOM     27  C   UNL     1      10.700   3.783  -0.285  0.00  0.00    +0.009 A 
ATOM     28  C   UNL     1      11.829   4.562  -0.399  0.00  0.00    +0.001 A 
ATOM     29  C   UNL     1      11.726   5.945  -0.487  0.00  0.00    +0.001 A 
ATOM     30  C   UNL     1      10.509   6.560  -0.463  0.00  0.00    +0.008 A 
ATOM     31  C   UNL     1       9.340   5.794  -0.349  0.00  0.00    -0.017 A 
ATOM     32  C   UNL     1       8.071   6.418  -0.324  0.00  0.00    +0.012 A 
ATOM     33  C   UNL     1       6.927   5.712  -0.215  0.00  0.00    +0.052 A 
ATOM     34  C   UNL     1       6.931   4.302  -0.124  0.00  0.00    +0.188 A 
ATOM     35  O   UNL     1       5.881   3.685  -0.030  0.00  0.00    -0.287 OA
ENDBRANCH  23  25
ENDBRANCH   7  22
TORSDOF 4
