REMARK  Name = ZINC15162855
REMARK  10 active torsions:
REMARK  status: ('A' for Active; 'I' for Inactive)
REMARK    1  A    between atoms: C_1  and  C_2
REMARK    2  A    between atoms: C_2  and  C_23
REMARK    3  A    between atoms: N_3  and  N_4
REMARK    4  A    between atoms: C_5  and  S_7
REMARK    5  A    between atoms: S_7  and  C_8
REMARK    6  A    between atoms: N_13  and  C_16
REMARK    7  A    between atoms: C_24  and  C_25
REMARK    8  A    between atoms: C_28  and  N_31
REMARK    9  A    between atoms: N_31  and  C_32
REMARK   10  A    between atoms: N_31  and  C_33
REMARK                            x       y       z     vdW  Elec       q    Type
REMARK                         _______ _______ _______ _____ _____    ______ ____
ROOT
ATOM      1  N   UNL     1      -0.868   0.414   2.763  0.00  0.00    -0.217 N 
ATOM      2  C   UNL     1      -0.620  -0.346   3.884  0.00  0.00    +0.146 C 
ATOM      3  N   UNL     1      -0.566  -1.646   3.791  0.00  0.00    -0.380 N 
ATOM      4  H   UNL     1      -0.908   1.381   2.832  0.00  0.00    +0.176 HD
ATOM      5  H   UNL     1      -0.391  -2.182   4.581  0.00  0.00    +0.158 HD
ATOM      6  H   UNL     1      -0.701  -2.077   2.933  0.00  0.00    +0.158 HD
ENDROOT
BRANCH   1   9
ATOM      7  C   UNL     1      -1.361   2.013   0.570  0.00  0.00    +0.067 C 
ATOM      8  C   UNL     1      -1.299   0.511   0.463  0.00  0.00    +0.056 C 
ATOM      9  N   UNL     1      -1.064  -0.208   1.523  0.00  0.00    -0.186 NA
BRANCH   8  10
ATOM     10  C   UNL     1      -1.497  -0.120  -0.791  0.00  0.00    +0.025 C 
ATOM     11  C   UNL     1      -1.441  -1.464  -0.887  0.00  0.00    +0.010 C 
BRANCH  11  12
ATOM     12  C   UNL     1      -1.646  -2.118  -2.189  0.00  0.00    -0.025 A 
ATOM     13  C   UNL     1      -1.893  -1.347  -3.330  0.00  0.00    +0.010 A 
ATOM     14  C   UNL     1      -2.084  -1.964  -4.547  0.00  0.00    +0.023 A 
ATOM     15  C   UNL     1      -2.032  -3.350  -4.642  0.00  0.00    +0.029 A 
ATOM     16  C   UNL     1      -1.786  -4.121  -3.510  0.00  0.00    +0.023 A 
ATOM     17  C   UNL     1      -1.589  -3.513  -2.290  0.00  0.00    +0.010 A 
BRANCH  15  18
ATOM     18  N   UNL     1      -2.226  -3.970  -5.876  0.00  0.00    -0.336 N 
ATOM     19  C   UNL     1      -2.362  -3.161  -7.089  0.00  0.00    +0.129 C 
ATOM     20  C   UNL     1      -2.295  -5.431  -5.959  0.00  0.00    +0.129 C 
ENDBRANCH  15  18
ENDBRANCH  11  12
ENDBRANCH   8  10
ENDBRANCH   1   9
BRANCH   2  21
ATOM     21  S   UNL     1      -0.374   0.437   5.443  0.00  0.00    -0.078 S 
BRANCH  21  22
ATOM     22  C   UNL     1      -0.087  -0.941   6.586  0.00  0.00    +0.149 C 
ATOM     23  C   UNL     1       0.078  -0.424   8.030  0.00  0.00    +0.120 C 
ATOM     24  C   UNL     1       1.481  -0.853   8.401  0.00  0.00    +0.228 C 
ATOM     25  O   UNL     1       2.020  -0.644   9.467  0.00  0.00    -0.275 OA
ATOM     26  N   UNL     1       2.032  -1.501   7.367  0.00  0.00    -0.209 N 
ATOM     27  C   UNL     1       1.237  -1.611   6.291  0.00  0.00    +0.240 C 
ATOM     28  O   UNL     1       1.531  -2.158   5.250  0.00  0.00    -0.274 OA
BRANCH  26  29
ATOM     29  C   UNL     1       3.332  -2.023   7.405  0.00  0.00    +0.045 A 
ATOM     30  C   UNL     1       3.691  -2.924   8.399  0.00  0.00    +0.024 A 
ATOM     31  C   UNL     1       4.973  -3.438   8.434  0.00  0.00    +0.003 A 
ATOM     32  C   UNL     1       5.899  -3.056   7.481  0.00  0.00    +0.020 A 
ATOM     33  C   UNL     1       5.545  -2.158   6.490  0.00  0.00    +0.043 A 
ATOM     34  C   UNL     1       4.262  -1.645   6.447  0.00  0.00    +0.044 A 
ATOM     35 CL   UNL     1       6.711  -1.681   5.295  0.00  0.00    -0.083 Cl
ENDBRANCH  26  29
ENDBRANCH  21  22
ENDBRANCH   2  21
TORSDOF 7
