REMARK  Name = ZINC00105430
REMARK  2 active torsions:
REMARK  status: ('A' for Active; 'I' for Inactive)
REMARK    1  A    between atoms: C_10  and  C_11
REMARK    2  A    between atoms: C_13  and  N_20
REMARK                            x       y       z     vdW  Elec       q    Type
REMARK                         _______ _______ _______ _____ _____    ______ ____
ROOT
ATOM      1  C   UNL     1       4.965   0.166  -0.049  0.00  0.00    +0.133 C 
ATOM      2  C   UNL     1       5.274   0.638   1.373  0.00  0.00    +0.195 C 
ATOM      3  C   UNL     1       6.690   1.224   1.399  0.00  0.00    +0.043 C 
ATOM      4  C   UNL     1       7.688   0.088   1.160  0.00  0.00    +0.098 C 
ATOM      5  C   UNL     1       7.266  -0.721  -0.033  0.00  0.00    +0.214 C 
ATOM      6  O   UNL     1       8.088  -1.443  -0.557  0.00  0.00    -0.276 OA
ATOM      7  N   UNL     1       6.037  -0.689  -0.542  0.00  0.00    -0.306 N 
ATOM      8  H   UNL     1       5.844  -1.272  -1.293  0.00  0.00    +0.149 HD
ENDROOT
BRANCH   1  18
ATOM      9  C   UNL     1       1.578  -1.296  -3.597  0.00  0.00    +0.001 A 
ATOM     10  C   UNL     1       2.772  -0.578  -3.619  0.00  0.00    +0.001 A 
ATOM     11  C   UNL     1       3.469  -0.343  -2.474  0.00  0.00    +0.009 A 
ATOM     12  C   UNL     1       2.980  -0.830  -1.249  0.00  0.00    -0.013 A 
ATOM     13  C   UNL     1       1.765  -1.561  -1.228  0.00  0.00    -0.018 A 
ATOM     14  C   UNL     1       1.074  -1.783  -2.431  0.00  0.00    +0.008 A 
ATOM     15  C   UNL     1       1.276  -2.047  -0.004  0.00  0.00    +0.008 A 
ATOM     16  C   UNL     1       1.973  -1.812   1.142  0.00  0.00    +0.001 A 
ATOM     17  C   UNL     1       3.167  -1.094   1.120  0.00  0.00    +0.006 A 
ATOM     18  C   UNL     1       3.671  -0.608  -0.047  0.00  0.00    -0.017 A 
ENDBRANCH   1  18
BRANCH   2  19
ATOM     19  N   UNL     1       4.306   1.664   1.771  0.00  0.00    +0.028 N 
ATOM     20  O   UNL     1       3.665   1.528   2.787  0.00  0.00    -0.131 OA
ATOM     21  O   UNL     1       4.150   2.646   1.084  0.00  0.00    -0.131 OA
ENDBRANCH   2  19
TORSDOF 2
