REMARK  Name = ZINC40799549
REMARK  6 active torsions:
REMARK  status: ('A' for Active; 'I' for Inactive)
REMARK    1  A    between atoms: C_1  and  N_2
REMARK    2  A    between atoms: C_5  and  N_8
REMARK    3  A    between atoms: N_8  and  C_9
REMARK    4  A    between atoms: C_11  and  N_29
REMARK    5  A    between atoms: C_12  and  N_16
REMARK    6  A    between atoms: N_19  and  C_22
REMARK                            x       y       z     vdW  Elec       q    Type
REMARK                         _______ _______ _______ _____ _____    ______ ____
ROOT
ATOM      1  N   UNL     1       1.220  -4.048  -0.004  0.00  0.00    -0.314 N 
ATOM      2  C   UNL     1       0.580  -3.617  -1.250  0.00  0.00    +0.131 C 
ATOM      3  C   UNL     1       2.370  -4.827  -0.047  0.00  0.00    +0.147 A 
ATOM      4  C   UNL     1       2.283  -6.214  -0.178  0.00  0.00    +0.106 A 
ATOM      5  C   UNL     1       3.469  -6.948  -0.216  0.00  0.00    +0.147 A 
ATOM      6  N   UNL     1       4.630  -6.303  -0.127  0.00  0.00    -0.219 NA
ATOM      7  C   UNL     1       4.668  -4.992  -0.004  0.00  0.00    +0.225 A 
ATOM      8  N   UNL     1       3.572  -4.261   0.031  0.00  0.00    -0.219 NA
ENDROOT
BRANCH   1  13
ATOM      9  C   UNL     1      -2.091  -1.794   3.968  0.00  0.00    -0.096 C 
ATOM     10  N   UNL     1      -1.425  -2.247   2.740  0.00  0.00    +0.378 N 
ATOM     11  C   UNL     1      -0.052  -1.729   2.709  0.00  0.00    -0.077 C 
ATOM     12  C   UNL     1       0.620  -2.131   1.395  0.00  0.00    +0.004 C 
ATOM     13  C   UNL     1       0.647  -3.658   1.287  0.00  0.00    +0.071 C 
ATOM     14  C   UNL     1      -0.785  -4.192   1.394  0.00  0.00    +0.004 C 
ATOM     15  C   UNL     1      -1.404  -3.715   2.709  0.00  0.00    -0.077 C 
ATOM     16  H   UNL     1      -1.930  -1.902   1.938  0.00  0.00    -0.082 HD
ENDBRANCH   1  13
BRANCH   5  17
ATOM     17  N   UNL     1       3.438  -8.332  -0.345  0.00  0.00    -0.311 N 
ATOM     18  C   UNL     1       3.358  -8.958  -1.672  0.00  0.00    +0.125 C 
ATOM     19  C   UNL     1       4.529  -9.937  -1.824  0.00  0.00    +0.124 C 
ATOM     20  N   UNL     1       4.577 -10.800  -0.635  0.00  0.00    -0.325 N 
ATOM     21  C   UNL     1       4.657 -10.174   0.692  0.00  0.00    +0.124 C 
ATOM     22  C   UNL     1       3.492  -9.195   0.843  0.00  0.00    +0.125 C 
BRANCH  20  23
ATOM     23  C   UNL     1       4.546 -12.192  -0.765  0.00  0.00    +0.065 A 
ATOM     24  C   UNL     1       5.731 -12.905  -0.887  0.00  0.00    +0.026 A 
ATOM     25  C   UNL     1       5.698 -14.281  -1.014  0.00  0.00    +0.002 A 
ATOM     26  C   UNL     1       4.486 -14.947  -1.021  0.00  0.00    +0.003 A 
ATOM     27  C   UNL     1       3.304 -14.241  -0.900  0.00  0.00    +0.040 A 
ATOM     28  C   UNL     1       3.329 -12.865  -0.766  0.00  0.00    +0.144 A 
ATOM     29  F   UNL     1       2.175 -12.175  -0.642  0.00  0.00    -0.204 F 
ENDBRANCH  20  23
ENDBRANCH   5  17
BRANCH   4  30
ATOM     30  N   UNL     1       1.035  -6.853  -0.268  0.00  0.00    -0.353 N 
ATOM     31  H   UNL     1       0.222  -6.325  -0.319  0.00  0.00    +0.143 HD
ATOM     32  H   UNL     1       0.986  -7.822  -0.280  0.00  0.00    +0.143 HD
ENDBRANCH   4  30
TORSDOF 4
