REMARK  Name = ZINC63833718
REMARK  1 active torsions:
REMARK  status: ('A' for Active; 'I' for Inactive)
REMARK    1  A    between atoms: C_1  and  C_2
REMARK                            x       y       z     vdW  Elec       q    Type
REMARK                         _______ _______ _______ _____ _____    ______ ____
ROOT
ATOM      1  C   UNL     1      -0.023   0.294  -3.783  0.00  0.00    +0.075 C 
ATOM      2  C   UNL     1      -0.001  -0.930  -2.905  0.00  0.00    +0.101 A 
ATOM      3  N   UNL     1       0.003  -1.028  -1.591  0.00  0.00    -0.145 NA
ATOM      4  N   UNL     1       0.022  -2.174  -1.059  0.00  0.00    -0.126 NA
ATOM      5  C   UNL     1       0.041  -3.276  -1.782  0.00  0.00    +0.189 A 
ATOM      6  S   UNL     1       0.021  -2.661  -3.351  0.00  0.00    -0.036 S 
ATOM      7  N   UNL     1       0.064  -4.601  -1.359  0.00  0.00    -0.247 N 
ATOM      8  C   UNL     1       0.070  -4.889  -0.043  0.00  0.00    +0.308 C 
ATOM      9  O   UNL     1       0.150  -3.993   0.775  0.00  0.00    -0.252 OA
ATOM     10  N   UNL     1      -0.012  -6.168   0.367  0.00  0.00    -0.279 N 
ATOM     11  C   UNL     1      -0.119  -6.481   1.779  0.00  0.00    +0.078 C 
ATOM     12  C   UNL     1       1.180  -6.762   2.472  0.00  0.00    +0.022 C 
ATOM     13  C   UNL     1       2.284  -7.390   1.668  0.00  0.00    +0.002 C 
ATOM     14  C   UNL     1       1.954  -8.341   0.585  0.00  0.00    +0.002 C 
ATOM     15  C   UNL     1       1.415  -7.799  -0.707  0.00  0.00    +0.022 C 
ATOM     16  C   UNL     1      -0.002  -7.275  -0.612  0.00  0.00    +0.078 C 
ATOM     17  C   UNL     1      -1.025  -8.341  -0.291  0.00  0.00    +0.022 C 
ATOM     18  C   UNL     1      -1.083  -8.723   1.180  0.00  0.00    +0.004 C 
ATOM     19  C   UNL     1      -1.210  -7.492   2.071  0.00  0.00    +0.022 C 
ATOM     20  H   UNL     1       0.076  -5.319  -2.013  0.00  0.00    +0.158 HD
ENDROOT
TORSDOF 0
