REMARK  Name = ZINC16845672
REMARK  5 active torsions:
REMARK  status: ('A' for Active; 'I' for Inactive)
REMARK    1  A    between atoms: C_1  and  C_2
REMARK    2  A    between atoms: C_2  and  C_3
REMARK    3  A    between atoms: C_3  and  S_4
REMARK    4  A    between atoms: S_4  and  C_5
REMARK    5  A    between atoms: C_19  and  C_22
REMARK                            x       y       z     vdW  Elec       q    Type
REMARK                         _______ _______ _______ _____ _____    ______ ____
ROOT
ATOM      1  C   UNL     1      -2.450   8.047   1.123  0.00  0.00    +0.198 A 
ATOM      2  N   UNL     1      -1.921   7.349   0.145  0.00  0.00    -0.122 NA
ATOM      3  N   UNL     1      -1.621   6.165   0.552  0.00  0.00    -0.128 NA
ATOM      4  C   UNL     1      -1.942   6.038   1.816  0.00  0.00    +0.174 A 
ATOM      5  N   UNL     1      -2.483   7.237   2.226  0.00  0.00    -0.241 N 
ATOM      6  C   UNL     1      -2.913   7.400   3.515  0.00  0.00    +0.202 A 
ATOM      7  N   UNL     1      -2.823   6.428   4.391  0.00  0.00    -0.208 NA
ATOM      8  C   UNL     1      -2.314   5.237   4.081  0.00  0.00    +0.116 A 
ATOM      9  C   UNL     1      -1.838   4.937   2.798  0.00  0.00    +0.056 A 
ATOM     10  C   UNL     1      -1.310   3.588   2.608  0.00  0.00    -0.024 A 
ATOM     11  C   UNL     1      -1.330   2.766   3.680  0.00  0.00    -0.004 A 
ATOM     12  S   UNL     1      -2.045   3.731   4.983  0.00  0.00    -0.073 S 
ATOM     13  C   UNL     1      -0.851   1.348   3.746  0.00  0.00    +0.043 C 
ATOM     14  C   UNL     1       0.013   1.071   2.506  0.00  0.00    +0.009 C 
ATOM     15  C   UNL     1      -0.729   1.579   1.267  0.00  0.00    -0.009 C 
ATOM     16  C   UNL     1      -0.758   3.108   1.268  0.00  0.00    +0.040 C 
ATOM     17  C   UNL     1      -0.013   1.086   0.008  0.00  0.00    +0.008 C 
ATOM     18  N   UNL     1      -3.449   8.607   3.900  0.00  0.00    -0.328 N 
ATOM     19  H   UNL     1      -3.757   8.732   4.811  0.00  0.00    +0.145 HD
ATOM     20  H   UNL     1      -3.520   9.332   3.260  0.00  0.00    +0.145 HD
ENDROOT
BRANCH   1  21
ATOM     21  S   UNL     1      -3.013   9.714   1.033  0.00  0.00    -0.086 S 
BRANCH  21  22
ATOM     22  C   UNL     1      -2.686  10.196  -0.685  0.00  0.00    +0.077 C 
BRANCH  22  24
ATOM     23  C   UNL     1      -2.857  12.049  -2.352  0.00  0.00    +0.004 C 
ATOM     24  C   UNL     1      -3.134  11.642  -0.903  0.00  0.00    +0.008 C 
ENDBRANCH  22  24
ENDBRANCH  21  22
ENDBRANCH   1  21
TORSDOF 3
