REMARK  Name = ZINC09561986
REMARK  7 active torsions:
REMARK  status: ('A' for Active; 'I' for Inactive)
REMARK    1  A    between atoms: N_11  and  C_14
REMARK    2  A    between atoms: C_14  and  C_15
REMARK    3  A    between atoms: C_15  and  O_17
REMARK    4  A    between atoms: O_17  and  C_18
REMARK    5  A    between atoms: C_18  and  C_19
REMARK    6  A    between atoms: N_21  and  C_22
REMARK    7  A    between atoms: C_23  and  C_30
REMARK                            x       y       z     vdW  Elec       q    Type
REMARK                         _______ _______ _______ _____ _____    ______ ____
ROOT
ATOM      1  C   UNL     1       5.328  -7.200   1.509  0.00  0.00    +0.255 C 
ATOM      2  O   UNL     1       5.182  -7.444   2.688  0.00  0.00    -0.272 OA
ATOM      3  N   UNL     1       5.995  -8.065   0.719  0.00  0.00    -0.277 N 
ATOM      4  H   UNL     1       6.112  -7.870  -0.224  0.00  0.00    +0.155 HD
ENDROOT
BRANCH   3   5
ATOM      5  C   UNL     1       6.515  -9.233   1.255  0.00  0.00    +0.084 A 
ATOM      6  C   UNL     1       7.226 -10.224   0.605  0.00  0.00    +0.068 A 
ATOM      7  C   UNL     1       7.668 -11.366   1.403  0.00  0.00    -0.023 A 
ATOM      8  C   UNL     1       7.313 -11.300   2.699  0.00  0.00    -0.004 A 
ATOM      9  S   UNL     1       6.432  -9.766   2.844  0.00  0.00    -0.077 S 
ATOM     10  C   UNL     1       7.788 -12.499   3.473  0.00  0.00    +0.043 C 
ATOM     11  C   UNL     1       8.129 -13.550   2.393  0.00  0.00    +0.010 C 
ATOM     12  C   UNL     1       8.448 -12.659   1.176  0.00  0.00    +0.037 C 
BRANCH   6  13
ATOM     13  C   UNL     1       7.524 -10.134  -0.828  0.00  0.00    +0.244 C 
ATOM     14  O   UNL     1       8.549  -9.595  -1.204  0.00  0.00    -0.270 OA
ATOM     15  N   UNL     1       6.664 -10.648  -1.729  0.00  0.00    -0.325 N 
ATOM     16  H   UNL     1       5.848 -11.078  -1.430  0.00  0.00    +0.145 HD
ATOM     17  H   UNL     1       6.861 -10.588  -2.677  0.00  0.00    +0.145 HD
ENDBRANCH   6  13
ENDBRANCH   3   5
BRANCH   1  18
ATOM     18  C   UNL     1       4.763  -5.930   0.926  0.00  0.00    +0.328 C 
BRANCH  18  19
ATOM     19  O   UNL     1       4.105  -5.186   1.954  0.00  0.00    -0.454 OA
BRANCH  19  20
ATOM     20  C   UNL     1       3.544  -4.020   1.598  0.00  0.00    +0.326 C 
ATOM     21  O   UNL     1       3.608  -3.643   0.452  0.00  0.00    -0.249 OA
BRANCH  20  22
ATOM     22  C   UNL     1       2.833  -3.180   2.628  0.00  0.00    +0.236 C 
BRANCH  22  31
ATOM     23  C   UNL     1      -0.019   1.536   0.011  0.00  0.00    +0.001 C 
ATOM     24  C   UNL     1       1.386   2.129   0.000  0.00  0.00    +0.001 C 
ATOM     25  C   UNL     1       2.260   1.554   1.132  0.00  0.00    +0.013 C 
ATOM     26  C   UNL     1       2.277   0.054   0.932  0.00  0.00    +0.087 C 
ATOM     27  C   UNL     1       0.821  -0.434   1.196  0.00  0.00    +0.087 C 
ATOM     28  C   UNL     1       0.002  -0.004   0.002  0.00  0.00    +0.013 C 
ATOM     29  C   UNL     1       1.072  -1.888   1.438  0.00  0.00    +0.226 C 
ATOM     30  O   UNL     1       0.324  -2.809   1.189  0.00  0.00    -0.275 OA
ATOM     31  N   UNL     1       2.312  -1.967   1.993  0.00  0.00    -0.231 N 
ATOM     32  C   UNL     1       3.036  -0.807   1.892  0.00  0.00    +0.226 C 
ATOM     33  O   UNL     1       4.069  -0.529   2.462  0.00  0.00    -0.275 OA
ENDBRANCH  22  31
ENDBRANCH  20  22
ENDBRANCH  19  20
ENDBRANCH  18  19
ENDBRANCH   1  18
TORSDOF 7
