REMARK  Name = ZINC64719745
REMARK  8 active torsions:
REMARK  status: ('A' for Active; 'I' for Inactive)
REMARK    1  A    between atoms: C_1  and  N_2
REMARK    2  A    between atoms: C_3  and  C_5
REMARK    3  A    between atoms: C_8  and  C_11
REMARK    4  A    between atoms: C_11  and  N_12
REMARK    5  A    between atoms: N_12  and  C_13
REMARK    6  A    between atoms: N_16  and  C_17
REMARK    7  A    between atoms: C_17  and  C_18
REMARK    8  A    between atoms: C_18  and  C_19
REMARK                            x       y       z     vdW  Elec       q    Type
REMARK                         _______ _______ _______ _____ _____    ______ ____
ROOT
ATOM      1  N   UNL     1      -0.530  -6.919  -1.738  0.00  0.00    -0.284 N 
ATOM      2  C   UNL     1      -0.497  -7.155  -3.183  0.00  0.00    +0.134 C 
ATOM      3  C   UNL     1      -1.657  -7.163  -1.040  0.00  0.00    +0.302 C 
ATOM      4  O   UNL     1      -1.685  -6.967   0.159  0.00  0.00    -0.253 OA
ATOM      5  N   UNL     1      -2.755  -7.624  -1.673  0.00  0.00    -0.299 N 
ATOM      6  H   UNL     1      -2.733  -7.780  -2.630  0.00  0.00    +0.150 HD
ENDROOT
BRANCH   1   7
ATOM      7  C   UNL     1       0.663  -6.419  -1.050  0.00  0.00    +0.144 C 
BRANCH   7  11
ATOM      8  C   UNL     1       0.605  -2.143  -1.026  0.00  0.00    +0.037 A 
ATOM      9  C   UNL     1       0.016  -2.857   0.018  0.00  0.00    +0.013 A 
ATOM     10  C   UNL     1       0.038  -4.237   0.004  0.00  0.00    +0.006 A 
ATOM     11  C   UNL     1       0.642  -4.912  -1.042  0.00  0.00    -0.030 A 
ATOM     12  C   UNL     1       1.228  -4.209  -2.079  0.00  0.00    +0.006 A 
ATOM     13  C   UNL     1       1.208  -2.830  -2.081  0.00  0.00    +0.013 A 
BRANCH   8  16
ATOM     14  C   UNL     1      -0.018   1.461   0.010  0.00  0.00    +0.128 C 
ATOM     15  N   UNL     1       0.002  -0.004   0.002  0.00  0.00    -0.314 N 
ATOM     16  C   UNL     1       0.585  -0.664  -1.018  0.00  0.00    +0.244 C 
ATOM     17  O   UNL     1       1.094  -0.045  -1.931  0.00  0.00    -0.270 OA
ATOM     18  H   UNL     1      -0.404  -0.499   0.731  0.00  0.00    +0.149 HD
ENDBRANCH   8  16
ENDBRANCH   7  11
ENDBRANCH   1   7
BRANCH   5  19
ATOM     19  C   UNL     1      -3.980  -7.889  -0.915  0.00  0.00    +0.110 C 
BRANCH  19  20
ATOM     20  C   UNL     1      -5.066  -8.400  -1.864  0.00  0.00    +0.052 C 
BRANCH  20  21
ATOM     21  C   UNL     1      -6.327  -8.672  -1.085  0.00  0.00    -0.040 C 
ATOM     22  C   UNL     1      -7.378  -7.837  -0.920  0.00  0.00    -0.001 A 
ATOM     23  C   UNL     1      -7.651  -6.476  -1.398  0.00  0.00    +0.010 A 
ATOM     24  C   UNL     1      -8.819  -5.885  -1.061  0.00  0.00    +0.001 A 
ATOM     25  C   UNL     1      -9.773  -6.536  -0.268  0.00  0.00    +0.002 A 
ATOM     26  C   UNL     1      -9.594  -7.787   0.209  0.00  0.00    +0.026 A 
ATOM     27  C   UNL     1      -8.402  -8.504  -0.084  0.00  0.00    +0.043 A 
ATOM     28  N   UNL     1      -7.999  -9.704   0.255  0.00  0.00    -0.380 N 
ATOM     29  C   UNL     1      -6.676  -9.938  -0.333  0.00  0.00    +0.144 C 
ATOM     30  H   UNL     1      -8.495 -10.335   0.800  0.00  0.00    +0.160 HD
ENDBRANCH  20  21
ENDBRANCH  19  20
ENDBRANCH   5  19
TORSDOF 6
