REMARK  Name = ZINC00933293
REMARK  9 active torsions:
REMARK  status: ('A' for Active; 'I' for Inactive)
REMARK    1  A    between atoms: C_6  and  C_7
REMARK    2  A    between atoms: C_7  and  N_8
REMARK    3  A    between atoms: N_8  and  C_9
REMARK    4  A    between atoms: N_8  and  S_17
REMARK    5  A    between atoms: C_9  and  C_10
REMARK    6  A    between atoms: S_17  and  C_20
REMARK    7  A    between atoms: C_23  and  S_26
REMARK    8  A    between atoms: S_26  and  N_29
REMARK    9  A    between atoms: N_29  and  C_30
REMARK                            x       y       z     vdW  Elec       q    Type
REMARK                         _______ _______ _______ _____ _____    ______ ____
ROOT
ATOM      1  N   UNL     1       1.061  -2.898  -1.555  0.00  0.00    -0.168 NA
ENDROOT
BRANCH   1   2
ATOM      2  S   UNL     1       1.148  -2.350   0.005  0.00  0.00    +0.061 S 
ATOM      3  O   UNL     1       2.299  -2.950   0.583  0.00  0.00    -0.153 OA
ATOM      4  O   UNL     1      -0.151  -2.503   0.561  0.00  0.00    -0.153 OA
BRANCH   2   5
ATOM      5  C   UNL     1       1.464  -0.619  -0.068  0.00  0.00    +0.106 A 
ATOM      6  C   UNL     1       0.420   0.280   0.046  0.00  0.00    +0.030 A 
ATOM      7  C   UNL     1       0.669   1.639  -0.011  0.00  0.00    +0.030 A 
ATOM      8  C   UNL     1       1.961   2.099  -0.182  0.00  0.00    +0.105 A 
ATOM      9  C   UNL     1       3.005   1.200  -0.296  0.00  0.00    +0.030 A 
ATOM     10  C   UNL     1       2.757  -0.159  -0.238  0.00  0.00    +0.030 A 
BRANCH   8  11
ATOM     11  S   UNL     1       2.278   3.830  -0.255  0.00  0.00    +0.059 S 
ATOM     12  O   UNL     1       3.498   3.990  -0.966  0.00  0.00    -0.153 OA
ATOM     13  O   UNL     1       1.067   4.447  -0.671  0.00  0.00    -0.153 OA
BRANCH  11  14
ATOM     14  N   UNL     1       2.562   4.342   1.294  0.00  0.00    -0.187 NA
ATOM     15  H   UNL     1       1.951   4.963   1.720  0.00  0.00    +0.148 HD
BRANCH  14  16
ATOM     16  C   UNL     1       3.738   3.857   2.021  0.00  0.00    +0.077 C 
ATOM     17  C   UNL     1       3.603   3.666   3.533  0.00  0.00    +0.022 C 
ATOM     18  C   UNL     1       4.426   4.831   2.980  0.00  0.00    +0.022 C 
ENDBRANCH  14  16
ENDBRANCH  11  14
ENDBRANCH   8  11
ENDBRANCH   2   5
ENDBRANCH   1   2
BRANCH   1  19
ATOM     19  C   UNL     1      -0.242  -3.049  -2.208  0.00  0.00    +0.145 C 
BRANCH  19  25
ATOM     20  C   UNL     1      -1.245  -0.775  -2.503  0.00  0.00    +0.008 A 
ATOM     21  C   UNL     1      -1.506   0.347  -3.266  0.00  0.00    +0.038 A 
ATOM     22  C   UNL     1      -1.060   0.412  -4.575  0.00  0.00    +0.123 A 
ATOM     23  C   UNL     1      -0.348  -0.646  -5.117  0.00  0.00    +0.038 A 
ATOM     24  C   UNL     1      -0.084  -1.765  -4.349  0.00  0.00    +0.008 A 
ATOM     25  C   UNL     1      -0.530  -1.828  -3.043  0.00  0.00    -0.031 A 
ATOM     26  F   UNL     1      -1.318   1.506  -5.324  0.00  0.00    -0.205 F 
ENDBRANCH  19  25
ENDBRANCH   1  19
BRANCH   1  27
ATOM     27  C   UNL     1       2.288  -3.232  -2.283  0.00  0.00    +0.145 C 
BRANCH  27  28
ATOM     28  C   UNL     1       2.559  -4.710  -2.160  0.00  0.00    -0.032 A 
ATOM     29  C   UNL     1       3.330  -5.186  -1.116  0.00  0.00    +0.006 A 
ATOM     30  C   UNL     1       3.574  -6.541  -0.999  0.00  0.00    +0.020 A 
ATOM     31  C   UNL     1       3.056  -7.420  -1.933  0.00  0.00    +0.041 A 
ATOM     32  C   UNL     1       2.289  -6.943  -2.981  0.00  0.00    +0.020 A 
ATOM     33  C   UNL     1       2.041  -5.588  -3.094  0.00  0.00    +0.006 A 
ATOM     34 CL   UNL     1       3.368  -9.122  -1.791  0.00  0.00    -0.084 Cl
ENDBRANCH  27  28
ENDBRANCH   1  27
TORSDOF 9
