REMARK  Name = ZINC48063531
REMARK  6 active torsions:
REMARK  status: ('A' for Active; 'I' for Inactive)
REMARK    1  A    between atoms: C_1  and  C_2
REMARK    2  A    between atoms: C_2  and  C_28
REMARK    3  A    between atoms: C_4  and  N_9
REMARK    4  A    between atoms: N_9  and  C_10
REMARK    5  A    between atoms: N_13  and  C_16
REMARK    6  A    between atoms: C_20  and  N_22
REMARK                            x       y       z     vdW  Elec       q    Type
REMARK                         _______ _______ _______ _____ _____    ______ ____
ROOT
ATOM      1  C   UNL     1       4.284   0.026  -2.387  0.00  0.00    -0.069 C 
ATOM      2  C   UNL     1       4.205   1.538  -2.611  0.00  0.00    +0.003 C 
ATOM      3  C   UNL     1       5.621   2.122  -2.635  0.00  0.00    +0.103 C 
ATOM      4  N   UNL     1       6.412   1.403  -3.643  0.00  0.00    -0.330 N 
ATOM      5  C   UNL     1       6.480  -0.064  -3.573  0.00  0.00    +0.103 C 
ATOM      6  C   UNL     1       5.054  -0.622  -3.539  0.00  0.00    +0.003 C 
ENDROOT
BRANCH   4   7
ATOM      7  C   UNL     1       7.086   2.099  -4.648  0.00  0.00    +0.031 A 
ATOM      8  C   UNL     1       6.921   3.474  -4.773  0.00  0.00    +0.023 A 
ATOM      9  C   UNL     1       7.587   4.164  -5.767  0.00  0.00    +0.004 A 
ATOM     10  C   UNL     1       8.419   3.490  -6.640  0.00  0.00    +0.024 A 
ATOM     11  C   UNL     1       8.588   2.116  -6.522  0.00  0.00    +0.040 A 
ATOM     12  C   UNL     1       7.925   1.421  -5.521  0.00  0.00    +0.046 A 
BRANCH  11  13
ATOM     13  N   UNL     1       9.431   1.435  -7.407  0.00  0.00    -0.254 N 
ATOM     14  C   UNL     1       9.599  -0.024  -7.471  0.00  0.00    +0.134 C 
ATOM     15  C   UNL     1      10.625  -0.229  -8.603  0.00  0.00    +0.125 C 
ATOM     16  N   UNL     1      10.926   1.137  -9.057  0.00  0.00    -0.297 N 
ATOM     17  C   UNL     1      10.208   2.009  -8.336  0.00  0.00    +0.307 C 
ATOM     18  O   UNL     1      10.260   3.211  -8.506  0.00  0.00    -0.252 OA
ATOM     19  H   UNL     1      11.543   1.370  -9.768  0.00  0.00    +0.150 HD
ENDBRANCH  11  13
ENDBRANCH   4   7
BRANCH   1  20
ATOM     20  N   UNL     1       2.926  -0.532  -2.331  0.00  0.00    +0.383 N 
ATOM     21  H   UNL     1       2.978  -1.537  -2.264  0.00  0.00    -0.085 HD
ATOM     22  H   UNL     1       2.422  -0.276  -3.166  0.00  0.00    -0.085 HD
BRANCH  20  26
ATOM     23  C   UNL     1       0.054   1.546   0.114  0.00  0.00    +0.041 C 
ATOM     24  C   UNL     1       0.072   0.016   0.106  0.00  0.00    +0.063 C 
ATOM     25  C   UNL     1       0.772  -0.480  -1.161  0.00  0.00    +0.019 C 
ATOM     26  C   UNL     1       2.226   0.001  -1.154  0.00  0.00    -0.067 C 
ATOM     27  C   UNL     1       2.911  -0.498   0.122  0.00  0.00    +0.012 C 
ATOM     28  C   UNL     1       2.128  -0.001   1.340  0.00  0.00    +0.159 C 
ATOM     29  O   UNL     1       0.777  -0.458   1.255  0.00  0.00    -0.374 OA
ATOM     30  C   UNL     1      -1.364  -0.511   0.136  0.00  0.00    +0.041 C 
ENDBRANCH  20  26
ENDBRANCH   1  20
TORSDOF 4
