REMARK  Name = ZINC39677680
REMARK  7 active torsions:
REMARK  status: ('A' for Active; 'I' for Inactive)
REMARK    1  A    between atoms: C_5  and  C_7
REMARK    2  A    between atoms: C_10  and  C_12
REMARK    3  A    between atoms: C_12  and  N_13
REMARK    4  A    between atoms: C_14  and  C_16
REMARK    5  A    between atoms: C_27  and  C_29
REMARK    6  A    between atoms: C_29  and  O_30
REMARK    7  A    between atoms: O_30  and  C_31
REMARK                            x       y       z     vdW  Elec       q    Type
REMARK                         _______ _______ _______ _____ _____    ______ ____
ROOT
ATOM      1  C   UNL     1      -0.336  -8.451   2.993  0.00  0.00    +0.100 C 
ATOM      2  C   UNL     1       1.046  -8.569   3.674  0.00  0.00    +0.121 C 
ATOM      3  N   UNL     1       0.944  -9.780   4.522  0.00  0.00    -0.297 N 
ATOM      4  C   UNL     1       0.168 -10.741   3.701  0.00  0.00    +0.115 C 
ATOM      5  C   UNL     1      -0.908  -9.879   3.012  0.00  0.00    -0.004 C 
ATOM      6  C   UNL     1      -1.146 -10.371   1.587  0.00  0.00    -0.010 C 
ATOM      7  C   UNL     1      -1.769 -11.769   1.633  0.00  0.00    -0.082 C 
ATOM      8  N   UNL     1      -3.037 -11.718   2.372  0.00  0.00    +0.379 N 
ATOM      9  C   UNL     1      -2.787 -11.333   3.767  0.00  0.00    -0.082 C 
ATOM     10  C   UNL     1      -2.207  -9.917   3.811  0.00  0.00    -0.010 C 
ATOM     11  C   UNL     1       1.442  -9.966   5.760  0.00  0.00    +0.253 C 
ATOM     12  O   UNL     1       1.274 -11.024   6.329  0.00  0.00    -0.272 OA
ATOM     13  H   UNL     1      -3.648 -11.041   1.942  0.00  0.00    -0.086 HD
ATOM     14  H   UNL     1      -3.475 -12.627   2.349  0.00  0.00    -0.086 HD
ENDROOT
BRANCH   1  16
ATOM     15  N   UNL     1      -1.173  -7.261   0.992  0.00  0.00    -0.310 N 
ATOM     16  C   UNL     1      -0.182  -7.966   1.575  0.00  0.00    +0.218 C 
ATOM     17  O   UNL     1       0.833  -8.210   0.957  0.00  0.00    -0.275 OA
ATOM     18  H   UNL     1      -1.984  -7.067   1.486  0.00  0.00    +0.149 HD
BRANCH  15  19
ATOM     19  C   UNL     1      -1.023  -6.790  -0.387  0.00  0.00    +0.146 C 
BRANCH  19  23
ATOM     20  C   UNL     1      -4.636  -5.105  -1.677  0.00  0.00    +0.038 A 
ATOM     21  C   UNL     1      -3.742  -4.228  -1.122  0.00  0.00    +0.018 A 
ATOM     22  C   UNL     1      -2.533  -4.709  -0.674  0.00  0.00    +0.013 A 
ATOM     23  C   UNL     1      -2.261  -6.034  -0.796  0.00  0.00    +0.007 A 
ATOM     24  S   UNL     1      -3.752  -6.652  -1.559  0.00  0.00    -0.090 S 
BRANCH  20  29
ATOM     25  C   UNL     1      -7.995  -5.631  -3.252  0.00  0.00    +0.004 A 
ATOM     26  C   UNL     1      -8.461  -4.323  -3.227  0.00  0.00    +0.020 A 
ATOM     27  C   UNL     1      -7.661  -3.328  -2.698  0.00  0.00    +0.111 A 
ATOM     28  N   UNL     1      -6.465  -3.604  -2.219  0.00  0.00    -0.254 NA
ATOM     29  C   UNL     1      -5.982  -4.842  -2.224  0.00  0.00    +0.078 A 
ATOM     30  C   UNL     1      -6.737  -5.895  -2.743  0.00  0.00    +0.029 A 
ENDBRANCH  20  29
ENDBRANCH  19  23
ENDBRANCH  15  19
ENDBRANCH   1  16
BRANCH  11  31
ATOM     31  C   UNL     1       2.209  -8.860   6.438  0.00  0.00    +0.324 C 
BRANCH  31  32
ATOM     32  O   UNL     1       2.631  -9.296   7.731  0.00  0.00    -0.483 OA
BRANCH  32  33
ATOM     33  C   UNL     1       3.341  -8.411   8.480  0.00  0.00    +0.123 A 
ATOM     34  C   UNL     1       3.620  -7.146   7.981  0.00  0.00    +0.046 A 
ATOM     35  C   UNL     1       4.341  -6.248   8.743  0.00  0.00    +0.005 A 
ATOM     36  C   UNL     1       4.785  -6.607  10.003  0.00  0.00    +0.020 A 
ATOM     37  C   UNL     1       4.508  -7.867  10.502  0.00  0.00    +0.044 A 
ATOM     38  C   UNL     1       3.782  -8.768   9.745  0.00  0.00    +0.065 A 
ATOM     39 CL   UNL     1       5.068  -8.316  12.083  0.00  0.00    -0.083 Cl
ENDBRANCH  32  33
ENDBRANCH  31  32
ENDBRANCH  11  31
TORSDOF 7
