REMARK  Name = ZINC36274405
REMARK  6 active torsions:
REMARK  status: ('A' for Active; 'I' for Inactive)
REMARK    1  A    between atoms: C_1  and  C_2
REMARK    2  A    between atoms: C_5  and  C_26
REMARK    3  A    between atoms: N_8  and  C_10
REMARK    4  A    between atoms: C_10  and  C_11
REMARK    5  A    between atoms: C_12  and  C_21
REMARK    6  A    between atoms: C_17  and  N_20
REMARK                            x       y       z     vdW  Elec       q    Type
REMARK                         _______ _______ _______ _____ _____    ______ ____
ROOT
ATOM      1  C   UNL     1       2.971  -2.034   2.241  0.00  0.00    +0.035 A 
ATOM      2  C   UNL     1       3.965  -2.733   1.619  0.00  0.00    +0.098 A 
ATOM      3  N   UNL     1       5.097  -2.016   1.701  0.00  0.00    -0.227 NA
ATOM      4  C   UNL     1       4.851  -0.889   2.355  0.00  0.00    +0.139 A 
ATOM      5  N   UNL     1       3.525  -0.872   2.700  0.00  0.00    -0.303 N 
ATOM      6  C   UNL     1       3.001   0.190   3.384  0.00  0.00    +0.115 A 
ATOM      7  C   UNL     1       3.783   1.242   3.728  0.00  0.00    +0.041 A 
ATOM      8  C   UNL     1       5.149   1.251   3.382  0.00  0.00    +0.028 A 
ATOM      9  C   UNL     1       5.679   0.195   2.709  0.00  0.00    +0.048 A 
ENDROOT
BRANCH   2  10
ATOM     10  C   UNL     1       3.819  -4.052   0.966  0.00  0.00    +0.039 A 
ATOM     11  C   UNL     1       4.446  -4.536  -0.151  0.00  0.00    +0.018 A 
ATOM     12  C   UNL     1       4.146  -5.812  -0.578  0.00  0.00    +0.008 A 
ATOM     13  C   UNL     1       3.243  -6.548   0.118  0.00  0.00    +0.046 A 
ATOM     14  S   UNL     1       2.785  -5.431   1.433  0.00  0.00    -0.095 S 
ENDBRANCH   2  10
BRANCH   7  15
ATOM     15  N   UNL     1       3.232   2.323   4.429  0.00  0.00    -0.357 N 
ATOM     16  H   UNL     1       2.292   2.318   4.668  0.00  0.00    +0.142 HD
ATOM     17  H   UNL     1       3.791   3.076   4.676  0.00  0.00    +0.142 HD
ENDBRANCH   7  15
BRANCH   1  18
ATOM     18  C   UNL     1       1.534  -2.461   2.390  0.00  0.00    -0.022 C 
BRANCH  18  24
ATOM     19  C   UNL     1      -0.019   1.526   0.010  0.00  0.00    +0.005 C 
ATOM     20  C   UNL     1       0.002  -0.004   0.002  0.00  0.00    -0.031 C 
ATOM     21  C   UNL     1      -1.434  -0.535   0.015  0.00  0.00    +0.003 C 
ATOM     22  C   UNL     1      -1.402  -2.064   0.086  0.00  0.00    -0.031 C 
ATOM     23  C   UNL     1      -0.613  -2.496   1.324  0.00  0.00    -0.075 C 
ATOM     24  N   UNL     1       0.758  -1.980   1.239  0.00  0.00    +0.384 N 
ATOM     25  C   UNL     1       0.740  -0.512   1.242  0.00  0.00    -0.075 C 
ATOM     26  C   UNL     1      -0.728  -2.620  -1.170  0.00  0.00    +0.005 C 
ATOM     27  H   UNL     1       1.188  -2.307   0.386  0.00  0.00    -0.081 HD
ENDBRANCH  18  24
ENDBRANCH   1  18
TORSDOF 4
