REMARK  Name = ZINC39914453
REMARK  10 active torsions:
REMARK  status: ('A' for Active; 'I' for Inactive)
REMARK    1  A    between atoms: C_1  and  C_2
REMARK    2  A    between atoms: C_2  and  C_3
REMARK    3  A    between atoms: C_3  and  C_4
REMARK    4  A    between atoms: C_4  and  C_5
REMARK    5  A    between atoms: C_5  and  N_6
REMARK    6  A    between atoms: C_7  and  C_26
REMARK    7  A    between atoms: C_10  and  C_17
REMARK    8  A    between atoms: C_20  and  C_24
REMARK    9  A    between atoms: C_22  and  O_23
REMARK   10  A    between atoms: C_30  and  O_32
REMARK                            x       y       z     vdW  Elec       q    Type
REMARK                         _______ _______ _______ _____ _____    ______ ____
ROOT
ATOM      1  N   UNL     1       1.475  -3.986  -2.532  0.00  0.00    -0.285 N 
ATOM      2  C   UNL     1       2.520  -4.835  -1.946  0.00  0.00    +0.141 C 
ATOM      3  C   UNL     1       2.097  -6.255  -2.207  0.00  0.00    +0.035 A 
ATOM      4  C   UNL     1       2.384  -7.617  -2.061  0.00  0.00    +0.102 A 
ATOM      5  N   UNL     1       1.403  -8.289  -2.630  0.00  0.00    -0.173 NA
ATOM      6  N   UNL     1       0.526  -7.488  -3.121  0.00  0.00    -0.272 N 
ATOM      7  H   UNL     1      -0.281  -7.761  -3.584  0.00  0.00    +0.189 HD
ATOM      8  C   UNL     1       0.898  -6.194  -2.891  0.00  0.00    +0.126 A 
ATOM      9  C   UNL     1       0.536  -4.784  -3.072  0.00  0.00    +0.265 C 
ATOM     10  O   UNL     1      -0.469  -4.391  -3.634  0.00  0.00    -0.268 OA
ENDROOT
BRANCH   4  11
ATOM     11  C   UNL     1       3.573  -8.197  -1.390  0.00  0.00    +0.045 A 
ATOM     12  C   UNL     1       4.534  -7.362  -0.824  0.00  0.00    +0.034 A 
ATOM     13  C   UNL     1       5.639  -7.907  -0.200  0.00  0.00    +0.045 A 
ATOM     14  C   UNL     1       5.795  -9.281  -0.135  0.00  0.00    -0.029 A 
ATOM     15  C   UNL     1       4.848 -10.118  -0.694  0.00  0.00    +0.050 A 
ATOM     16  C   UNL     1       3.732  -9.584  -1.318  0.00  0.00    +0.126 A 
ATOM     17  C   UNL     1       7.005  -9.868   0.547  0.00  0.00    +0.045 C 
ATOM     18 CL   UNL     1       6.836  -6.866   0.505  0.00  0.00    -0.083 Cl
BRANCH  16  19
ATOM     19  O   UNL     1       2.796 -10.405  -1.862  0.00  0.00    -0.506 OA
ATOM     20  H   UNL     1       2.964 -10.633  -2.787  0.00  0.00    +0.292 HD
ENDBRANCH  16  19
ENDBRANCH   4  11
BRANCH   2  21
ATOM     21  C   UNL     1       2.620  -4.586  -0.464  0.00  0.00    -0.019 A 
ATOM     22  C   UNL     1       1.472  -4.409   0.287  0.00  0.00    +0.006 A 
ATOM     23  C   UNL     1       1.561  -4.180   1.647  0.00  0.00    +0.004 A 
ATOM     24  C   UNL     1       2.798  -4.128   2.261  0.00  0.00    +0.045 A 
ATOM     25  C   UNL     1       3.951  -4.305   1.511  0.00  0.00    +0.117 A 
ATOM     26  C   UNL     1       3.859  -4.540   0.146  0.00  0.00    +0.051 A 
BRANCH  25  27
ATOM     27  O   UNL     1       5.169  -4.253   2.112  0.00  0.00    -0.507 OA
ATOM     28  H   UNL     1       5.484  -5.109   2.435  0.00  0.00    +0.292 HD
ENDBRANCH  25  27
ENDBRANCH   2  21
BRANCH   1  29
ATOM     29  C   UNL     1       1.455  -2.521  -2.524  0.00  0.00    +0.109 C 
BRANCH  29  30
ATOM     30  C   UNL     1       0.739  -2.027  -1.265  0.00  0.00    +0.019 C 
BRANCH  30  31
ATOM     31  C   UNL     1       0.718  -0.497  -1.257  0.00  0.00    +0.001 C 
BRANCH  31  33
ATOM     32  C   UNL     1      -0.019   1.526   0.010  0.00  0.00    +0.004 C 
ATOM     33  C   UNL     1       0.002  -0.004   0.002  0.00  0.00    -0.003 C 
ENDBRANCH  31  33
ENDBRANCH  30  31
ENDBRANCH  29  30
ENDBRANCH   1  29
TORSDOF 8
