REMARK  Name = ZINC08856845
REMARK  9 active torsions:
REMARK  status: ('A' for Active; 'I' for Inactive)
REMARK    1  A    between atoms: C_1  and  C_2
REMARK    2  A    between atoms: C_2  and  N_3
REMARK    3  A    between atoms: N_3  and  C_4
REMARK    4  A    between atoms: C_4  and  C_5
REMARK    5  A    between atoms: C_6  and  C_8
REMARK    6  A    between atoms: N_13  and  S_15
REMARK    7  A    between atoms: S_15  and  C_18
REMARK    8  A    between atoms: C_20  and  N_34
REMARK    9  A    between atoms: C_23  and  N_24
REMARK                            x       y       z     vdW  Elec       q    Type
REMARK                         _______ _______ _______ _____ _____    ______ ____
ROOT
ATOM      1  C   UNL     1       1.617   4.687  -0.905  0.00  0.00    +0.129 A 
ATOM      2  C   UNL     1       2.767   5.452  -0.887  0.00  0.00    +0.063 A 
ATOM      3  C   UNL     1       2.717   6.769  -0.469  0.00  0.00    +0.128 A 
ATOM      4  C   UNL     1       1.516   7.325  -0.067  0.00  0.00    +0.034 A 
ATOM      5  C   UNL     1       0.363   6.566  -0.083  0.00  0.00    +0.027 A 
ATOM      6  C   UNL     1       0.408   5.245  -0.508  0.00  0.00    +0.057 A 
ENDROOT
BRANCH   6   7
ATOM      7  N   UNL     1      -0.758   4.476  -0.531  0.00  0.00    -0.324 N 
ATOM      8  C   UNL     1      -1.708   4.988  -1.532  0.00  0.00    +0.110 C 
ATOM      9  C   UNL     1      -2.778   3.924  -1.774  0.00  0.00    +0.054 C 
ATOM     10  C   UNL     1      -3.344   3.454  -0.459  0.00  0.00    -0.041 A 
ATOM     11  C   UNL     1      -4.549   2.769  -0.464  0.00  0.00    +0.004 A 
ATOM     12  C   UNL     1      -5.101   2.318   0.719  0.00  0.00    +0.000 A 
ATOM     13  C   UNL     1      -4.447   2.551   1.915  0.00  0.00    +0.000 A 
ATOM     14  C   UNL     1      -3.248   3.234   1.921  0.00  0.00    +0.005 A 
ATOM     15  C   UNL     1      -2.694   3.689   0.734  0.00  0.00    -0.027 A 
ATOM     16  C   UNL     1      -1.388   4.437   0.793  0.00  0.00    +0.140 C 
ENDBRANCH   6   7
BRANCH   1  17
ATOM     17  S   UNL     1       1.681   3.010  -1.440  0.00  0.00    +0.063 S 
ATOM     18  O   UNL     1       3.031   2.749  -1.797  0.00  0.00    -0.153 OA
ATOM     19  O   UNL     1       0.604   2.831  -2.349  0.00  0.00    -0.153 OA
BRANCH  17  24
ATOM     20  C   UNL     1       0.053   0.036   0.282  0.00  0.00    +0.091 C 
ATOM     21  C   UNL     1       1.051  -0.309   1.389  0.00  0.00    +0.015 C 
ATOM     22  C   UNL     1       2.443   0.191   0.997  0.00  0.00    +0.018 C 
ATOM     23  C   UNL     1       2.408   1.714   0.835  0.00  0.00    +0.109 C 
ATOM     24  N   UNL     1       1.349   2.063  -0.122  0.00  0.00    -0.176 NA
ATOM     25  C   UNL     1      -0.010   1.557   0.113  0.00  0.00    +0.122 C 
BRANCH  20  27
ATOM     26  N   UNL     1      -1.719  -1.689   0.204  0.00  0.00    -0.302 N 
ATOM     27  C   UNL     1      -1.311  -0.486   0.655  0.00  0.00    +0.220 C 
ATOM     28  O   UNL     1      -2.042   0.177   1.361  0.00  0.00    -0.275 OA
BRANCH  26  30
ATOM     29  C   UNL     1      -0.130  -3.538   0.394  0.00  0.00    +0.024 C 
ATOM     30  C   UNL     1      -0.797  -2.538  -0.553  0.00  0.00    +0.104 C 
ENDBRANCH  26  30
BRANCH  26  31
ATOM     31  C   UNL     1      -3.085  -2.147   0.471  0.00  0.00    +0.104 C 
ATOM     32  C   UNL     1      -4.027  -1.592  -0.598  0.00  0.00    +0.024 C 
ENDBRANCH  26  31
ENDBRANCH  20  27
ENDBRANCH  17  24
ENDBRANCH   1  17
BRANCH   3  33
ATOM     33  N   UNL     1       3.952   7.585  -0.451  0.00  0.00    +0.056 N 
ATOM     34  O   UNL     1       5.010   7.096  -0.804  0.00  0.00    -0.126 OA
ATOM     35  O   UNL     1       3.910   8.745  -0.082  0.00  0.00    -0.126 OA
ENDBRANCH   3  33
TORSDOF 7
