REMARK  Name = ZINC66542209
REMARK  8 active torsions:
REMARK  status: ('A' for Active; 'I' for Inactive)
REMARK    1  A    between atoms: C_1  and  C_2
REMARK    2  A    between atoms: C_2  and  O_3
REMARK    3  A    between atoms: O_3  and  C_4
REMARK    4  A    between atoms: N_6  and  C_7
REMARK    5  A    between atoms: C_10  and  O_13
REMARK    6  A    between atoms: O_13  and  C_14
REMARK    7  A    between atoms: C_14  and  C_16
REMARK    8  A    between atoms: C_17  and  C_27
REMARK                            x       y       z     vdW  Elec       q    Type
REMARK                         _______ _______ _______ _____ _____    ______ ____
ROOT
ATOM      1  O   UNL     1       5.309  -3.266  -4.397  0.00  0.00    -0.457 OA
ENDROOT
BRANCH   1   5
ATOM      2  C   UNL     1       1.509  -3.748  -2.597  0.00  0.00    +0.076 C 
ATOM      3  C   UNL     1       2.739  -4.258  -1.843  0.00  0.00    +0.026 C 
ATOM      4  C   UNL     1       3.994  -3.577  -2.394  0.00  0.00    +0.046 C 
ATOM      5  C   UNL     1       4.137  -3.902  -3.882  0.00  0.00    +0.177 C 
ATOM      6  C   UNL     1       2.908  -3.392  -4.637  0.00  0.00    +0.046 C 
ATOM      7  C   UNL     1       1.653  -4.073  -4.085  0.00  0.00    +0.026 C 
BRANCH   2  10
ATOM      8  C   UNL     1       0.776  -1.798  -1.335  0.00  0.00    +0.400 C 
ATOM      9  O   UNL     1       0.312  -2.549  -0.500  0.00  0.00    -0.226 OA
ATOM     10  N   UNL     1       1.395  -2.298  -2.422  0.00  0.00    -0.278 N 
ATOM     11  H   UNL     1       1.765  -1.699  -3.088  0.00  0.00    +0.152 HD
BRANCH   8  12
ATOM     12  O   UNL     1       0.671  -0.465  -1.174  0.00  0.00    -0.451 OA
BRANCH  12  14
ATOM     13  C   UNL     1      -0.019   1.526   0.010  0.00  0.00    +0.048 C 
ATOM     14  C   UNL     1       0.002  -0.004   0.002  0.00  0.00    +0.230 C 
ENDBRANCH  12  14
ENDBRANCH   8  12
ENDBRANCH   2  10
ENDBRANCH   1   5
BRANCH   1  15
ATOM     15  C   UNL     1       5.938  -3.878  -5.422  0.00  0.00    +0.356 C 
ATOM     16  O   UNL     1       5.502  -4.923  -5.865  0.00  0.00    -0.243 OA
BRANCH  15  17
ATOM     17  C   UNL     1       7.147  -3.283  -6.001  0.00  0.00    +0.128 A 
ATOM     18  C   UNL     1       7.872  -3.797  -7.041  0.00  0.00    -0.008 A 
ATOM     19  C   UNL     1       8.934  -2.914  -7.263  0.00  0.00    +0.042 A 
ATOM     20  C   UNL     1       8.823  -1.875  -6.338  0.00  0.00    +0.027 A 
ATOM     21  N   UNL     1       7.743  -2.104  -5.592  0.00  0.00    -0.352 N 
ATOM     22  H   UNL     1       7.426  -1.535  -4.873  0.00  0.00    +0.166 HD
ATOM     23  C   UNL     1       9.803  -0.731  -6.271  0.00  0.00    +0.054 C 
ATOM     24  C   UNL     1      11.110  -1.145  -6.954  0.00  0.00    +0.014 C 
ATOM     25  C   UNL     1      10.839  -1.674  -8.366  0.00  0.00    +0.080 C 
ATOM     26  C   UNL     1      10.024  -2.954  -8.251  0.00  0.00    +0.165 C 
ATOM     27  O   UNL     1      10.256  -3.936  -8.925  0.00  0.00    -0.292 OA
ATOM     28  C   UNL     1       7.583  -5.068  -7.798  0.00  0.00    +0.047 C 
ENDBRANCH  15  17
ENDBRANCH   1  15
TORSDOF 6
