REMARK  Name = ZINC17008281
REMARK  2 active torsions:
REMARK  status: ('A' for Active; 'I' for Inactive)
REMARK    1  A    between atoms: C_1  and  C_2
REMARK    2  A    between atoms: C_7  and  C_12
REMARK                            x       y       z     vdW  Elec       q    Type
REMARK                         _______ _______ _______ _____ _____    ______ ____
ROOT
ATOM      1  C   UNL     1      -0.019   1.526   0.010  0.00  0.00    +0.038 C 
ATOM      2  C   UNL     1       0.002  -0.004   0.002  0.00  0.00    +0.142 C 
ATOM      3  C   UNL     1       0.706  -0.490  -1.246  0.00  0.00    +0.036 C 
ATOM      4  C   UNL     1       1.948  -1.017  -1.211  0.00  0.00    +0.020 C 
ATOM      5  C   UNL     1       2.625  -1.494  -2.474  0.00  0.00    +0.060 C 
ATOM      6  C   UNL     1       2.146  -0.659  -3.663  0.00  0.00    +0.032 C 
ATOM      7  C   UNL     1       0.623  -0.795  -3.765  0.00  0.00    +0.088 C 
ATOM      8  C   UNL     1       0.007  -0.369  -2.462  0.00  0.00    +0.163 C 
ATOM      9  O   UNL     1      -1.118   0.090  -2.458  0.00  0.00    -0.292 OA
ATOM     10  N   UNL     1       2.646  -1.148  -0.034  0.00  0.00    -0.287 N 
ATOM     11  C   UNL     1       1.948  -1.016   1.155  0.00  0.00    +0.218 A 
ATOM     12  N   UNL     1       0.703  -0.485   1.186  0.00  0.00    -0.226 N 
ATOM     13  N   UNL     1       0.298  -0.509   2.520  0.00  0.00    -0.156 NA
ATOM     14  C   UNL     1       1.287  -1.030   3.204  0.00  0.00    +0.247 A 
ATOM     15  N   UNL     1       2.282  -1.335   2.375  0.00  0.00    -0.201 NA
ATOM     16  H   UNL     1       3.599  -1.328  -0.036  0.00  0.00    +0.155 HD
ENDROOT
BRANCH   6  17
ATOM     17  C   UNL     1       2.788  -1.164  -4.929  0.00  0.00    -0.044 A 
ATOM     18  C   UNL     1       2.576  -2.467  -5.340  0.00  0.00    +0.004 A 
ATOM     19  C   UNL     1       3.165  -2.930  -6.502  0.00  0.00    +0.000 A 
ATOM     20  C   UNL     1       3.965  -2.090  -7.253  0.00  0.00    +0.000 A 
ATOM     21  C   UNL     1       4.176  -0.786  -6.844  0.00  0.00    +0.000 A 
ATOM     22  C   UNL     1       3.584  -0.322  -5.684  0.00  0.00    +0.004 A 
ENDBRANCH   6  17
TORSDOF 1
