REMARK  Name = ZINC62521639
REMARK  3 active torsions:
REMARK  status: ('A' for Active; 'I' for Inactive)
REMARK    1  A    between atoms: N_9  and  S_13
REMARK    2  A    between atoms: S_13  and  N_16
REMARK    3  A    between atoms: N_16  and  C_17
REMARK                            x       y       z     vdW  Elec       q    Type
REMARK                         _______ _______ _______ _____ _____    ______ ____
ROOT
ATOM      1  C   UNL     1      -2.170   1.218  -1.329  0.00  0.00    +0.002 C 
ATOM      2  C   UNL     1      -1.477   2.271  -2.197  0.00  0.00    +0.003 C 
ATOM      3  C   UNL     1      -1.248   1.698  -3.597  0.00  0.00    +0.033 C 
ATOM      4  C   UNL     1      -0.374   0.451  -3.511  0.00  0.00    +0.137 C 
ATOM      5  C   UNL     1      -1.035  -0.603  -2.617  0.00  0.00    +0.110 C 
ATOM      6  C   UNL     1      -1.275  -0.017  -1.224  0.00  0.00    +0.023 C 
ATOM      7  N   UNL     1      -0.097  -1.734  -2.489  0.00  0.00    -0.159 NA
ATOM      8  C   UNL     1       1.284  -1.433  -2.077  0.00  0.00    +0.139 C 
ATOM      9  C   UNL     1       1.831  -0.319  -2.977  0.00  0.00    +0.177 C 
ATOM     10  O   UNL     1       0.908   0.775  -2.975  0.00  0.00    -0.374 OA
ENDROOT
BRANCH   7  11
ATOM     11  S   UNL     1      -0.580  -3.288  -2.796  0.00  0.00    +0.098 S 
ATOM     12  O   UNL     1      -1.787  -3.199  -3.539  0.00  0.00    -0.141 OA
ATOM     13  O   UNL     1       0.563  -3.981  -3.279  0.00  0.00    -0.141 OA
BRANCH  11  14
ATOM     14  N   UNL     1      -0.969  -3.976  -1.341  0.00  0.00    -0.177 NA
ATOM     15  H   UNL     1      -0.441  -4.713  -0.996  0.00  0.00    +0.149 HD
BRANCH  14  16
ATOM     16  C   UNL     1      -2.111  -3.472  -0.575  0.00  0.00    +0.078 C 
ATOM     17  C   UNL     1      -1.672  -3.124   0.863  0.00  0.00    +0.020 C 
ATOM     18  C   UNL     1      -2.877  -3.543   1.740  0.00  0.00    +0.002 C 
ATOM     19  C   UNL     1      -3.365  -4.843   1.054  0.00  0.00    +0.002 C 
ATOM     20  C   UNL     1      -3.188  -4.565  -0.453  0.00  0.00    +0.020 C 
ENDBRANCH  14  16
ENDBRANCH  11  14
ENDBRANCH   7  11
TORSDOF 3
