REMARK  Name = ZINC02401897
REMARK  8 active torsions:
REMARK  status: ('A' for Active; 'I' for Inactive)
REMARK    1  A    between atoms: C_1  and  C_2
REMARK    2  A    between atoms: C_5  and  S_9
REMARK    3  A    between atoms: C_7  and  C_8
REMARK    4  A    between atoms: S_9  and  C_12
REMARK    5  A    between atoms: N_23  and  C_26
REMARK    6  A    between atoms: C_24  and  N_25
REMARK    7  A    between atoms: C_29  and  O_32
REMARK    8  A    between atoms: O_32  and  C_33
REMARK                            x       y       z     vdW  Elec       q    Type
REMARK                         _______ _______ _______ _____ _____    ______ ____
ROOT
ATOM      1  C   UNL     1       0.727   3.515   0.014  0.00  0.00    +0.160 A 
ATOM      2  C   UNL     1      -0.687   3.577   0.028  0.00  0.00    +0.136 A 
ATOM      3  C   UNL     1      -1.152   2.184   0.019  0.00  0.00    +0.168 A 
ATOM      4  N   UNL     1      -2.440   1.928   0.036  0.00  0.00    -0.225 NA
ATOM      5  C   UNL     1      -3.321   2.938   0.050  0.00  0.00    +0.092 A 
ATOM      6  C   UNL     1      -4.702   2.672   0.062  0.00  0.00    +0.030 A 
ATOM      7  C   UNL     1      -5.590   3.703   0.076  0.00  0.00    +0.002 A 
ATOM      8  C   UNL     1      -5.152   5.026   0.079  0.00  0.00    +0.002 A 
ATOM      9  C   UNL     1      -3.825   5.323   0.067  0.00  0.00    +0.030 A 
ATOM     10  C   UNL     1      -2.875   4.283   0.053  0.00  0.00    +0.090 A 
ATOM     11  N   UNL     1      -1.568   4.565   0.042  0.00  0.00    -0.240 NA
ATOM     12  N   UNL     1      -0.017   1.399   0.010  0.00  0.00    -0.279 N 
ATOM     13  C   UNL     1       1.091   2.211   0.004  0.00  0.00    +0.130 A 
ENDROOT
BRANCH  12  14
ATOM     14  C   UNL     1       0.002  -0.004   0.002  0.00  0.00    +0.050 A 
ATOM     15  C   UNL     1       0.504  -0.686  -1.098  0.00  0.00    +0.030 A 
ATOM     16  C   UNL     1       0.527  -2.066  -1.103  0.00  0.00    +0.047 A 
ATOM     17  C   UNL     1       0.039  -2.772  -0.013  0.00  0.00    +0.120 A 
ATOM     18  C   UNL     1      -0.468  -2.092   1.084  0.00  0.00    +0.047 A 
ATOM     19  C   UNL     1      -0.486  -0.711   1.092  0.00  0.00    +0.030 A 
BRANCH  17  20
ATOM     20  O   UNL     1       0.058  -4.132  -0.021  0.00  0.00    -0.495 OA
ATOM     21  C   UNL     1       0.593  -4.767  -1.183  0.00  0.00    +0.277 C 
ENDBRANCH  17  20
ENDBRANCH  12  14
BRANCH   1  22
ATOM     22  S   UNL     1       1.823   4.895   0.010  0.00  0.00    +0.030 S 
ATOM     23  O   UNL     1       1.106   5.985   0.574  0.00  0.00    -0.164 OA
ATOM     24  O   UNL     1       3.056   4.436   0.547  0.00  0.00    -0.164 OA
BRANCH  22  29
ATOM     25  C   UNL     1       2.879   6.322  -5.756  0.00  0.00    +0.044 C 
ATOM     26  C   UNL     1       2.615   5.965  -4.316  0.00  0.00    -0.047 A 
ATOM     27  C   UNL     1       1.556   6.546  -3.643  0.00  0.00    +0.005 A 
ATOM     28  C   UNL     1       1.315   6.219  -2.322  0.00  0.00    +0.027 A 
ATOM     29  C   UNL     1       2.131   5.311  -1.674  0.00  0.00    +0.094 A 
ATOM     30  C   UNL     1       3.193   4.734  -2.345  0.00  0.00    +0.031 A 
ATOM     31  C   UNL     1       3.432   5.058  -3.668  0.00  0.00    -0.046 A 
ATOM     32  C   UNL     1       4.586   4.426  -4.402  0.00  0.00    +0.044 C 
ENDBRANCH  22  29
ENDBRANCH   1  22
BRANCH  13  33
ATOM     33  N   UNL     1       2.398   1.759  -0.011  0.00  0.00    -0.343 N 
ATOM     34  H   UNL     1       2.582   0.807  -0.017  0.00  0.00    +0.144 HD
ATOM     35  H   UNL     1       3.131   2.395  -0.014  0.00  0.00    +0.144 HD
ENDBRANCH  13  33
TORSDOF 5
