REMARK  Name = ZINC39665745
REMARK  12 active torsions:
REMARK  status: ('A' for Active; 'I' for Inactive)
REMARK    1  A    between atoms: C_1  and  C_2
REMARK    2  A    between atoms: C_2  and  C_3
REMARK    3  A    between atoms: C_3  and  C_5
REMARK    4  A    between atoms: C_3  and  C_11
REMARK    5  A    between atoms: C_15  and  C_24
REMARK    6  A    between atoms: N_26  and  C_27
REMARK    7  A    between atoms: C_27  and  C_28
REMARK    8  A    between atoms: C_28  and  C_30
REMARK    9  A    between atoms: C_28  and  O_31
REMARK   10  A    between atoms: O_31  and  C_32
REMARK   11  A    between atoms: C_35  and  O_38
REMARK   12  A    between atoms: O_38  and  C_39
REMARK                            x       y       z     vdW  Elec       q    Type
REMARK                         _______ _______ _______ _____ _____    ______ ____
ROOT
ATOM      1  C   UNL     1      -2.102  -0.056  -1.066  0.00  0.00    +0.223 C 
ATOM      2  O   UNL     1      -2.712  -0.864  -1.734  0.00  0.00    -0.275 OA
ATOM      3  N   UNL     1      -2.125   1.250  -1.401  0.00  0.00    -0.300 N 
ATOM      4  C   UNL     1      -1.530   2.387  -0.661  0.00  0.00    +0.121 C 
ATOM      5  C   UNL     1      -0.950   3.307  -1.759  0.00  0.00    +0.100 C 
ATOM      6  C   UNL     1      -1.757   2.965  -3.023  0.00  0.00    -0.004 C 
ATOM      7  C   UNL     1      -2.746   1.871  -2.595  0.00  0.00    +0.115 C 
ATOM      8  C   UNL     1      -2.510   4.196  -3.518  0.00  0.00    -0.010 C 
ATOM      9  C   UNL     1      -3.258   3.846  -4.808  0.00  0.00    -0.082 C 
ATOM     10  N   UNL     1      -2.301   3.393  -5.824  0.00  0.00    +0.379 N 
ATOM     11  C   UNL     1      -1.647   2.156  -5.379  0.00  0.00    -0.082 C 
ATOM     12  C   UNL     1      -0.831   2.434  -4.113  0.00  0.00    -0.010 C 
ATOM     13  H   UNL     1      -2.788   3.222  -6.690  0.00  0.00    -0.086 HD
ATOM     14  H   UNL     1      -1.603   4.107  -5.968  0.00  0.00    -0.086 HD
ENDROOT
BRANCH   5  15
ATOM     15  C   UNL     1      -1.142   4.754  -1.387  0.00  0.00    +0.218 C 
ATOM     16  O   UNL     1      -2.040   5.074  -0.637  0.00  0.00    -0.275 OA
ATOM     17  N   UNL     1      -0.315   5.694  -1.887  0.00  0.00    -0.312 N 
ATOM     18  H   UNL     1       0.403   5.438  -2.487  0.00  0.00    +0.149 HD
BRANCH  17  19
ATOM     19  C   UNL     1      -0.502   7.101  -1.526  0.00  0.00    +0.148 C 
BRANCH  19  20
ATOM     20  C   UNL     1       0.561   7.952  -2.224  0.00  0.00    +0.187 C 
ATOM     21  C   UNL     1       0.366   9.422  -1.846  0.00  0.00    +0.053 C 
BRANCH  20  22
ATOM     22  O   UNL     1       1.861   7.523  -1.813  0.00  0.00    -0.488 OA
BRANCH  22  23
ATOM     23  C   UNL     1       2.890   7.769  -2.667  0.00  0.00    +0.121 A 
ATOM     24  C   UNL     1       4.157   7.278  -2.386  0.00  0.00    +0.049 A 
ATOM     25  C   UNL     1       5.202   7.528  -3.253  0.00  0.00    +0.049 A 
ATOM     26  C   UNL     1       4.986   8.269  -4.405  0.00  0.00    +0.120 A 
ATOM     27  C   UNL     1       3.719   8.759  -4.687  0.00  0.00    +0.049 A 
ATOM     28  C   UNL     1       2.673   8.506  -3.822  0.00  0.00    +0.049 A 
BRANCH  26  29
ATOM     29  O   UNL     1       6.016   8.516  -5.258  0.00  0.00    -0.495 OA
ATOM     30  C   UNL     1       5.721   9.286  -6.425  0.00  0.00    +0.277 C 
ENDBRANCH  26  29
ENDBRANCH  22  23
ENDBRANCH  20  22
ENDBRANCH  19  20
ENDBRANCH  17  19
ENDBRANCH   5  15
BRANCH   1  31
ATOM     31  C   UNL     1      -1.320  -0.511   0.138  0.00  0.00    +0.105 C 
BRANCH  31  32
ATOM     32  C   UNL     1      -2.235  -0.588   1.333  0.00  0.00    -0.036 A 
ATOM     33  C   UNL     1      -3.329  -1.433   1.312  0.00  0.00    +0.004 A 
ATOM     34  C   UNL     1      -4.169  -1.504   2.408  0.00  0.00    +0.000 A 
ATOM     35  C   UNL     1      -3.915  -0.730   3.524  0.00  0.00    +0.000 A 
ATOM     36  C   UNL     1      -2.821   0.115   3.545  0.00  0.00    +0.000 A 
ATOM     37  C   UNL     1      -1.978   0.182   2.451  0.00  0.00    +0.004 A 
ENDBRANCH  31  32
BRANCH  31  39
ATOM     38  C   UNL     1       0.315  -1.787  -1.256  0.00  0.00    +0.005 C 
ATOM     39  C   UNL     1      -0.721  -1.893  -0.135  0.00  0.00    +0.014 C 
ENDBRANCH  31  39
ENDBRANCH   1  31
TORSDOF 9
