REMARK  Name = ZINC38095252
REMARK  3 active torsions:
REMARK  status: ('A' for Active; 'I' for Inactive)
REMARK    1  A    between atoms: C_1  and  C_2
REMARK    2  A    between atoms: C_3  and  C_9
REMARK    3  A    between atoms: C_5  and  N_8
REMARK                            x       y       z     vdW  Elec       q    Type
REMARK                         _______ _______ _______ _____ _____    ______ ____
ROOT
ATOM      1  C   UNL     1      -0.117   0.214  -2.390  0.00  0.00    +0.248 C 
ATOM      2  O   UNL     1      -0.004   1.422  -2.317  0.00  0.00    -0.270 OA
ATOM      3  N   UNL     1      -0.293  -0.375  -3.589  0.00  0.00    -0.297 N 
ATOM      4  C   UNL     1      -0.531  -1.821  -3.686  0.00  0.00    +0.108 C 
ATOM      5  C   UNL     1       0.494  -2.425  -4.651  0.00  0.00    +0.023 C 
ATOM      6  C   UNL     1       0.424  -1.689  -5.992  0.00  0.00    -0.005 C 
ATOM      7  C   UNL     1       1.436  -2.308  -6.960  0.00  0.00    +0.004 C 
ATOM      8  C   UNL     1       2.841  -2.194  -6.366  0.00  0.00    +0.000 C 
ATOM      9  C   UNL     1       3.185  -0.719  -6.145  0.00  0.00    +0.000 C 
ATOM     10  C   UNL     1       2.170  -0.096  -5.184  0.00  0.00    +0.005 C 
ATOM     11  C   UNL     1       0.759  -0.211  -5.781  0.00  0.00    +0.010 C 
ATOM     12  C   UNL     1      -0.257   0.418  -4.826  0.00  0.00    +0.112 C 
ENDROOT
BRANCH   1  15
ATOM     13  C   UNL     1       2.163   0.417  -0.623  0.00  0.00    +0.066 C 
ATOM     14  C   UNL     1       1.030  -0.523  -0.299  0.00  0.00    +0.050 A 
ATOM     15  C   UNL     1      -0.063  -0.609  -1.163  0.00  0.00    +0.060 A 
ATOM     16  C   UNL     1      -1.107  -1.486  -0.849  0.00  0.00    +0.039 A 
ATOM     17  C   UNL     1      -1.006  -2.236   0.317  0.00  0.00    +0.044 A 
ATOM     18  C   UNL     1       0.117  -2.090   1.122  0.00  0.00    +0.133 A 
ATOM     19  N   UNL     1       1.085  -1.258   0.792  0.00  0.00    -0.258 NA
BRANCH  17  20
ATOM     20  N   UNL     1      -2.023  -3.126   0.676  0.00  0.00    -0.357 N 
ATOM     21  H   UNL     1      -2.804  -3.223   0.110  0.00  0.00    +0.142 HD
ATOM     22  H   UNL     1      -1.946  -3.647   1.491  0.00  0.00    +0.142 HD
ENDBRANCH  17  20
ENDBRANCH   1  15
TORSDOF 2
