REMARK  Name = ZINC67533790
REMARK  6 active torsions:
REMARK  status: ('A' for Active; 'I' for Inactive)
REMARK    1  A    between atoms: C_1  and  C_2
REMARK    2  A    between atoms: C_7  and  C_11
REMARK    3  A    between atoms: C_11  and  N_12
REMARK    4  A    between atoms: C_13  and  C_15
REMARK    5  A    between atoms: C_24  and  C_28
REMARK    6  A    between atoms: C_26  and  C_27
REMARK                            x       y       z     vdW  Elec       q    Type
REMARK                         _______ _______ _______ _____ _____    ______ ____
ROOT
ATOM      1  N   UNL     1       1.468  -5.949   2.564  0.00  0.00    -0.302 N 
ATOM      2  C   UNL     1       1.748  -7.093   3.218  0.00  0.00    +0.300 C 
ATOM      3  O   UNL     1       0.869  -7.903   3.428  0.00  0.00    -0.265 OA
ATOM      4  H   UNL     1       2.171  -5.302   2.396  0.00  0.00    +0.150 HD
ENDROOT
BRANCH   2   5
ATOM      5  C   UNL     1       3.141  -7.365   3.685  0.00  0.00    +0.306 C 
ATOM      6  O   UNL     1       4.043  -6.614   3.374  0.00  0.00    -0.265 OA
ATOM      7  N   UNL     1       3.396  -8.444   4.451  0.00  0.00    -0.263 N 
ATOM      8  C   UNL     1       2.310  -9.349   4.853  0.00  0.00    +0.114 C 
ATOM      9  C   UNL     1       2.490  -9.664   6.343  0.00  0.00    +0.024 C 
ATOM     10  C   UNL     1       3.813 -10.405   6.535  0.00  0.00    +0.039 C 
ATOM     11  C   UNL     1       4.939  -9.654   5.875  0.00  0.00    -0.023 A 
ATOM     12  C   UNL     1       4.701  -8.725   4.872  0.00  0.00    +0.040 A 
ATOM     13  C   UNL     1       5.764  -8.056   4.275  0.00  0.00    +0.027 A 
ATOM     14  C   UNL     1       7.059  -8.317   4.678  0.00  0.00    -0.048 A 
ATOM     15  C   UNL     1       7.296  -9.244   5.676  0.00  0.00    +0.007 A 
ATOM     16  C   UNL     1       6.239  -9.905   6.279  0.00  0.00    -0.045 A 
ATOM     17  C   UNL     1       6.505 -10.915   7.366  0.00  0.00    +0.044 C 
ATOM     18  C   UNL     1       8.211  -7.592   4.031  0.00  0.00    +0.044 C 
ENDBRANCH   2   5
BRANCH   1  19
ATOM     19  C   UNL     1       0.103  -5.682   2.106  0.00  0.00    +0.159 C 
BRANCH  19  26
ATOM     20  C   UNL     1      -0.294   1.436   0.099  0.00  0.00    +0.044 C 
ATOM     21  C   UNL     1      -0.165  -0.064   0.030  0.00  0.00    -0.046 A 
ATOM     22  C   UNL     1       0.000  -0.702  -1.211  0.00  0.00    +0.021 A 
ATOM     23  C   UNL     1       0.117  -2.044  -1.276  0.00  0.00    +0.093 A 
ATOM     24  N   UNL     1       0.075  -2.801  -0.141  0.00  0.00    -0.308 N 
ATOM     25  C   UNL     1       0.164  -4.149   0.076  0.00  0.00    +0.115 A 
ATOM     26  C   UNL     1       0.058  -4.347   1.409  0.00  0.00    +0.051 A 
ATOM     27  N   UNL     1      -0.093  -3.162   2.005  0.00  0.00    -0.342 N 
ATOM     28  C   UNL     1      -0.086  -2.208   1.084  0.00  0.00    +0.116 A 
ATOM     29  C   UNL     1      -0.203  -0.806   1.169  0.00  0.00    +0.048 A 
ATOM     30  H   UNL     1      -0.192  -3.021   2.959  0.00  0.00    +0.167 HD
ENDBRANCH  19  26
ENDBRANCH   1  19
TORSDOF 3
