REMARK  Name = ZINC39021364
REMARK  8 active torsions:
REMARK  status: ('A' for Active; 'I' for Inactive)
REMARK    1  A    between atoms: C_1  and  O_2
REMARK    2  A    between atoms: O_2  and  C_3
REMARK    3  A    between atoms: C_6  and  C_9
REMARK    4  A    between atoms: C_11  and  C_15
REMARK    5  A    between atoms: C_19  and  S_23
REMARK    6  A    between atoms: N_21  and  N_22
REMARK    7  A    between atoms: S_23  and  C_24
REMARK    8  A    between atoms: C_24  and  C_25
REMARK                            x       y       z     vdW  Elec       q    Type
REMARK                         _______ _______ _______ _____ _____    ______ ____
ROOT
ATOM      1  C   UNL     1       4.670  -4.702  -5.639  0.00  0.00    +0.185 C 
ATOM      2  N   UNL     1       4.429  -6.088  -5.159  0.00  0.00    -0.234 NA
ATOM      3  N   UNL     1       5.655  -6.796  -5.561  0.00  0.00    -0.228 NA
ATOM      4  C   UNL     1       6.001  -6.218  -6.879  0.00  0.00    +0.214 C 
ATOM      5  N   UNL     1       5.376  -4.878  -6.929  0.00  0.00    -0.197 NA
ATOM      6  H   UNL     1       4.311  -6.109  -4.157  0.00  0.00    +0.143 HD
ATOM      7  H   UNL     1       6.396  -6.644  -4.893  0.00  0.00    +0.143 HD
ENDROOT
BRANCH   1  10
ATOM      8  C   UNL     1       2.496  -2.494  -4.366  0.00  0.00    +0.091 C 
ATOM      9  C   UNL     1       2.595  -3.827  -4.537  0.00  0.00    +0.034 C 
ATOM     10  C   UNL     1       3.343  -3.970  -5.850  0.00  0.00    +0.187 C 
ATOM     11  N   UNL     1       3.575  -2.575  -6.259  0.00  0.00    -0.176 NA
ATOM     12  N   UNL     1       3.080  -1.838  -5.403  0.00  0.00    -0.154 NA
BRANCH   8  16
ATOM     13  C   UNL     1       0.606  -0.607  -1.056  0.00  0.00    +0.120 A 
ATOM     14  C   UNL     1       1.173   0.164  -2.062  0.00  0.00    +0.046 A 
ATOM     15  C   UNL     1       1.786  -0.445  -3.136  0.00  0.00    +0.013 A 
ATOM     16  C   UNL     1       1.837  -1.836  -3.211  0.00  0.00    +0.002 A 
ATOM     17  C   UNL     1       1.267  -2.607  -2.199  0.00  0.00    +0.013 A 
ATOM     18  C   UNL     1       0.659  -1.993  -1.125  0.00  0.00    +0.046 A 
BRANCH  13  20
ATOM     19  C   UNL     1      -0.017   1.425   0.010  0.00  0.00    +0.277 C 
ATOM     20  O   UNL     1       0.002  -0.004   0.002  0.00  0.00    -0.495 OA
ENDBRANCH  13  20
ENDBRANCH   8  16
ENDBRANCH   1  10
BRANCH   5  21
ATOM     21  N   UNL     1       6.376  -3.841  -7.122  0.00  0.00    -0.264 NA
ATOM     22  H   UNL     1       6.857  -3.961  -8.001  0.00  0.00    +0.137 HD
ATOM     23  H   UNL     1       5.962  -2.923  -7.059  0.00  0.00    +0.137 HD
ENDBRANCH   5  21
BRANCH   4  24
ATOM     24  S   UNL     1       7.802  -6.069  -7.038  0.00  0.00    -0.119 S 
BRANCH  24  25
ATOM     25  C   UNL     1       8.279  -5.007  -5.647  0.00  0.00    +0.107 C 
BRANCH  25  26
ATOM     26  C   UNL     1       9.772  -4.800  -5.662  0.00  0.00    -0.030 A 
ATOM     27  C   UNL     1      10.589  -5.660  -4.995  0.00  0.00    +0.005 A 
ATOM     28  C   UNL     1      11.971  -5.485  -4.997  0.00  0.00    +0.001 A 
ATOM     29  C   UNL     1      12.544  -4.447  -5.667  0.00  0.00    +0.008 A 
ATOM     30  C   UNL     1      11.733  -3.539  -6.367  0.00  0.00    -0.018 A 
ATOM     31  C   UNL     1      10.328  -3.721  -6.370  0.00  0.00    -0.014 A 
ATOM     32  C   UNL     1       9.517  -2.815  -7.075  0.00  0.00    +0.009 A 
ATOM     33  C   UNL     1      10.091  -1.782  -7.749  0.00  0.00    +0.001 A 
ATOM     34  C   UNL     1      11.474  -1.606  -7.752  0.00  0.00    +0.001 A 
ATOM     35  C   UNL     1      12.289  -2.455  -7.069  0.00  0.00    +0.008 A 
ENDBRANCH  25  26
ENDBRANCH  24  25
ENDBRANCH   4  24
TORSDOF 7
