REMARK  Name = ZINC39756650
REMARK  9 active torsions:
REMARK  status: ('A' for Active; 'I' for Inactive)
REMARK    1  A    between atoms: C_1  and  C_2
REMARK    2  A    between atoms: C_7  and  N_8
REMARK    3  A    between atoms: C_9  and  S_23
REMARK    4  A    between atoms: C_13  and  C_14
REMARK    5  A    between atoms: S_23  and  C_24
REMARK    6  A    between atoms: C_24  and  C_26
REMARK    7  A    between atoms: C_24  and  C_27
REMARK    8  A    between atoms: N_29  and  C_30
REMARK    9  A    between atoms: C_30  and  C_31
REMARK                            x       y       z     vdW  Elec       q    Type
REMARK                         _______ _______ _______ _____ _____    ______ ____
ROOT
ATOM      1  N   UNL     1      -0.017  -0.196   2.293  0.00  0.00    -0.254 N 
ATOM      2  C   UNL     1      -1.192   0.390   2.958  0.00  0.00    +0.242 C 
ATOM      3  N   UNL     1      -0.623   1.208   4.043  0.00  0.00    -0.237 N 
ATOM      4  N   UNL     1       0.767   1.066   3.961  0.00  0.00    -0.169 NA
ATOM      5  C   UNL     1       1.106   0.272   2.980  0.00  0.00    +0.151 C 
ATOM      6  H   UNL     1      -1.115   1.740   4.687  0.00  0.00    +0.171 HD
ENDROOT
BRANCH   5   7
ATOM      7  C   UNL     1       2.430  -0.065   2.656  0.00  0.00    +0.022 C 
ATOM      8  C   UNL     1       3.591   0.361   3.301  0.00  0.00    +0.006 A 
ATOM      9  C   UNL     1       3.809   1.207   4.409  0.00  0.00    +0.010 A 
ATOM     10  C   UNL     1       5.077   1.452   4.830  0.00  0.00    +0.001 A 
ATOM     11  C   UNL     1       6.182   0.884   4.192  0.00  0.00    +0.002 A 
ATOM     12  C   UNL     1       6.046   0.063   3.122  0.00  0.00    +0.026 A 
ATOM     13  C   UNL     1       4.752  -0.240   2.625  0.00  0.00    +0.043 A 
ATOM     14  N   UNL     1       4.359  -0.996   1.619  0.00  0.00    -0.380 N 
ATOM     15  C   UNL     1       2.895  -0.971   1.538  0.00  0.00    +0.152 C 
ATOM     16  H   UNL     1       4.945  -1.494   1.028  0.00  0.00    +0.160 HD
ENDBRANCH   5   7
BRANCH   1  23
ATOM     17  C   UNL     1      -0.075   0.951  -0.310  0.00  0.00    +0.045 C 
ATOM     18  C   UNL     1      -0.052  -0.541  -0.096  0.00  0.00    -0.029 A 
ATOM     19  C   UNL     1      -0.052  -1.395  -1.181  0.00  0.00    +0.005 A 
ATOM     20  C   UNL     1      -0.031  -2.764  -0.986  0.00  0.00    +0.000 A 
ATOM     21  C   UNL     1      -0.010  -3.282   0.296  0.00  0.00    +0.002 A 
ATOM     22  C   UNL     1      -0.009  -2.434   1.386  0.00  0.00    +0.024 A 
ATOM     23  C   UNL     1      -0.024  -1.058   1.193  0.00  0.00    +0.041 A 
ENDBRANCH   1  23
BRANCH   2  24
ATOM     24  S   UNL     1      -2.256  -0.914   3.634  0.00  0.00    -0.105 S 
BRANCH  24  25
ATOM     25  C   UNL     1      -3.844  -0.084   3.913  0.00  0.00    +0.132 C 
ATOM     26  C   UNL     1      -3.694   0.938   5.042  0.00  0.00    +0.029 C 
BRANCH  25  27
ATOM     27  C   UNL     1      -4.884  -1.105   4.296  0.00  0.00    +0.226 C 
ATOM     28  O   UNL     1      -4.547  -2.152   4.808  0.00  0.00    -0.275 OA
ATOM     29  N   UNL     1      -6.189  -0.856   4.069  0.00  0.00    -0.311 N 
ATOM     30  H   UNL     1      -6.459  -0.018   3.660  0.00  0.00    +0.149 HD
BRANCH  29  31
ATOM     31  C   UNL     1      -7.200  -1.848   4.441  0.00  0.00    +0.131 C 
BRANCH  31  32
ATOM     32  C   UNL     1      -8.569  -1.329   4.084  0.00  0.00    -0.016 C 
ATOM     33  C   UNL     1      -9.360  -2.038   3.318  0.00  0.00    +0.005 C 
ENDBRANCH  31  32
ENDBRANCH  29  31
ENDBRANCH  25  27
ENDBRANCH  24  25
ENDBRANCH   2  24
TORSDOF 7
