REMARK  Name = ZINC39919457
REMARK  8 active torsions:
REMARK  status: ('A' for Active; 'I' for Inactive)
REMARK    1  A    between atoms: C_1  and  C_2
REMARK    2  A    between atoms: C_7  and  O_8
REMARK    3  A    between atoms: O_8  and  C_9
REMARK    4  A    between atoms: C_9  and  C_11
REMARK    5  A    between atoms: C_9  and  C_12
REMARK    6  A    between atoms: N_14  and  N_15
REMARK    7  A    between atoms: C_16  and  C_28
REMARK    8  A    between atoms: C_31  and  O_34
REMARK                            x       y       z     vdW  Elec       q    Type
REMARK                         _______ _______ _______ _____ _____    ______ ____
ROOT
ATOM      1  N   UNL     1       1.136   0.115   7.038  0.00  0.00    -0.191 N 
ATOM      2  C   UNL     1       2.465  -0.191   7.566  0.00  0.00    +0.212 C 
ATOM      3  N   UNL     1       2.511   0.066   9.011  0.00  0.00    -0.320 N 
ATOM      4  C   UNL     1       1.939   1.237   9.496  0.00  0.00    +0.041 A 
ATOM      5  C   UNL     1       2.410   1.865  10.635  0.00  0.00    +0.025 A 
ATOM      6  C   UNL     1       1.808   3.029  11.074  0.00  0.00    +0.022 A 
ATOM      7  C   UNL     1       0.737   3.572  10.381  0.00  0.00    +0.042 A 
ATOM      8  C   UNL     1       0.254   2.958   9.243  0.00  0.00    +0.035 A 
ATOM      9  C   UNL     1       0.851   1.783   8.792  0.00  0.00    +0.061 A 
ATOM     10  C   UNL     1       0.372   1.084   7.585  0.00  0.00    +0.267 C 
ATOM     11  O   UNL     1      -0.700   1.374   7.091  0.00  0.00    -0.268 OA
ATOM     12 CL   UNL     1      -0.003   5.037  10.949  0.00  0.00    -0.084 Cl
ATOM     13  H   UNL     1       2.931  -0.568   9.613  0.00  0.00    +0.148 HD
ENDROOT
BRANCH   2  14
ATOM     14  C   UNL     1       3.487   0.676   6.876  0.00  0.00    -0.008 A 
ATOM     15  C   UNL     1       4.460   0.098   6.082  0.00  0.00    +0.011 A 
ATOM     16  C   UNL     1       5.398   0.890   5.449  0.00  0.00    +0.046 A 
ATOM     17  C   UNL     1       5.363   2.268   5.610  0.00  0.00    +0.117 A 
ATOM     18  C   UNL     1       4.385   2.846   6.407  0.00  0.00    +0.046 A 
ATOM     19  C   UNL     1       3.446   2.049   7.033  0.00  0.00    +0.011 A 
BRANCH  17  20
ATOM     20  O   UNL     1       6.285   3.049   4.989  0.00  0.00    -0.507 OA
ATOM     21  H   UNL     1       6.020   3.344   4.106  0.00  0.00    +0.292 HD
ENDBRANCH  17  20
ENDBRANCH   2  14
BRANCH   1  24
ATOM     22  C   UNL     1       0.643  -0.049   4.715  0.00  0.00    +0.270 C 
ATOM     23  O   UNL     1       1.137   1.045   4.545  0.00  0.00    -0.270 OA
ATOM     24  N   UNL     1       0.648  -0.608   5.942  0.00  0.00    -0.227 N 
ATOM     25  H   UNL     1       0.314  -1.510   6.065  0.00  0.00    +0.173 HD
BRANCH  22  26
ATOM     26  C   UNL     1       0.023  -0.784   3.555  0.00  0.00    +0.257 C 
ATOM     27  C   UNL     1      -1.481  -0.936   3.792  0.00  0.00    +0.062 C 
BRANCH  26  28
ATOM     28  O   UNL     1       0.243  -0.047   2.351  0.00  0.00    -0.480 OA
BRANCH  28  35
ATOM     29  C   UNL     1       0.506   1.417  -0.050  0.00  0.00    +0.047 C 
ATOM     30  C   UNL     1       0.330  -0.079  -0.026  0.00  0.00    -0.009 A 
ATOM     31  C   UNL     1       0.298  -0.791  -1.210  0.00  0.00    +0.007 A 
ATOM     32  C   UNL     1       0.137  -2.163  -1.188  0.00  0.00    +0.000 A 
ATOM     33  C   UNL     1       0.007  -2.828   0.017  0.00  0.00    +0.004 A 
ATOM     34  C   UNL     1       0.039  -2.121   1.204  0.00  0.00    +0.046 A 
ATOM     35  C   UNL     1       0.206  -0.744   1.185  0.00  0.00    +0.124 A 
ENDBRANCH  28  35
ENDBRANCH  26  28
ENDBRANCH  22  26
ENDBRANCH   1  24
TORSDOF 6
