REMARK  Name = ZINC36659911
REMARK  11 active torsions:
REMARK  status: ('A' for Active; 'I' for Inactive)
REMARK    1  A    between atoms: C_1  and  C_2
REMARK    2  A    between atoms: C_8  and  N_10
REMARK    3  A    between atoms: N_10  and  S_11
REMARK    4  A    between atoms: S_11  and  C_14
REMARK    5  A    between atoms: C_16  and  C_22
REMARK    6  A    between atoms: C_19  and  O_20
REMARK    7  A    between atoms: O_20  and  C_21
REMARK    8  A    between atoms: N_24  and  C_25
REMARK    9  A    between atoms: C_25  and  C_26
REMARK   10  A    between atoms: C_26  and  C_28
REMARK   11  A    between atoms: C_26  and  N_34
REMARK                            x       y       z     vdW  Elec       q    Type
REMARK                         _______ _______ _______ _____ _____    ______ ____
ROOT
ATOM      1  C   UNL     1       2.945  -1.158   3.606  0.00  0.00    +0.147 A 
ATOM      2  C   UNL     1       4.207  -1.579   3.960  0.00  0.00    +0.045 A 
ATOM      3  C   UNL     1       4.375  -2.797   4.623  0.00  0.00    +0.039 A 
ATOM      4  C   UNL     1       3.260  -3.584   4.924  0.00  0.00    +0.017 A 
ATOM      5  C   UNL     1       2.001  -3.156   4.567  0.00  0.00    +0.048 A 
ATOM      6  C   UNL     1       1.838  -1.940   3.912  0.00  0.00    +0.146 A 
ENDROOT
BRANCH   3   7
ATOM      7  C   UNL     1       5.726  -3.253   5.004  0.00  0.00    +0.244 C 
ATOM      8  O   UNL     1       6.695  -2.567   4.741  0.00  0.00    -0.270 OA
ATOM      9  N   UNL     1       5.886  -4.428   5.644  0.00  0.00    -0.313 N 
ATOM     10  H   UNL     1       5.113  -4.975   5.854  0.00  0.00    +0.149 HD
BRANCH   9  11
ATOM     11  C   UNL     1       7.227  -4.880   6.022  0.00  0.00    +0.094 C 
BRANCH  11  12
ATOM     12  C   UNL     1       7.121  -6.180   6.822  0.00  0.00    -0.020 C 
BRANCH  12  13
ATOM     13  C   UNL     1       6.581  -7.272   5.936  0.00  0.00    -0.059 A 
ATOM     14  C   UNL     1       7.422  -7.929   5.058  0.00  0.00    +0.002 A 
ATOM     15  C   UNL     1       6.927  -8.931   4.245  0.00  0.00    +0.000 A 
ATOM     16  C   UNL     1       5.590  -9.278   4.311  0.00  0.00    +0.000 A 
ATOM     17  C   UNL     1       4.749  -8.621   5.190  0.00  0.00    +0.000 A 
ATOM     18  C   UNL     1       5.245  -7.622   6.006  0.00  0.00    +0.002 A 
ENDBRANCH  12  13
BRANCH  12  19
ATOM     19  N   UNL     1       8.451  -6.561   7.315  0.00  0.00    +0.385 N 
ATOM     20  C   UNL     1       8.967  -5.528   8.249  0.00  0.00    -0.078 C 
ATOM     21  C   UNL     1      10.027  -6.296   9.078  0.00  0.00    -0.020 C 
ATOM     22  C   UNL     1       9.386  -7.692   9.250  0.00  0.00    -0.020 C 
ATOM     23  C   UNL     1       8.364  -7.810   8.104  0.00  0.00    -0.078 C 
ATOM     24  H   UNL     1       9.088  -6.682   6.542  0.00  0.00    -0.081 HD
ENDBRANCH  12  19
ENDBRANCH  11  12
ENDBRANCH   9  11
ENDBRANCH   3   7
BRANCH   1  25
ATOM     25  S   UNL     1       2.732   0.378   2.769  0.00  0.00    +0.062 S 
ATOM     26  O   UNL     1       4.032   0.920   2.579  0.00  0.00    -0.153 OA
ATOM     27  O   UNL     1       1.708   1.079   3.462  0.00  0.00    -0.153 OA
BRANCH  25  28
ATOM     28  N   UNL     1       2.136   0.037   1.262  0.00  0.00    -0.187 NA
ATOM     29  H   UNL     1       2.666   0.235   0.475  0.00  0.00    +0.148 HD
BRANCH  28  36
ATOM     30  C   UNL     1      -0.002   1.500  -0.033  0.00  0.00    +0.009 C 
ATOM     31  C   UNL     1       0.135  -0.020  -0.143  0.00  0.00    +0.005 C 
ATOM     32  C   UNL     1      -1.252  -0.648  -0.293  0.00  0.00    +0.005 C 
ATOM     33  C   UNL     1      -1.115  -2.168  -0.403  0.00  0.00    +0.000 C 
ATOM     34  C   UNL     1      -0.442  -2.712   0.859  0.00  0.00    +0.002 C 
ATOM     35  C   UNL     1       0.945  -2.084   1.009  0.00  0.00    +0.020 C 
ATOM     36  C   UNL     1       0.808  -0.564   1.119  0.00  0.00    +0.079 C 
ENDBRANCH  28  36
ENDBRANCH  25  28
ENDBRANCH   1  25
BRANCH   6  37
ATOM     37  O   UNL     1       0.595  -1.520   3.566  0.00  0.00    -0.493 OA
ATOM     38  C   UNL     1      -0.498  -2.373   3.911  0.00  0.00    +0.277 C 
ENDBRANCH   6  37
TORSDOF 9
