REMARK  Name = ZINC48628147
REMARK  6 active torsions:
REMARK  status: ('A' for Active; 'I' for Inactive)
REMARK    1  A    between atoms: C_1  and  C_2
REMARK    2  A    between atoms: C_2  and  C_4
REMARK    3  A    between atoms: C_2  and  N_13
REMARK    4  A    between atoms: C_7  and  S_9
REMARK    5  A    between atoms: S_9  and  N_12
REMARK    6  A    between atoms: C_14  and  C_16
REMARK                            x       y       z     vdW  Elec       q    Type
REMARK                         _______ _______ _______ _____ _____    ______ ____
ROOT
ATOM      1  C   UNL     1      -0.019   1.526   0.010  0.00  0.00    +0.033 C 
ATOM      2  C   UNL     1       0.002  -0.004   0.002  0.00  0.00    +0.107 C 
ENDROOT
BRANCH   2   3
ATOM      3  C   UNL     1       0.731  -0.503   1.223  0.00  0.00    +0.012 A 
ATOM      4  C   UNL     1       2.010  -0.938   1.335  0.00  0.00    +0.015 A 
ATOM      5  C   UNL     1       2.470  -1.354   2.570  0.00  0.00    +0.037 A 
ATOM      6  C   UNL     1       1.630  -1.314   3.633  0.00  0.00    +0.142 A 
ATOM      7  S   UNL     1       0.137  -0.668   2.898  0.00  0.00    -0.072 S 
BRANCH   6   8
ATOM      8  S   UNL     1       1.934  -1.774   5.306  0.00  0.00    +0.062 S 
ATOM      9  O   UNL     1       0.671  -2.083   5.879  0.00  0.00    -0.153 OA
ATOM     10  O   UNL     1       3.008  -2.704   5.283  0.00  0.00    -0.153 OA
BRANCH   8  11
ATOM     11  N   UNL     1       2.492  -0.426   6.091  0.00  0.00    -0.203 NA
ATOM     12  H   UNL     1       2.592   0.409   5.609  0.00  0.00    +0.144 HD
ATOM     13  H   UNL     1       2.720  -0.473   7.033  0.00  0.00    +0.144 HD
ENDBRANCH   8  11
ENDBRANCH   6   8
ENDBRANCH   2   3
BRANCH   2  14
ATOM     14  N   UNL     1      -1.372  -0.511   0.012  0.00  0.00    -0.308 N 
ATOM     15  C   UNL     1      -2.051  -0.643  -1.145  0.00  0.00    +0.219 C 
ATOM     16  O   UNL     1      -1.524  -0.341  -2.194  0.00  0.00    -0.275 OA
ATOM     17  H   UNL     1      -1.794  -0.752   0.852  0.00  0.00    +0.149 HD
BRANCH  15  18
ATOM     18  C   UNL     1      -3.465  -1.164  -1.134  0.00  0.00    +0.103 C 
ATOM     19  C   UNL     1      -4.017  -1.295  -2.580  0.00  0.00    +0.043 C 
ATOM     20  C   UNL     1      -5.047  -2.438  -2.399  0.00  0.00    +0.160 C 
ATOM     21  O   UNL     1      -4.452  -3.332  -1.446  0.00  0.00    -0.379 OA
ATOM     22  C   UNL     1      -3.509  -2.622  -0.628  0.00  0.00    +0.172 C 
ENDBRANCH  15  18
ENDBRANCH   2  14
TORSDOF 5
