REMARK  Name = ZINC38704663
REMARK  10 active torsions:
REMARK  status: ('A' for Active; 'I' for Inactive)
REMARK    1  A    between atoms: C_1  and  C_2
REMARK    2  A    between atoms: C_2  and  C_3
REMARK    3  A    between atoms: C_3  and  C_4
REMARK    4  A    between atoms: C_4  and  C_5
REMARK    5  A    between atoms: C_5  and  N_6
REMARK    6  A    between atoms: C_7  and  C_26
REMARK    7  A    between atoms: C_10  and  C_17
REMARK    8  A    between atoms: C_18  and  C_25
REMARK    9  A    between atoms: C_20  and  C_24
REMARK   10  A    between atoms: C_22  and  O_23
REMARK                            x       y       z     vdW  Elec       q    Type
REMARK                         _______ _______ _______ _____ _____    ______ ____
ROOT
ATOM      1  N   UNL     1       1.482  -3.897  -2.018  0.00  0.00    -0.285 N 
ATOM      2  C   UNL     1       2.328  -4.988  -1.517  0.00  0.00    +0.141 C 
ATOM      3  C   UNL     1       1.743  -6.258  -2.071  0.00  0.00    +0.035 A 
ATOM      4  C   UNL     1       1.821  -7.652  -2.159  0.00  0.00    +0.102 A 
ATOM      5  N   UNL     1       0.824  -8.055  -2.922  0.00  0.00    -0.173 NA
ATOM      6  N   UNL     1       0.126  -7.054  -3.326  0.00  0.00    -0.272 N 
ATOM      7  H   UNL     1      -0.655  -7.114  -3.897  0.00  0.00    +0.189 HD
ATOM      8  C   UNL     1       0.647  -5.893  -2.829  0.00  0.00    +0.126 A 
ATOM      9  C   UNL     1       0.506  -4.434  -2.774  0.00  0.00    +0.265 C 
ATOM     10  O   UNL     1      -0.366  -3.799  -3.334  0.00  0.00    -0.268 OA
ENDROOT
BRANCH   4  11
ATOM     11  C   UNL     1       2.838  -8.518  -1.512  0.00  0.00    +0.047 A 
ATOM     12  C   UNL     1       2.441  -9.616  -0.752  0.00  0.00    -0.037 A 
ATOM     13  C   UNL     1       3.390 -10.418  -0.153  0.00  0.00    +0.007 A 
ATOM     14  C   UNL     1       4.736 -10.136  -0.303  0.00  0.00    -0.047 A 
ATOM     15  C   UNL     1       5.141  -9.049  -1.055  0.00  0.00    +0.049 A 
ATOM     16  C   UNL     1       4.198  -8.239  -1.667  0.00  0.00    +0.127 A 
ATOM     17  C   UNL     1       5.766 -11.017   0.356  0.00  0.00    +0.044 C 
ATOM     18  C   UNL     1       0.976  -9.926  -0.585  0.00  0.00    +0.044 C 
BRANCH  16  19
ATOM     19  O   UNL     1       4.595  -7.173  -2.410  0.00  0.00    -0.506 OA
ATOM     20  H   UNL     1       4.768  -6.375  -1.893  0.00  0.00    +0.292 HD
ENDBRANCH  16  19
ENDBRANCH   4  11
BRANCH   2  21
ATOM     21  C   UNL     1       2.299  -5.016  -0.010  0.00  0.00    -0.022 A 
ATOM     22  C   UNL     1       1.089  -4.984   0.658  0.00  0.00    +0.007 A 
ATOM     23  C   UNL     1       1.062  -5.010   2.040  0.00  0.00    +0.020 A 
ATOM     24  C   UNL     1       2.246  -5.068   2.754  0.00  0.00    +0.041 A 
ATOM     25  C   UNL     1       3.456  -5.099   2.084  0.00  0.00    +0.020 A 
ATOM     26  C   UNL     1       3.482  -5.079   0.703  0.00  0.00    +0.007 A 
ATOM     27 CL   UNL     1       2.212  -5.100   4.489  0.00  0.00    -0.084 Cl
ENDBRANCH   2  21
BRANCH   1  28
ATOM     28  C   UNL     1       1.664  -2.471  -1.739  0.00  0.00    +0.109 C 
BRANCH  28  29
ATOM     29  C   UNL     1       0.889  -2.096  -0.474  0.00  0.00    +0.019 C 
BRANCH  29  30
ATOM     30  C   UNL     1       1.080  -0.607  -0.182  0.00  0.00    +0.001 C 
BRANCH  30  32
ATOM     31  C   UNL     1       0.495   1.258   1.375  0.00  0.00    +0.004 C 
ATOM     32  C   UNL     1       0.305  -0.232   1.083  0.00  0.00    -0.003 C 
ENDBRANCH  30  32
ENDBRANCH  29  30
ENDBRANCH  28  29
ENDBRANCH   1  28
TORSDOF 7
