REMARK  Name = ZINC53503024
REMARK  7 active torsions:
REMARK  status: ('A' for Active; 'I' for Inactive)
REMARK    1  A    between atoms: C_1  and  N_2
REMARK    2  A    between atoms: N_2  and  C_3
REMARK    3  A    between atoms: C_3  and  C_4
REMARK    4  A    between atoms: N_13  and  C_14
REMARK    5  A    between atoms: C_14  and  C_15
REMARK    6  A    between atoms: C_18  and  S_21
REMARK    7  A    between atoms: S_21  and  N_24
REMARK                            x       y       z     vdW  Elec       q    Type
REMARK                         _______ _______ _______ _____ _____    ______ ____
ROOT
ATOM      1  C   UNL     1      -0.018   1.461   0.010  0.00  0.00    +0.134 C 
ATOM      2  N   UNL     1       0.002  -0.004   0.002  0.00  0.00    -0.284 N 
ATOM      3  C   UNL     1       0.000  -0.672  -1.169  0.00  0.00    +0.303 C 
ATOM      4  O   UNL     1       0.017  -1.887  -1.175  0.00  0.00    -0.253 OA
ATOM      5  N   UNL     1      -0.020   0.009  -2.332  0.00  0.00    -0.295 N 
ATOM      6  H   UNL     1      -0.033   0.978  -2.327  0.00  0.00    +0.151 HD
ENDROOT
BRANCH   2   7
ATOM      7  C   UNL     1       0.024  -0.743   1.267  0.00  0.00    +0.144 C 
BRANCH   7   8
ATOM      8  C   UNL     1      -1.389  -1.016   1.714  0.00  0.00    -0.030 A 
ATOM      9  C   UNL     1      -2.047  -0.105   2.518  0.00  0.00    +0.006 A 
ATOM     10  C   UNL     1      -3.343  -0.354   2.929  0.00  0.00    +0.020 A 
ATOM     11  C   UNL     1      -3.982  -1.517   2.534  0.00  0.00    +0.041 A 
ATOM     12  C   UNL     1      -3.322  -2.428   1.729  0.00  0.00    +0.020 A 
ATOM     13  C   UNL     1      -2.028  -2.175   1.314  0.00  0.00    +0.006 A 
ATOM     14 CL   UNL     1      -5.609  -1.831   3.050  0.00  0.00    -0.084 Cl
ENDBRANCH   7   8
ENDBRANCH   2   7
BRANCH   5  15
ATOM     15  C   UNL     1      -0.022  -0.717  -3.605  0.00  0.00    +0.141 C 
BRANCH  15  16
ATOM     16  C   UNL     1      -0.047   0.268  -4.745  0.00  0.00    -0.030 A 
ATOM     17  C   UNL     1      -1.255   0.708  -5.253  0.00  0.00    +0.007 A 
ATOM     18  C   UNL     1      -1.277   1.612  -6.298  0.00  0.00    +0.029 A 
ATOM     19  C   UNL     1      -0.091   2.076  -6.836  0.00  0.00    +0.105 A 
ATOM     20  C   UNL     1       1.117   1.637  -6.328  0.00  0.00    +0.029 A 
ATOM     21  C   UNL     1       1.139   0.736  -5.279  0.00  0.00    +0.007 A 
BRANCH  19  22
ATOM     22  S   UNL     1      -0.119   3.227  -8.170  0.00  0.00    +0.056 S 
ATOM     23  O   UNL     1       1.119   3.089  -8.852  0.00  0.00    -0.153 OA
ATOM     24  O   UNL     1      -1.371   3.063  -8.822  0.00  0.00    -0.153 OA
BRANCH  22  25
ATOM     25  N   UNL     1      -0.127   4.745  -7.506  0.00  0.00    -0.204 NA
ATOM     26  H   UNL     1      -0.117   4.853  -6.543  0.00  0.00    +0.144 HD
ATOM     27  H   UNL     1      -0.143   5.526  -8.082  0.00  0.00    +0.144 HD
ENDBRANCH  22  25
ENDBRANCH  19  22
ENDBRANCH  15  16
ENDBRANCH   5  15
TORSDOF 6
