REMARK  Name = ZINC14094187
REMARK  6 active torsions:
REMARK  status: ('A' for Active; 'I' for Inactive)
REMARK    1  A    between atoms: C_1  and  C_2
REMARK    2  A    between atoms: C_3  and  C_12
REMARK    3  A    between atoms: C_12  and  C_14
REMARK    4  A    between atoms: C_14  and  C_16
REMARK    5  A    between atoms: C_14  and  S_17
REMARK    6  A    between atoms: S_17  and  C_18
REMARK                            x       y       z     vdW  Elec       q    Type
REMARK                         _______ _______ _______ _____ _____    ______ ____
ROOT
ATOM      1  C   UNL     1      -0.127   0.845   2.980  0.00  0.00    +0.122 C 
ATOM      2  C   UNL     1      -1.612   1.150   3.183  0.00  0.00    +0.028 C 
ENDROOT
BRANCH   1   3
ATOM      3  C   UNL     1       0.037  -0.586   2.535  0.00  0.00    +0.178 C 
ATOM      4  O   UNL     1       0.243  -1.457   3.355  0.00  0.00    -0.291 OA
BRANCH   3   7
ATOM      5  C   UNL     1       2.376  -0.414   0.509  0.00  0.00    +0.064 C 
ATOM      6  C   UNL     1       0.962  -0.852   0.227  0.00  0.00    +0.024 A 
ATOM      7  C   UNL     1      -0.051  -0.914   1.159  0.00  0.00    +0.046 A 
ATOM      8  C   UNL     1      -1.246  -1.392   0.436  0.00  0.00    +0.010 A 
ATOM      9  C   UNL     1      -2.561  -1.657   0.810  0.00  0.00    +0.011 A 
ATOM     10  C   UNL     1      -3.461  -2.105  -0.132  0.00  0.00    +0.001 A 
ATOM     11  C   UNL     1      -3.062  -2.290  -1.448  0.00  0.00    +0.002 A 
ATOM     12  C   UNL     1      -1.764  -2.031  -1.831  0.00  0.00    +0.026 A 
ATOM     13  C   UNL     1      -0.840  -1.579  -0.894  0.00  0.00    +0.047 A 
ATOM     14  N   UNL     1       0.494  -1.236  -0.976  0.00  0.00    -0.358 N 
ATOM     15  H   UNL     1       1.023  -1.270  -1.788  0.00  0.00    +0.166 HD
ENDBRANCH   3   7
ENDBRANCH   1   3
BRANCH   1  16
ATOM     16  S   UNL     1       0.759   1.097   4.538  0.00  0.00    -0.077 S 
BRANCH  16  17
ATOM     17  C   UNL     1       0.536   2.833   4.740  0.00  0.00    +0.171 A 
ATOM     18  N   UNL     1       1.067   3.458   5.831  0.00  0.00    -0.301 N 
ATOM     19  H   UNL     1       1.561   2.938   6.484  0.00  0.00    +0.171 HD
ATOM     20  C   UNL     1       0.917   4.782   6.019  0.00  0.00    +0.260 A 
ATOM     21  O   UNL     1       1.398   5.325   6.999  0.00  0.00    -0.267 OA
ATOM     22  C   UNL     1       0.187   5.544   5.053  0.00  0.00    +0.072 A 
ATOM     23  C   UNL     1      -0.106   6.967   5.036  0.00  0.00    +0.023 A 
ATOM     24  C   UNL     1      -0.818   7.477   4.019  0.00  0.00    +0.048 A 
ATOM     25  S   UNL     1      -1.151   6.057   2.994  0.00  0.00    -0.077 S 
ATOM     26  C   UNL     1      -0.325   4.819   3.961  0.00  0.00    +0.116 A 
ATOM     27  N   UNL     1      -0.137   3.511   3.833  0.00  0.00    -0.216 NA
ENDBRANCH  16  17
ENDBRANCH   1  16
TORSDOF 4
