REMARK  Name = ZINC61501414
REMARK  6 active torsions:
REMARK  status: ('A' for Active; 'I' for Inactive)
REMARK    1  A    between atoms: C_1  and  O_2
REMARK    2  A    between atoms: O_2  and  C_3
REMARK    3  A    between atoms: C_8  and  C_9
REMARK    4  A    between atoms: C_10  and  C_11
REMARK    5  A    between atoms: N_13  and  N_14
REMARK    6  A    between atoms: C_15  and  C_17
REMARK                            x       y       z     vdW  Elec       q    Type
REMARK                         _______ _______ _______ _____ _____    ______ ____
ROOT
ATOM      1  C   UNL     1      -0.480  -4.984  -0.959  0.00  0.00    +0.253 C 
ATOM      2  O   UNL     1      -1.040  -4.440  -1.893  0.00  0.00    -0.269 OA
ATOM      3  N   UNL     1      -0.422  -6.329  -0.898  0.00  0.00    -0.231 N 
ATOM      4  H   UNL     1       0.024  -6.762  -0.154  0.00  0.00    +0.173 HD
ENDROOT
BRANCH   3   5
ATOM      5  N   UNL     1      -1.006  -7.101  -1.911  0.00  0.00    -0.230 N 
ATOM      6  C   UNL     1      -0.947  -8.447  -1.850  0.00  0.00    +0.263 C 
ATOM      7  O   UNL     1      -0.388  -8.989  -0.917  0.00  0.00    -0.269 OA
ATOM      8  H   UNL     1      -1.452  -6.668  -2.655  0.00  0.00    +0.173 HD
BRANCH   6   9
ATOM      9  C   UNL     1      -1.562  -9.259  -2.915  0.00  0.00    +0.076 A 
ATOM     10  C   UNL     1      -1.597 -10.726  -3.005  0.00  0.00    +0.054 A 
ATOM     11  C   UNL     1      -2.257 -11.011  -4.137  0.00  0.00    +0.195 A 
ATOM     12  O   UNL     1      -2.620  -9.865  -4.734  0.00  0.00    -0.470 OA
ATOM     13  C   UNL     1      -2.221  -8.808  -4.020  0.00  0.00    +0.208 A 
ENDBRANCH   6   9
ENDBRANCH   3   5
BRANCH   1  15
ATOM     14  C   UNL     1       0.071  -2.829   0.037  0.00  0.00    +0.016 C 
ATOM     15  C   UNL     1       0.129  -4.177   0.098  0.00  0.00    +0.069 C 
BRANCH  14  21
ATOM     16  C   UNL     1       0.625  -0.618   1.040  0.00  0.00    +0.127 A 
ATOM     17  C   UNL     1       1.202   0.137   2.050  0.00  0.00    +0.047 A 
ATOM     18  C   UNL     1       1.835  -0.488   3.106  0.00  0.00    +0.019 A 
ATOM     19  C   UNL     1       1.901  -1.872   3.166  0.00  0.00    +0.019 A 
ATOM     20  C   UNL     1       1.333  -2.639   2.172  0.00  0.00    +0.026 A 
ATOM     21  C   UNL     1       0.683  -2.019   1.099  0.00  0.00    +0.018 A 
ATOM     22 BR   UNL     1       2.773  -2.711   4.619  0.00  0.00    -0.050 Br
BRANCH  16  24
ATOM     23  C   UNL     1      -0.017   1.425   0.010  0.00  0.00    +0.277 C 
ATOM     24  O   UNL     1       0.002  -0.004   0.002  0.00  0.00    -0.495 OA
ENDBRANCH  16  24
ENDBRANCH  14  21
ENDBRANCH   1  15
TORSDOF 5
