REMARK  Name = ZINC67273052
REMARK  7 active torsions:
REMARK  status: ('A' for Active; 'I' for Inactive)
REMARK    1  A    between atoms: C_1  and  C_2
REMARK    2  A    between atoms: N_5  and  C_8
REMARK    3  A    between atoms: C_8  and  C_10
REMARK    4  A    between atoms: C_8  and  C_11
REMARK    5  A    between atoms: C_11  and  N_12
REMARK    6  A    between atoms: C_13  and  C_15
REMARK    7  A    between atoms: C_15  and  C_16
REMARK                            x       y       z     vdW  Elec       q    Type
REMARK                         _______ _______ _______ _____ _____    ______ ____
ROOT
ATOM      1  N   UNL     1       1.401  -3.769   2.567  0.00  0.00    -0.317 N 
ATOM      2  C   UNL     1       2.344  -4.097   3.472  0.00  0.00    +0.215 C 
ATOM      3  O   UNL     1       2.100  -4.917   4.332  0.00  0.00    -0.276 OA
ATOM      4  H   UNL     1       1.597  -3.113   1.879  0.00  0.00    +0.149 HD
ENDROOT
BRANCH   1   5
ATOM      5  C   UNL     1       0.082  -4.402   2.621  0.00  0.00    +0.088 C 
BRANCH   5   6
ATOM      6  C   UNL     1      -0.753  -3.945   1.423  0.00  0.00    -0.054 C 
ATOM      7  C   UNL     1      -2.159  -4.540   1.525  0.00  0.00    -0.012 C 
BRANCH   6  12
ATOM      8  C   UNL     1      -2.251   1.558   1.371  0.00  0.00    +0.007 C 
ATOM      9  C   UNL     1      -2.293   0.028   1.371  0.00  0.00    -0.018 C 
ATOM     10  C   UNL     1      -1.621  -0.503   2.641  0.00  0.00    -0.016 C 
ATOM     11  C   UNL     1      -1.596  -2.032   2.597  0.00  0.00    -0.078 C 
ATOM     12  N   UNL     1      -0.842  -2.478   1.419  0.00  0.00    +0.382 N 
ATOM     13  C   UNL     1      -1.519  -2.034   0.196  0.00  0.00    -0.078 C 
ATOM     14  C   UNL     1      -1.541  -0.504   0.147  0.00  0.00    -0.016 C 
ATOM     15  H   UNL     1       0.088  -2.088   1.449  0.00  0.00    -0.081 HD
ENDBRANCH   6  12
ENDBRANCH   5   6
ENDBRANCH   1   5
BRANCH   2  16
ATOM     16  C   UNL     1       3.702  -3.445   3.417  0.00  0.00    +0.119 C 
BRANCH  16  17
ATOM     17  C   UNL     1       4.576  -3.990   4.548  0.00  0.00    +0.146 C 
ATOM     18  C   UNL     1       5.968  -3.426   4.428  0.00  0.00    +0.231 C 
ATOM     19  O   UNL     1       6.823  -4.105   3.900  0.00  0.00    -0.274 OA
ATOM     20  N   UNL     1       6.305  -2.220   4.873  0.00  0.00    -0.284 N 
ATOM     21  C   UNL     1       5.501  -1.349   5.603  0.00  0.00    +0.047 A 
ATOM     22  C   UNL     1       5.863  -0.008   5.696  0.00  0.00    +0.024 A 
ATOM     23  C   UNL     1       5.077   0.877   6.406  0.00  0.00    +0.002 A 
ATOM     24  C   UNL     1       3.922   0.444   7.032  0.00  0.00    +0.001 A 
ATOM     25  C   UNL     1       3.552  -0.886   6.950  0.00  0.00    +0.016 A 
ATOM     26  C   UNL     1       4.340  -1.779   6.243  0.00  0.00    +0.030 A 
ATOM     27  S   UNL     1       3.882  -3.489   6.153  0.00  0.00    -0.110 S 
ATOM     28  H   UNL     1       7.203  -1.915   4.668  0.00  0.00    +0.155 HD
ENDBRANCH  16  17
ENDBRANCH   2  16
TORSDOF 5
