REMARK  Name = ZINC01808740
REMARK  13 active torsions:
REMARK  status: ('A' for Active; 'I' for Inactive)
REMARK    1  A    between atoms: C_1  and  C_2
REMARK    2  A    between atoms: C_6  and  N_8
REMARK    3  A    between atoms: N_8  and  C_9
REMARK    4  A    between atoms: N_8  and  S_28
REMARK    5  A    between atoms: C_9  and  C_10
REMARK    6  A    between atoms: C_10  and  C_12
REMARK    7  A    between atoms: C_10  and  O_27
REMARK    8  A    between atoms: C_12  and  N_68
REMARK    9  A    between atoms: C_13  and  C_14
REMARK   10  A    between atoms: C_13  and  N_68
REMARK   11  A    between atoms: C_20  and  C_21
REMARK   12  A    between atoms: C_20  and  N_68
REMARK   13  A    between atoms: S_28  and  C_31
REMARK                            x       y       z     vdW  Elec       q    Type
REMARK                         _______ _______ _______ _____ _____    ______ ____
ROOT
ATOM      1  C   UNL     1      -0.111   6.186  -2.500  0.00  0.00    +0.117 C 
ENDROOT
BRANCH   1   2
ATOM      2  O   UNL     1       0.035   4.825  -2.913  0.00  0.00    -0.392 OA
ATOM      3  H   UNL     1       0.552   4.282  -2.303  0.00  0.00    +0.210 HD
ENDBRANCH   1   2
BRANCH   1   4
ATOM      4  C   UNL     1      -0.817   6.233  -1.144  0.00  0.00    +0.161 C 
BRANCH   4   5
ATOM      5  N   UNL     1      -2.140   5.614  -1.260  0.00  0.00    -0.201 N 
BRANCH   5  11
ATOM      6  C   UNL     1      -1.777   1.565   1.503  0.00  0.00    +0.044 C 
ATOM      7  C   UNL     1      -2.107   2.240   0.196  0.00  0.00    -0.049 A 
ATOM      8  C   UNL     1      -2.546   1.488  -0.878  0.00  0.00    +0.003 A 
ATOM      9  C   UNL     1      -2.855   2.103  -2.077  0.00  0.00    +0.002 A 
ATOM     10  C   UNL     1      -2.722   3.472  -2.207  0.00  0.00    +0.025 A 
ATOM     11  C   UNL     1      -2.276   4.230  -1.132  0.00  0.00    +0.052 A 
ATOM     12  C   UNL     1      -1.966   3.608   0.071  0.00  0.00    +0.028 A 
ENDBRANCH   5  11
BRANCH   5  13
ATOM     13  S   UNL     1      -3.473   6.555  -1.543  0.00  0.00    +0.075 S 
ATOM     14  O   UNL     1      -3.021   7.692  -2.266  0.00  0.00    -0.150 OA
ATOM     15  O   UNL     1      -4.483   5.688  -2.040  0.00  0.00    -0.150 OA
BRANCH  13  16
ATOM     16  C   UNL     1      -4.037   7.142   0.019  0.00  0.00    +0.109 A 
ATOM     17  C   UNL     1      -4.965   6.413   0.738  0.00  0.00    +0.029 A 
ATOM     18  C   UNL     1      -5.404   6.871   1.966  0.00  0.00    +0.002 A 
ATOM     19  C   UNL     1      -4.923   8.065   2.470  0.00  0.00    +0.000 A 
ATOM     20  C   UNL     1      -3.999   8.797   1.749  0.00  0.00    +0.002 A 
ATOM     21  C   UNL     1      -3.556   8.336   0.524  0.00  0.00    +0.029 A 
ENDBRANCH  13  16
ENDBRANCH   5  13
ENDBRANCH   4   5
ENDBRANCH   1   4
BRANCH   1  22
ATOM     22  C   UNL     1       1.270   6.832  -2.378  0.00  0.00    -0.045 C 
BRANCH  22  23
ATOM     23  N   UNL     1       1.899   6.869  -3.716  0.00  0.00    +0.387 N 
ATOM     24  H   UNL     1       1.864   5.928  -4.126  0.00  0.00    -0.081 HD
BRANCH  23  25
ATOM     25  C   UNL     1       1.165   7.804  -4.594  0.00  0.00    -0.042 C 
BRANCH  25  26
ATOM     26  C   UNL     1       1.669   7.641  -6.005  0.00  0.00    -0.064 A 
ATOM     27  C   UNL     1       2.627   8.505  -6.501  0.00  0.00    +0.002 A 
ATOM     28  C   UNL     1       3.092   8.353  -7.794  0.00  0.00    +0.000 A 
ATOM     29  C   UNL     1       2.591   7.343  -8.594  0.00  0.00    +0.000 A 
ATOM     30  C   UNL     1       1.629   6.482  -8.100  0.00  0.00    +0.000 A 
ATOM     31  C   UNL     1       1.168   6.631  -6.805  0.00  0.00    +0.002 A 
ENDBRANCH  25  26
ENDBRANCH  23  25
BRANCH  23  32
ATOM     32  C   UNL     1       3.312   7.288  -3.599  0.00  0.00    -0.042 C 
BRANCH  32  33
ATOM     33  C   UNL     1       4.116   6.134  -3.059  0.00  0.00    -0.064 A 
ATOM     34  C   UNL     1       4.408   6.065  -1.710  0.00  0.00    +0.002 A 
ATOM     35  C   UNL     1       5.142   5.003  -1.214  0.00  0.00    +0.000 A 
ATOM     36  C   UNL     1       5.592   4.015  -2.070  0.00  0.00    +0.000 A 
ATOM     37  C   UNL     1       5.304   4.087  -3.420  0.00  0.00    +0.000 A 
ATOM     38  C   UNL     1       4.566   5.146  -3.915  0.00  0.00    +0.002 A 
ENDBRANCH  32  33
ENDBRANCH  23  32
ENDBRANCH  22  23
ENDBRANCH   1  22
TORSDOF 12
