REMARK  Name = ZINC34734750
REMARK  10 active torsions:
REMARK  status: ('A' for Active; 'I' for Inactive)
REMARK    1  A    between atoms: C_1  and  C_2
REMARK    2  A    between atoms: C_2  and  C_3
REMARK    3  A    between atoms: C_3  and  C_4
REMARK    4  A    between atoms: C_4  and  N_5
REMARK    5  A    between atoms: C_20  and  C_22
REMARK    6  A    between atoms: C_20  and  C_23
REMARK    7  A    between atoms: N_26  and  C_27
REMARK    8  A    between atoms: C_27  and  C_28
REMARK    9  A    between atoms: C_28  and  C_29
REMARK   10  A    between atoms: C_29  and  C_30
REMARK                            x       y       z     vdW  Elec       q    Type
REMARK                         _______ _______ _______ _____ _____    ______ ____
ROOT
ATOM      1  N   UNL     1      -3.801  -1.692   0.045  0.00  0.00    +0.382 N 
ATOM      2  C   UNL     1      -5.238  -1.916   0.251  0.00  0.00    -0.060 C 
ATOM      3  C   UNL     1      -5.515  -3.422   0.317  0.00  0.00    +0.089 C 
ATOM      4  N   UNL     1      -4.971  -4.050  -0.897  0.00  0.00    -0.304 N 
ATOM      5  C   UNL     1      -3.580  -3.748  -1.270  0.00  0.00    +0.089 C 
ATOM      6  C   UNL     1      -3.394  -2.227  -1.261  0.00  0.00    -0.060 C 
ATOM      7  C   UNL     1      -5.739  -4.894  -1.660  0.00  0.00    +0.202 A 
ATOM      8  N   UNL     1      -6.502  -4.397  -2.610  0.00  0.00    -0.208 NA
ATOM      9  C   UNL     1      -7.255  -5.190  -3.363  0.00  0.00    +0.118 A 
ATOM     10  C   UNL     1      -7.278  -6.585  -3.189  0.00  0.00    +0.076 A 
ATOM     11  C   UNL     1      -8.158  -7.323  -4.093  0.00  0.00    -0.018 A 
ATOM     12  C   UNL     1      -8.855  -6.603  -4.998  0.00  0.00    +0.021 A 
ATOM     13  S   UNL     1      -8.388  -4.921  -4.704  0.00  0.00    -0.071 S 
ATOM     14  C   UNL     1      -9.808  -7.146  -6.017  0.00  0.00    +0.203 C 
ATOM     15  O   UNL     1      -9.620  -8.568  -6.085  0.00  0.00    -0.368 OA
ATOM     16  C   UNL     1      -9.602  -9.203  -4.803  0.00  0.00    +0.068 C 
ATOM     17  C   UNL     1      -8.316  -8.841  -4.054  0.00  0.00    +0.071 C 
ATOM     18  C   UNL     1     -10.811  -8.737  -3.990  0.00  0.00    +0.041 C 
ATOM     19  C   UNL     1      -9.672 -10.720  -4.988  0.00  0.00    +0.041 C 
ATOM     20  C   UNL     1      -6.438  -7.096  -2.150  0.00  0.00    +0.264 A 
ATOM     21  O   UNL     1      -6.392  -8.293  -1.925  0.00  0.00    -0.267 OA
ATOM     22  N   UNL     1      -5.696  -6.237  -1.426  0.00  0.00    -0.280 N 
ATOM     23  H   UNL     1      -3.283  -2.159   0.774  0.00  0.00    -0.082 HD
ENDROOT
BRANCH   1  24
ATOM     24  C   UNL     1      -3.520  -0.251   0.091  0.00  0.00    -0.079 C 
BRANCH  24  25
ATOM     25  C   UNL     1      -3.827   0.283   1.492  0.00  0.00    -0.019 C 
BRANCH  25  27
ATOM     26  C   UNL     1      -3.842   2.319   2.940  0.00  0.00    +0.004 C 
ATOM     27  C   UNL     1      -3.535   1.784   1.540  0.00  0.00    -0.005 C 
ENDBRANCH  25  27
ENDBRANCH  24  25
ENDBRANCH   1  24
BRANCH  22  28
ATOM     28  C   UNL     1      -4.830  -6.754  -0.364  0.00  0.00    +0.128 C 
BRANCH  28  29
ATOM     29  C   UNL     1      -5.646  -6.935   0.917  0.00  0.00    +0.026 C 
BRANCH  29  30
ATOM     30  C   UNL     1      -4.741  -7.476   2.026  0.00  0.00    +0.037 C 
BRANCH  30  31
ATOM     31  C   UNL     1      -5.545  -7.654   3.288  0.00  0.00    -0.047 A 
ATOM     32  C   UNL     1      -5.651  -6.614   4.192  0.00  0.00    +0.003 A 
ATOM     33  C   UNL     1      -6.389  -6.777   5.350  0.00  0.00    +0.000 A 
ATOM     34  C   UNL     1      -7.020  -7.981   5.603  0.00  0.00    +0.000 A 
ATOM     35  C   UNL     1      -6.914  -9.021   4.699  0.00  0.00    +0.000 A 
ATOM     36  C   UNL     1      -6.180  -8.856   3.539  0.00  0.00    +0.003 A 
ENDBRANCH  30  31
ENDBRANCH  29  30
ENDBRANCH  28  29
ENDBRANCH  22  28
TORSDOF 7
