REMARK  Name = ZINC39695716
REMARK  6 active torsions:
REMARK  status: ('A' for Active; 'I' for Inactive)
REMARK    1  A    between atoms: C_1  and  C_2
REMARK    2  A    between atoms: C_9  and  C_11
REMARK    3  A    between atoms: C_11  and  C_13
REMARK    4  A    between atoms: C_11  and  N_14
REMARK    5  A    between atoms: C_15  and  C_17
REMARK    6  A    between atoms: C_28  and  C_30
REMARK                            x       y       z     vdW  Elec       q    Type
REMARK                         _______ _______ _______ _____ _____    ______ ____
ROOT
ATOM      1  C   UNL     1       1.292  -8.847   1.270  0.00  0.00    +0.100 C 
ATOM      2  C   UNL     1       0.423  -9.563   0.212  0.00  0.00    +0.121 C 
ATOM      3  N   UNL     1       0.967 -10.940   0.149  0.00  0.00    -0.296 N 
ATOM      4  C   UNL     1       1.276 -11.279   1.559  0.00  0.00    +0.115 C 
ATOM      5  C   UNL     1       1.850  -9.977   2.153  0.00  0.00    -0.004 C 
ATOM      6  C   UNL     1       1.379  -9.803   3.594  0.00  0.00    -0.010 C 
ATOM      7  C   UNL     1       1.994 -10.903   4.463  0.00  0.00    -0.082 C 
ATOM      8  N   UNL     1       3.458 -10.826   4.392  0.00  0.00    +0.379 N 
ATOM      9  C   UNL     1       3.907 -11.087   3.019  0.00  0.00    -0.082 C 
ATOM     10  C   UNL     1       3.374  -9.994   2.089  0.00  0.00    -0.010 C 
ATOM     11  C   UNL     1       1.142 -11.710  -0.943  0.00  0.00    +0.247 C 
ATOM     12  O   UNL     1       0.959 -11.244  -2.051  0.00  0.00    -0.270 OA
ATOM     13  H   UNL     1       3.759  -9.904   4.673  0.00  0.00    -0.086 HD
ATOM     14  H   UNL     1       3.860 -11.512   5.012  0.00  0.00    -0.086 HD
ENDROOT
BRANCH  11  15
ATOM     15  C   UNL     1       1.556 -13.121  -0.794  0.00  0.00    +0.037 A 
ATOM     16  C   UNL     1       1.335 -13.788   0.424  0.00  0.00    +0.013 A 
ATOM     17  C   UNL     1       1.706 -15.083   0.586  0.00  0.00    +0.009 A 
ATOM     18  C   UNL     1       2.321 -15.776  -0.473  0.00  0.00    -0.018 A 
ATOM     19  C   UNL     1       2.715 -17.117  -0.330  0.00  0.00    +0.008 A 
ATOM     20  C   UNL     1       3.307 -17.762  -1.372  0.00  0.00    +0.001 A 
ATOM     21  C   UNL     1       3.533 -17.112  -2.583  0.00  0.00    +0.001 A 
ATOM     22  C   UNL     1       3.166 -15.813  -2.760  0.00  0.00    +0.008 A 
ATOM     23  C   UNL     1       2.550 -15.115  -1.706  0.00  0.00    -0.017 A 
ATOM     24  C   UNL     1       2.154 -13.777  -1.857  0.00  0.00    +0.021 A 
ENDBRANCH  11  15
BRANCH   1  26
ATOM     25  N   UNL     1       0.999  -6.792   2.615  0.00  0.00    -0.305 N 
ATOM     26  C   UNL     1       0.450  -7.906   2.092  0.00  0.00    +0.219 C 
ATOM     27  O   UNL     1      -0.723  -8.152   2.283  0.00  0.00    -0.275 OA
ATOM     28  H   UNL     1       1.937  -6.596   2.462  0.00  0.00    +0.149 HD
BRANCH  25  29
ATOM     29  C   UNL     1       0.180  -5.877   3.414  0.00  0.00    +0.136 C 
ATOM     30  C   UNL     1      -0.551  -4.905   2.486  0.00  0.00    +0.036 C 
BRANCH  29  39
ATOM     31  C   UNL     1       3.451  -1.937   8.813  0.00  0.00    +0.044 C 
ATOM     32  C   UNL     1       3.221  -2.716   7.544  0.00  0.00    -0.048 A 
ATOM     33  C   UNL     1       4.273  -2.924   6.663  0.00  0.00    +0.005 A 
ATOM     34  C   UNL     1       4.085  -3.627   5.507  0.00  0.00    +0.030 A 
ATOM     35  C   UNL     1       2.822  -4.144   5.204  0.00  0.00    +0.089 A 
ATOM     36  C   UNL     1       1.757  -3.933   6.096  0.00  0.00    +0.067 A 
ATOM     37  C   UNL     1       1.968  -3.220   7.268  0.00  0.00    +0.031 A 
ATOM     38  N   UNL     1       0.659  -4.552   5.532  0.00  0.00    -0.340 N 
ATOM     39  C   UNL     1       1.065  -5.103   4.356  0.00  0.00    +0.128 A 
ATOM     40  N   UNL     1       2.330  -4.865   4.164  0.00  0.00    -0.231 NA
ATOM     41  H   UNL     1      -0.236  -4.588   5.904  0.00  0.00    +0.167 HD
ENDBRANCH  29  39
ENDBRANCH  25  29
ENDBRANCH   1  26
TORSDOF 4
