REMARK  Name = ZINC13342717
REMARK  7 active torsions:
REMARK  status: ('A' for Active; 'I' for Inactive)
REMARK    1  A    between atoms: C_3  and  O_18
REMARK    2  A    between atoms: C_4  and  N_15
REMARK    3  A    between atoms: C_6  and  S_7
REMARK    4  A    between atoms: S_7  and  N_10
REMARK    5  A    between atoms: O_18  and  S_19
REMARK    6  A    between atoms: S_19  and  C_22
REMARK    7  A    between atoms: C_26  and  C_28
REMARK                            x       y       z     vdW  Elec       q    Type
REMARK                         _______ _______ _______ _____ _____    ______ ____
ROOT
ATOM      1  C   UNL     1       3.143   5.827  -2.684  0.00  0.00    +0.032 A 
ATOM      2  C   UNL     1       3.910   4.860  -2.062  0.00  0.00    +0.053 A 
ATOM      3  C   UNL     1       3.506   3.533  -2.090  0.00  0.00    +0.187 A 
ATOM      4  C   UNL     1       2.337   3.179  -2.747  0.00  0.00    +0.172 A 
ATOM      5  C   UNL     1       1.571   4.150  -3.363  0.00  0.00    +0.065 A 
ATOM      6  C   UNL     1       1.976   5.473  -3.334  0.00  0.00    +0.108 A 
ENDROOT
BRANCH   6   7
ATOM      7  S   UNL     1       1.002   6.708  -4.128  0.00  0.00    +0.061 S 
ATOM      8  O   UNL     1      -0.323   6.198  -4.197  0.00  0.00    -0.153 OA
ATOM      9  O   UNL     1       1.311   7.940  -3.491  0.00  0.00    -0.153 OA
BRANCH   7  10
ATOM     10  N   UNL     1       1.543   6.831  -5.688  0.00  0.00    -0.177 NA
ATOM     11  C   UNL     1       2.603   7.736  -6.158  0.00  0.00    +0.109 C 
ATOM     12  C   UNL     1       2.748   7.521  -7.679  0.00  0.00    +0.018 C 
ATOM     13  C   UNL     1       1.371   6.925  -8.076  0.00  0.00    +0.018 C 
ATOM     14  C   UNL     1       1.038   6.058  -6.836  0.00  0.00    +0.109 C 
ENDBRANCH   7  10
ENDBRANCH   6   7
BRANCH   4  15
ATOM     15  N   UNL     1       1.906   1.764  -2.784  0.00  0.00    +0.060 N 
ATOM     16  O   UNL     1       0.879   1.454  -3.361  0.00  0.00    -0.126 OA
ATOM     17  O   UNL     1       2.579   0.908  -2.237  0.00  0.00    -0.126 OA
ENDBRANCH   4  15
BRANCH   3  18
ATOM     18  O   UNL     1       4.258   2.580  -1.479  0.00  0.00    -0.340 OA
BRANCH  18  19
ATOM     19  S   UNL     1       3.888   2.338  -0.023  0.00  0.00    +0.151 S 
ATOM     20  O   UNL     1       3.593   3.610   0.538  0.00  0.00    -0.131 OA
ATOM     21  O   UNL     1       4.888   1.483   0.514  0.00  0.00    -0.131 OA
BRANCH  19  22
ATOM     22  C   UNL     1       2.383   1.422  -0.013  0.00  0.00    +0.129 A 
ATOM     23  C   UNL     1       1.170   2.088   0.002  0.00  0.00    +0.032 A 
ATOM     24  C   UNL     1      -0.017   1.377   0.010  0.00  0.00    +0.023 A 
ATOM     25  C   UNL     1       0.002  -0.004   0.002  0.00  0.00    +0.055 A 
ATOM     26  C   UNL     1       1.224  -0.682  -0.013  0.00  0.00    +0.083 A 
ATOM     27  C   UNL     1       2.417   0.043  -0.021  0.00  0.00    +0.047 A 
ATOM     28 CL   UNL     1      -1.488  -0.895   0.011  0.00  0.00    -0.083 Cl
BRANCH  26  29
ATOM     29  C   UNL     1       1.253  -2.158  -0.021  0.00  0.00    +0.388 C 
ATOM     30  O   UNL     1       0.213  -2.786  -0.014  0.00  0.00    -0.241 OA
ATOM     31  O   UNL     1       2.433  -2.809  -0.036  0.00  0.00    -0.241 OA
ENDBRANCH  26  29
ENDBRANCH  19  22
ENDBRANCH  18  19
ENDBRANCH   3  18
TORSDOF 7
