REMARK  Name = ZINC25598480
REMARK  7 active torsions:
REMARK  status: ('A' for Active; 'I' for Inactive)
REMARK    1  A    between atoms: C_1  and  C_2
REMARK    2  A    between atoms: C_2  and  C_4
REMARK    3  A    between atoms: C_2  and  O_17
REMARK    4  A    between atoms: N_6  and  N_7
REMARK    5  A    between atoms: C_8  and  C_10
REMARK    6  A    between atoms: C_15  and  O_16
REMARK    7  A    between atoms: O_17  and  C_18
REMARK                            x       y       z     vdW  Elec       q    Type
REMARK                         _______ _______ _______ _____ _____    ______ ____
ROOT
ATOM      1  C   UNL     1      -0.173  -0.691   6.062  0.00  0.00    +0.270 C 
ATOM      2  O   UNL     1      -0.325  -1.894   6.081  0.00  0.00    -0.270 OA
ATOM      3  N   UNL     1      -0.231  -0.023   4.893  0.00  0.00    -0.231 N 
ATOM      4  H   UNL     1      -0.093   1.068   4.876  0.00  0.00    +0.173 HD
ENDROOT
BRANCH   3   5
ATOM      5  N   UNL     1      -0.468  -0.718   3.700  0.00  0.00    -0.230 N 
ATOM      6  C   UNL     1      -0.526  -0.050   2.531  0.00  0.00    +0.264 C 
ATOM      7  O   UNL     1      -0.374   1.157   2.512  0.00  0.00    -0.269 OA
ATOM      8  H   UNL     1      -0.606  -1.809   3.717  0.00  0.00    +0.173 HD
BRANCH   6   9
ATOM      9  C   UNL     1      -0.776  -0.782   1.274  0.00  0.00    +0.079 A 
ATOM     10  C   UNL     1      -0.951  -2.167   1.292  0.00  0.00    +0.017 A 
ATOM     11  C   UNL     1      -1.183  -2.845   0.115  0.00  0.00    +0.001 A 
ATOM     12  C   UNL     1      -1.244  -2.159  -1.087  0.00  0.00    +0.004 A 
ATOM     13  C   UNL     1      -1.077  -0.788  -1.118  0.00  0.00    +0.046 A 
ATOM     14  C   UNL     1      -0.837  -0.091   0.057  0.00  0.00    +0.129 A 
BRANCH  14  15
ATOM     15  O   UNL     1      -0.669   1.255   0.027  0.00  0.00    -0.506 OA
ATOM     16  H   UNL     1      -0.718   1.795  -0.930  0.00  0.00    +0.292 HD
ENDBRANCH  14  15
ENDBRANCH   6   9
ENDBRANCH   3   5
BRANCH   1  18
ATOM     17  C   UNL     1      -1.090   0.999   7.628  0.00  0.00    +0.062 C 
ATOM     18  C   UNL     1       0.082   0.057   7.345  0.00  0.00    +0.257 C 
BRANCH  18  19
ATOM     19  O   UNL     1       0.214  -0.875   8.421  0.00  0.00    -0.479 OA
BRANCH  19  20
ATOM     20  C   UNL     1       0.933  -0.472   9.502  0.00  0.00    +0.136 A 
ATOM     21  C   UNL     1       1.405   0.831   9.575  0.00  0.00    +0.048 A 
ATOM     22  C   UNL     1       2.131   1.240  10.677  0.00  0.00    +0.023 A 
ATOM     23  C   UNL     1       2.398   0.350  11.701  0.00  0.00    +0.042 A 
ATOM     24  C   UNL     1       1.934  -0.952  11.628  0.00  0.00    +0.039 A 
ATOM     25  C   UNL     1       1.202  -1.364  10.530  0.00  0.00    +0.061 A 
ATOM     26 BR   UNL     1       0.569  -3.143  10.429  0.00  0.00    -0.046 Br
ATOM     27 CL   UNL     1       3.317   0.865  13.081  0.00  0.00    -0.084 Cl
ENDBRANCH  19  20
ENDBRANCH  18  19
ENDBRANCH   1  18
TORSDOF 6
