REMARK  Name = ZINC64044251
REMARK  10 active torsions:
REMARK  status: ('A' for Active; 'I' for Inactive)
REMARK    1  A    between atoms: C_1  and  C_2
REMARK    2  A    between atoms: C_7  and  C_32
REMARK    3  A    between atoms: C_8  and  C_12
REMARK    4  A    between atoms: C_12  and  N_13
REMARK    5  A    between atoms: C_17  and  C_20
REMARK    6  A    between atoms: C_20  and  C_21
REMARK    7  A    between atoms: C_21  and  C_22
REMARK    8  A    between atoms: N_24  and  C_25
REMARK    9  A    between atoms: C_25  and  C_26
REMARK   10  A    between atoms: C_29  and  C_31
REMARK                            x       y       z     vdW  Elec       q    Type
REMARK                         _______ _______ _______ _____ _____    ______ ____
ROOT
ATOM      1  N   UNL     1       1.209  -0.233   5.004  0.00  0.00    +0.381 N 
ATOM      2  C   UNL     1       1.216   0.916   4.090  0.00  0.00    -0.079 C 
ATOM      3  C   UNL     1       1.045   2.210   4.889  0.00  0.00    -0.018 C 
ATOM      4  C   UNL     1       2.198   2.342   5.888  0.00  0.00    -0.000 C 
ATOM      5  C   UNL     1       2.226   1.104   6.788  0.00  0.00    -0.027 C 
ATOM      6  C   UNL     1       2.354  -0.149   5.919  0.00  0.00    -0.075 C 
ATOM      7  H   UNL     1       0.352  -0.230   5.537  0.00  0.00    -0.082 HD
ENDROOT
BRANCH   1   8
ATOM      8  C   UNL     1       1.295  -1.476   4.226  0.00  0.00    -0.050 C 
BRANCH   8  16
ATOM      9  C   UNL     1      -2.984  -3.245   6.859  0.00  0.00    +0.046 C 
ATOM     10  C   UNL     1      -2.167  -4.091   5.916  0.00  0.00    -0.027 A 
ATOM     11  C   UNL     1      -2.675  -5.247   5.440  0.00  0.00    +0.005 A 
ATOM     12  C   UNL     1      -1.969  -6.080   4.561  0.00  0.00    +0.001 A 
ATOM     13  C   UNL     1      -0.723  -5.770   4.134  0.00  0.00    +0.010 A 
ATOM     14  C   UNL     1      -0.098  -4.528   4.605  0.00  0.00    -0.001 A 
ATOM     15  C   UNL     1       1.105  -3.959   4.363  0.00  0.00    -0.043 C 
ATOM     16  C   UNL     1       1.130  -2.675   5.161  0.00  0.00    +0.089 C 
ATOM     17  N   UNL     1      -0.163  -2.606   5.851  0.00  0.00    -0.379 N 
ATOM     18  C   UNL     1      -0.867  -3.663   5.528  0.00  0.00    +0.046 A 
ATOM     19  C   UNL     1       2.200  -4.497   3.477  0.00  0.00    +0.042 C 
ATOM     20  H   UNL     1      -0.451  -1.894   6.445  0.00  0.00    +0.160 HD
ENDBRANCH   8  16
ENDBRANCH   1   8
BRANCH   5  21
ATOM     21  C   UNL     1       3.421   1.190   7.740  0.00  0.00    +0.011 C 
BRANCH  21  22
ATOM     22  C   UNL     1       3.233   2.375   8.689  0.00  0.00    +0.096 C 
BRANCH  22  23
ATOM     23  C   UNL     1       4.410   2.460   9.626  0.00  0.00    +0.213 C 
ATOM     24  O   UNL     1       5.311   1.653   9.543  0.00  0.00    -0.276 OA
ATOM     25  N   UNL     1       4.462   3.434  10.556  0.00  0.00    -0.308 N 
ATOM     26  H   UNL     1       3.741   4.080  10.623  0.00  0.00    +0.149 HD
BRANCH  25  27
ATOM     27  C   UNL     1       5.606   3.517  11.467  0.00  0.00    +0.178 C 
BRANCH  27  28
ATOM     28  C   UNL     1       5.420   4.684  12.402  0.00  0.00    +0.122 A 
ATOM     29  C   UNL     1       4.812   4.643  13.601  0.00  0.00    +0.046 A 
ATOM     30  C   UNL     1       4.862   5.952  14.132  0.00  0.00    +0.045 A 
ATOM     31  C   UNL     1       5.499   6.715  13.225  0.00  0.00    +0.102 A 
ATOM     32  O   UNL     1       5.840   5.941  12.183  0.00  0.00    -0.463 OA
ATOM     33  C   UNL     1       5.787   8.189  13.360  0.00  0.00    +0.086 C 
ENDBRANCH  27  28
ENDBRANCH  25  27
ENDBRANCH  22  23
ENDBRANCH  21  22
ENDBRANCH   5  21
TORSDOF 7
