REMARK  Name = ZINC59889345
REMARK  13 active torsions:
REMARK  status: ('A' for Active; 'I' for Inactive)
REMARK    1  A    between atoms: C_1  and  C_2
REMARK    2  A    between atoms: C_2  and  C_3
REMARK    3  A    between atoms: C_3  and  C_34
REMARK    4  A    between atoms: N_4  and  N_5
REMARK    5  A    between atoms: C_8  and  S_11
REMARK    6  A    between atoms: S_11  and  C_12
REMARK    7  A    between atoms: C_12  and  C_13
REMARK    8  A    between atoms: N_15  and  C_16
REMARK    9  A    between atoms: C_19  and  S_22
REMARK   10  A    between atoms: S_22  and  N_25
REMARK   11  A    between atoms: N_25  and  C_26
REMARK   12  A    between atoms: C_29  and  C_33
REMARK   13  A    between atoms: C_31  and  C_32
REMARK                            x       y       z     vdW  Elec       q    Type
REMARK                         _______ _______ _______ _____ _____    ______ ____
ROOT
ATOM      1  C   UNL     1       9.914  -7.115  -2.442  0.00  0.00    +0.227 C 
ATOM      2  O   UNL     1      10.648  -8.057  -2.653  0.00  0.00    -0.275 OA
ATOM      3  N   UNL     1       9.996  -6.444  -1.276  0.00  0.00    -0.285 N 
ATOM      4  H   UNL     1       9.456  -5.651  -1.134  0.00  0.00    +0.155 HD
ENDROOT
BRANCH   3   5
ATOM      5  C   UNL     1      10.860  -6.892  -0.271  0.00  0.00    +0.034 A 
ATOM      6  C   UNL     1      10.498  -6.767   1.064  0.00  0.00    +0.025 A 
ATOM      7  C   UNL     1      11.353  -7.210   2.054  0.00  0.00    +0.030 A 
ATOM      8  C   UNL     1      12.568  -7.778   1.717  0.00  0.00    +0.109 A 
ATOM      9  C   UNL     1      12.932  -7.903   0.389  0.00  0.00    +0.030 A 
ATOM     10  C   UNL     1      12.078  -7.468  -0.606  0.00  0.00    +0.025 A 
BRANCH   8  11
ATOM     11  S   UNL     1      13.656  -8.342   2.983  0.00  0.00    +0.072 S 
ATOM     12  O   UNL     1      14.964  -8.335   2.428  0.00  0.00    -0.150 OA
ATOM     13  O   UNL     1      13.324  -7.615   4.158  0.00  0.00    -0.150 OA
BRANCH  11  14
ATOM     14  N   UNL     1      13.278  -9.926   3.284  0.00  0.00    -0.216 N 
ATOM     15  H   UNL     1      12.989 -10.195   4.170  0.00  0.00    +0.174 HD
BRANCH  14  16
ATOM     16  C   UNL     1      13.375 -10.873   2.263  0.00  0.00    +0.051 A 
ATOM     17  C   UNL     1      14.386 -10.774   1.315  0.00  0.00    +0.025 A 
ATOM     18  C   UNL     1      14.479 -11.712   0.306  0.00  0.00    +0.005 A 
ATOM     19  C   UNL     1      13.569 -12.751   0.239  0.00  0.00    -0.050 A 
ATOM     20  C   UNL     1      12.562 -12.853   1.181  0.00  0.00    +0.008 A 
ATOM     21  C   UNL     1      12.466 -11.921   2.196  0.00  0.00    -0.028 A 
ATOM     22  C   UNL     1      11.372 -12.037   3.226  0.00  0.00    +0.046 C 
ATOM     23  C   UNL     1      13.674 -13.773  -0.863  0.00  0.00    +0.044 C 
ENDBRANCH  14  16
ENDBRANCH  11  14
ENDBRANCH   8  11
ENDBRANCH   3   5
BRANCH   1  24
ATOM     24  C   UNL     1       8.909  -6.695  -3.484  0.00  0.00    +0.173 C 
BRANCH  24  25
ATOM     25  S   UNL     1       9.043  -7.785  -4.928  0.00  0.00    -0.075 S 
BRANCH  25  29
ATOM     26  N   UNL     1       6.043  -7.202  -9.064  0.00  0.00    -0.205 N 
ATOM     27  C   UNL     1       6.585  -6.977  -7.811  0.00  0.00    +0.232 A 
ATOM     28  N   UNL     1       7.553  -7.671  -7.252  0.00  0.00    -0.186 NA
ATOM     29  C   UNL     1       7.821  -7.173  -6.039  0.00  0.00    +0.211 A 
ATOM     30  N   UNL     1       7.026  -6.155  -5.812  0.00  0.00    -0.144 NA
ATOM     31  N   UNL     1       6.218  -6.004  -6.950  0.00  0.00    -0.245 N 
ATOM     32  H   UNL     1       5.331  -6.631  -9.394  0.00  0.00    +0.177 HD
ATOM     33  H   UNL     1       5.529  -5.335  -7.090  0.00  0.00    +0.192 HD
BRANCH  26  35
ATOM     34  C   UNL     1       6.021  -8.461 -11.016  0.00  0.00    +0.034 C 
ATOM     35  N   UNL     1       6.522  -8.253  -9.857  0.00  0.00    -0.189 NA
ATOM     36  C   UNL     1       4.915  -7.575 -11.528  0.00  0.00    +0.062 C 
BRANCH  34  38
ATOM     37  C   UNL     1       5.427 -10.627 -12.067  0.00  0.00    +0.010 C 
ATOM     38  C   UNL     1       6.536  -9.592 -11.868  0.00  0.00    +0.049 C 
ENDBRANCH  34  38
ENDBRANCH  26  35
ENDBRANCH  25  29
ENDBRANCH  24  25
ENDBRANCH   1  24
TORSDOF 9
