REMARK  Name = ZINC39594588
REMARK  9 active torsions:
REMARK  status: ('A' for Active; 'I' for Inactive)
REMARK    1  A    between atoms: C_1  and  C_2
REMARK    2  A    between atoms: C_2  and  C_4
REMARK    3  A    between atoms: C_2  and  O_34
REMARK    4  A    between atoms: C_8  and  C_17
REMARK    5  A    between atoms: N_19  and  C_20
REMARK    6  A    between atoms: C_20  and  C_21
REMARK    7  A    between atoms: C_21  and  C_23
REMARK    8  A    between atoms: C_21  and  N_29
REMARK    9  A    between atoms: O_34  and  C_35
REMARK                            x       y       z     vdW  Elec       q    Type
REMARK                         _______ _______ _______ _____ _____    ______ ____
ROOT
ATOM      1  C   UNL     1      -0.472  -1.851   0.960  0.00  0.00    +0.256 C 
ATOM      2  O   UNL     1       0.553  -2.470   0.766  0.00  0.00    -0.272 OA
ATOM      3  N   UNL     1      -0.741  -1.359   2.185  0.00  0.00    -0.297 N 
ATOM      4  C   UNL     1      -1.933  -0.590   2.613  0.00  0.00    +0.121 C 
ATOM      5  C   UNL     1      -2.257  -1.126   4.026  0.00  0.00    +0.100 C 
ATOM      6  C   UNL     1      -0.926  -1.697   4.543  0.00  0.00    -0.004 C 
ATOM      7  C   UNL     1       0.086  -1.470   3.411  0.00  0.00    +0.115 C 
ATOM      8  C   UNL     1      -1.066  -3.189   4.827  0.00  0.00    -0.010 C 
ATOM      9  C   UNL     1       0.253  -3.722   5.394  0.00  0.00    -0.082 C 
ATOM     10  N   UNL     1       0.585  -2.999   6.627  0.00  0.00    +0.379 N 
ATOM     11  C   UNL     1       0.809  -1.579   6.330  0.00  0.00    -0.082 C 
ATOM     12  C   UNL     1      -0.486  -0.955   5.802  0.00  0.00    -0.010 C 
ATOM     13  H   UNL     1      -0.176  -3.088   7.283  0.00  0.00    -0.086 HD
ATOM     14  H   UNL     1       1.421  -3.392   7.031  0.00  0.00    -0.086 HD
ENDROOT
BRANCH   5  15
ATOM     15  C   UNL     1      -2.732  -0.006   4.916  0.00  0.00    +0.218 C 
ATOM     16  O   UNL     1      -2.370   1.132   4.704  0.00  0.00    -0.275 OA
ATOM     17  N   UNL     1      -3.558  -0.270   5.947  0.00  0.00    -0.316 N 
ATOM     18  H   UNL     1      -3.848  -1.180   6.116  0.00  0.00    +0.149 HD
BRANCH  17  19
ATOM     19  C   UNL     1      -4.020   0.819   6.812  0.00  0.00    +0.093 C 
BRANCH  19  20
ATOM     20  C   UNL     1      -4.833   0.239   7.971  0.00  0.00    -0.019 C 
BRANCH  20  21
ATOM     21  C   UNL     1      -3.940  -0.613   8.835  0.00  0.00    -0.041 A 
ATOM     22  C   UNL     1      -3.944  -1.994   8.702  0.00  0.00    +0.005 A 
ATOM     23  C   UNL     1      -3.106  -2.737   9.518  0.00  0.00    +0.020 A 
ATOM     24  C   UNL     1      -2.299  -2.083  10.431  0.00  0.00    +0.111 A 
ATOM     25  N   UNL     1      -2.322  -0.768  10.530  0.00  0.00    -0.263 NA
ATOM     26  C   UNL     1      -3.103  -0.029   9.766  0.00  0.00    +0.112 A 
ENDBRANCH  20  21
BRANCH  20  27
ATOM     27  N   UNL     1      -5.391   1.335   8.775  0.00  0.00    +0.385 N 
ATOM     28  C   UNL     1      -6.361   2.119   7.968  0.00  0.00    -0.078 C 
ATOM     29  C   UNL     1      -7.236   2.814   9.043  0.00  0.00    -0.020 C 
ATOM     30  C   UNL     1      -7.359   1.732  10.140  0.00  0.00    -0.020 C 
ATOM     31  C   UNL     1      -6.161   0.791   9.915  0.00  0.00    -0.078 C 
ATOM     32  H   UNL     1      -4.651   1.934   9.109  0.00  0.00    -0.081 HD
ENDBRANCH  20  27
ENDBRANCH  19  20
ENDBRANCH  17  19
ENDBRANCH   5  15
BRANCH   1  34
ATOM     33  C   UNL     1      -1.529  -0.138  -0.489  0.00  0.00    +0.062 C 
ATOM     34  C   UNL     1      -1.445  -1.633  -0.171  0.00  0.00    +0.256 C 
BRANCH  34  35
ATOM     35  O   UNL     1      -0.997  -2.342  -1.328  0.00  0.00    -0.480 OA
BRANCH  35  36
ATOM     36  C   UNL     1      -1.942  -2.691  -2.240  0.00  0.00    +0.122 A 
ATOM     37  C   UNL     1      -1.597  -3.475  -3.332  0.00  0.00    +0.045 A 
ATOM     38  C   UNL     1      -2.559  -3.829  -4.258  0.00  0.00    +0.004 A 
ATOM     39  C   UNL     1      -3.864  -3.403  -4.098  0.00  0.00    +0.000 A 
ATOM     40  C   UNL     1      -4.211  -2.622  -3.011  0.00  0.00    +0.004 A 
ATOM     41  C   UNL     1      -3.254  -2.270  -2.079  0.00  0.00    +0.045 A 
ENDBRANCH  35  36
ENDBRANCH  34  35
ENDBRANCH   1  34
TORSDOF 8
