REMARK  Name = ZINC39916350
REMARK  2 active torsions:
REMARK  status: ('A' for Active; 'I' for Inactive)
REMARK    1  A    between atoms: C_1  and  C_2
REMARK    2  A    between atoms: C_5  and  C_8
REMARK                            x       y       z     vdW  Elec       q    Type
REMARK                         _______ _______ _______ _____ _____    ______ ____
ROOT
ATOM      1  C   UNL     1       0.059  -4.275  -0.021  0.00  0.00    +0.156 C 
ATOM      2  C   UNL     1      -1.347  -4.806   0.238  0.00  0.00    +0.149 C 
ATOM      3  C   UNL     1      -1.215  -6.302   0.428  0.00  0.00    +0.034 C 
ATOM      4  C   UNL     1      -2.117  -7.116  -0.254  0.00  0.00    +0.014 A 
ATOM      5  C   UNL     1      -2.137  -8.510  -0.063  0.00  0.00    +0.011 A 
ATOM      6  C   UNL     1      -3.064  -9.265  -0.715  0.00  0.00    +0.001 A 
ATOM      7  C   UNL     1      -3.990  -8.686  -1.577  0.00  0.00    +0.002 A 
ATOM      8  C   UNL     1      -4.005  -7.345  -1.818  0.00  0.00    +0.024 A 
ATOM      9  C   UNL     1      -3.072  -6.507  -1.186  0.00  0.00    +0.042 A 
ATOM     10  N   UNL     1      -3.059  -5.194  -1.459  0.00  0.00    -0.284 N 
ATOM     11  C   UNL     1      -2.277  -4.308  -0.838  0.00  0.00    +0.228 C 
ATOM     12  O   UNL     1      -2.299  -3.128  -1.135  0.00  0.00    -0.275 OA
ATOM     13  N   UNL     1      -0.213  -6.783   1.176  0.00  0.00    -0.289 N 
ATOM     14  C   UNL     1       0.798  -5.928   1.577  0.00  0.00    +0.186 C 
ATOM     15  N   UNL     1       0.955  -4.760   1.032  0.00  0.00    -0.246 NA
ATOM     16  N   UNL     1       1.659  -6.325   2.577  0.00  0.00    -0.266 N 
ATOM     17  C   UNL     1       2.675  -5.483   2.990  0.00  0.00    +0.165 A 
ATOM     18  N   UNL     1       2.973  -4.278   2.560  0.00  0.00    -0.225 NA
ATOM     19  C   UNL     1       4.003  -3.563   3.061  0.00  0.00    +0.080 A 
ATOM     20  C   UNL     1       4.428  -2.266   2.689  0.00  0.00    +0.029 A 
ATOM     21  C   UNL     1       5.504  -1.679   3.302  0.00  0.00    +0.002 A 
ATOM     22  C   UNL     1       6.212  -2.329   4.303  0.00  0.00    +0.001 A 
ATOM     23  C   UNL     1       5.824  -3.598   4.691  0.00  0.00    +0.017 A 
ATOM     24  C   UNL     1       4.748  -4.194   4.083  0.00  0.00    +0.041 A 
ATOM     25  S   UNL     1       3.913  -5.753   4.252  0.00  0.00    -0.052 S 
ATOM     26  H   UNL     1      -0.196  -7.718   1.432  0.00  0.00    +0.155 HD
ATOM     27  H   UNL     1       1.552  -7.196   2.991  0.00  0.00    +0.157 HD
ATOM     28  H   UNL     1      -3.662  -4.864  -2.144  0.00  0.00    +0.155 HD
ENDROOT
BRANCH   1  33
ATOM     29  C   UNL     1      -0.018   1.503   0.010  0.00  0.00    +0.044 C 
ATOM     30  C   UNL     1       0.002  -0.004   0.002  0.00  0.00    -0.050 A 
ATOM     31  C   UNL     1       0.006  -0.689  -1.199  0.00  0.00    +0.004 A 
ATOM     32  C   UNL     1       0.025  -2.071  -1.206  0.00  0.00    +0.006 A 
ATOM     33  C   UNL     1       0.040  -2.768  -0.013  0.00  0.00    -0.022 A 
ATOM     34  C   UNL     1       0.037  -2.084   1.188  0.00  0.00    +0.006 A 
ATOM     35  C   UNL     1       0.023  -0.702   1.195  0.00  0.00    +0.004 A 
ENDBRANCH   1  33
TORSDOF 1
