REMARK  Name = ZINC36597468
REMARK  15 active torsions:
REMARK  status: ('A' for Active; 'I' for Inactive)
REMARK    1  A    between atoms: C_1  and  C_2
REMARK    2  A    between atoms: C_5  and  C_7
REMARK    3  A    between atoms: C_7  and  N_8
REMARK    4  A    between atoms: N_8  and  C_9
REMARK    5  A    between atoms: C_9  and  C_11
REMARK    6  A    between atoms: C_9  and  C_24
REMARK    7  A    between atoms: C_11  and  C_12
REMARK    8  A    between atoms: C_11  and  C_18
REMARK    9  A    between atoms: N_26  and  C_27
REMARK   10  A    between atoms: C_27  and  C_28
REMARK   11  A    between atoms: C_27  and  C_29
REMARK   12  A    between atoms: C_27  and  C_30
REMARK   13  A    between atoms: C_31  and  C_33
REMARK   14  A    between atoms: C_34  and  O_40
REMARK   15  A    between atoms: C_38  and  O_39
REMARK                            x       y       z     vdW  Elec       q    Type
REMARK                         _______ _______ _______ _____ _____    ______ ____
ROOT
ATOM      1  C   UNL     1       2.609  -2.912  -1.602  0.00  0.00    +0.174 C 
ENDROOT
BRANCH   1   2
ATOM      2  C   UNL     1       3.798  -3.509  -0.893  0.00  0.00    +0.235 C 
ATOM      3  O   UNL     1       3.647  -4.085   0.163  0.00  0.00    -0.274 OA
ATOM      4  N   UNL     1       5.028  -3.402  -1.434  0.00  0.00    -0.309 N 
ATOM      5  H   UNL     1       5.148  -2.941  -2.279  0.00  0.00    +0.149 HD
BRANCH   4   6
ATOM      6  C   UNL     1       6.184  -3.982  -0.745  0.00  0.00    +0.026 C 
ATOM      7  C   UNL     1       5.979  -5.490  -0.587  0.00  0.00    +0.031 C 
ATOM      8  C   UNL     1       7.449  -3.721  -1.564  0.00  0.00    +0.031 C 
ATOM      9  C   UNL     1       6.329  -3.340   0.636  0.00  0.00    +0.031 C 
ENDBRANCH   4   6
ENDBRANCH   1   2
BRANCH   1  10
ATOM     10  N   UNL     1       1.397  -3.162  -0.817  0.00  0.00    -0.278 N 
ATOM     11  C   UNL     1       1.298  -2.685   0.439  0.00  0.00    +0.255 C 
ATOM     12  O   UNL     1       2.215  -2.048   0.922  0.00  0.00    -0.270 OA
BRANCH  11  13
ATOM     13  C   UNL     1       0.080  -2.935   1.228  0.00  0.00    +0.119 A 
ATOM     14  C   UNL     1      -0.015  -4.077   2.037  0.00  0.00    +0.133 A 
ATOM     15  C   UNL     1      -1.165  -4.302   2.776  0.00  0.00    +0.046 A 
ATOM     16  C   UNL     1      -2.217  -3.407   2.716  0.00  0.00    +0.007 A 
ATOM     17  C   UNL     1      -2.134  -2.279   1.921  0.00  0.00    +0.046 A 
ATOM     18  C   UNL     1      -0.991  -2.031   1.179  0.00  0.00    +0.133 A 
BRANCH  18  19
ATOM     19  O   UNL     1      -0.909  -0.920   0.405  0.00  0.00    -0.506 OA
ATOM     20  H   UNL     1      -1.233  -1.046  -0.498  0.00  0.00    +0.292 HD
ENDBRANCH  18  19
BRANCH  14  21
ATOM     21  O   UNL     1       1.016  -4.957   2.097  0.00  0.00    -0.506 OA
ATOM     22  H   UNL     1       1.661  -4.761   2.791  0.00  0.00    +0.292 HD
ENDBRANCH  14  21
ENDBRANCH  11  13
BRANCH  10  23
ATOM     23  C   UNL     1       0.293  -3.929  -1.399  0.00  0.00    +0.183 C 
BRANCH  23  28
ATOM     24  C   UNL     1       2.076  -8.584  -2.167  0.00  0.00    +0.086 C 
ATOM     25  C   UNL     1       1.331  -7.426  -1.554  0.00  0.00    +0.102 A 
ATOM     26  C   UNL     1       0.558  -7.481  -0.454  0.00  0.00    +0.045 A 
ATOM     27  C   UNL     1       0.059  -6.176  -0.239  0.00  0.00    +0.046 A 
ATOM     28  C   UNL     1       0.556  -5.402  -1.220  0.00  0.00    +0.122 A 
ATOM     29  O   UNL     1       1.330  -6.163  -2.010  0.00  0.00    -0.463 OA
ENDBRANCH  23  28
ENDBRANCH  10  23
ENDBRANCH   1  10
BRANCH   1  30
ATOM     30  C   UNL     1       2.813  -1.404  -1.760  0.00  0.00    +0.078 C 
BRANCH  30  31
ATOM     31  C   UNL     1       3.963  -1.149  -2.700  0.00  0.00    -0.038 A 
ATOM     32  C   UNL     1       3.966  -1.718  -3.959  0.00  0.00    +0.004 A 
ATOM     33  C   UNL     1       5.021  -1.484  -4.822  0.00  0.00    +0.000 A 
ATOM     34  C   UNL     1       6.073  -0.680  -4.424  0.00  0.00    +0.000 A 
ATOM     35  C   UNL     1       6.070  -0.110  -3.165  0.00  0.00    +0.000 A 
ATOM     36  C   UNL     1       5.013  -0.341  -2.304  0.00  0.00    +0.004 A 
ENDBRANCH  30  31
BRANCH  30  37
ATOM     37  C   UNL     1       1.560  -0.783  -2.319  0.00  0.00    -0.038 A 
ATOM     38  C   UNL     1       0.997   0.317  -1.700  0.00  0.00    +0.004 A 
ATOM     39  C   UNL     1      -0.153   0.886  -2.213  0.00  0.00    +0.000 A 
ATOM     40  C   UNL     1      -0.740   0.356  -3.346  0.00  0.00    +0.000 A 
ATOM     41  C   UNL     1      -0.177  -0.743  -3.967  0.00  0.00    +0.000 A 
ATOM     42  C   UNL     1       0.975  -1.310  -3.456  0.00  0.00    +0.004 A 
ENDBRANCH  30  37
ENDBRANCH   1  30
TORSDOF 11
