REMARK  Name = ZINC13063738
REMARK  12 active torsions:
REMARK  status: ('A' for Active; 'I' for Inactive)
REMARK    1  A    between atoms: C_1  and  C_2
REMARK    2  A    between atoms: C_2  and  C_3
REMARK    3  A    between atoms: C_10  and  C_15
REMARK    4  A    between atoms: C_15  and  N_66
REMARK    5  A    between atoms: C_16  and  C_17
REMARK    6  A    between atoms: C_16  and  N_66
REMARK    7  A    between atoms: C_22  and  C_24
REMARK    8  A    between atoms: C_22  and  C_26
REMARK    9  A    between atoms: C_22  and  N_66
REMARK   10  A    between atoms: C_24  and  C_25
REMARK   11  A    between atoms: N_30  and  C_31
REMARK   12  A    between atoms: C_31  and  C_32
REMARK                            x       y       z     vdW  Elec       q    Type
REMARK                         _______ _______ _______ _____ _____    ______ ____
ROOT
ATOM      1  N   UNL     1      -0.366  -2.077  -0.841  0.00  0.00    +0.392 N 
ATOM      2  H   UNL     1       0.489  -2.634  -0.728  0.00  0.00    -0.080 HD
ENDROOT
BRANCH   1   3
ATOM      3  C   UNL     1      -1.505  -2.989  -1.081  0.00  0.00    -0.036 C 
BRANCH   3  11
ATOM      4  C   UNL     1       0.646  -8.337  -3.332  0.00  0.00    -0.047 A 
ATOM      5  C   UNL     1       0.506  -8.008  -4.674  0.00  0.00    +0.005 A 
ATOM      6  C   UNL     1       0.008  -6.779  -5.049  0.00  0.00    +0.026 A 
ATOM      7  C   UNL     1      -0.360  -5.857  -4.075  0.00  0.00    +0.049 A 
ATOM      8  C   UNL     1      -0.217  -6.193  -2.716  0.00  0.00    -0.001 A 
ATOM      9  C   UNL     1       0.291  -7.447  -2.358  0.00  0.00    +0.013 A 
ATOM     10  C   UNL     1      -0.607  -5.216  -1.698  0.00  0.00    +0.017 A 
ATOM     11  C   UNL     1      -1.094  -4.017  -2.103  0.00  0.00    +0.001 A 
ATOM     12  C   UNL     1      -1.222  -3.732  -3.480  0.00  0.00    +0.251 A 
ATOM     13  O   UNL     1      -1.667  -2.650  -3.823  0.00  0.00    -0.268 OA
ATOM     14  N   UNL     1      -0.862  -4.621  -4.422  0.00  0.00    -0.322 N 
ATOM     15  H   UNL     1      -0.960  -4.390  -5.359  0.00  0.00    +0.169 HD
BRANCH   4  17
ATOM     16  C   UNL     1       0.041 -10.684  -2.809  0.00  0.00    +0.009 C 
ATOM     17  C   UNL     1       1.193  -9.687  -2.947  0.00  0.00    +0.032 C 
ENDBRANCH   4  17
ENDBRANCH   3  11
ENDBRANCH   1   3
BRANCH   1  18
ATOM     18  C   UNL     1      -0.197  -1.166  -1.993  0.00  0.00    -0.034 C 
BRANCH  18  19
ATOM     19  C   UNL     1       1.073  -0.377  -1.806  0.00  0.00    -0.027 A 
ATOM     20  C   UNL     1       2.336  -0.688  -2.188  0.00  0.00    +0.009 A 
ATOM     21  C   UNL     1       3.358   0.199  -1.908  0.00  0.00    +0.008 A 
ATOM     22  C   UNL     1       3.068   1.354  -1.260  0.00  0.00    +0.045 A 
ATOM     23  S   UNL     1       1.303   1.215  -1.031  0.00  0.00    -0.103 S 
ENDBRANCH  18  19
ENDBRANCH   1  18
BRANCH   1  24
ATOM     24  C   UNL     1      -0.597  -1.296   0.392  0.00  0.00    +0.003 C 
BRANCH  24  25
ATOM     25  C   UNL     1      -0.167  -2.125   1.575  0.00  0.00    +0.138 A 
ATOM     26  N   UNL     1      -0.481  -3.375   1.809  0.00  0.00    -0.115 NA
ATOM     27  N   UNL     1       0.078  -3.725   2.916  0.00  0.00    -0.023 NA
ATOM     28  N   UNL     1       0.740  -2.730   3.394  0.00  0.00    -0.044 NA
ATOM     29  N   UNL     1       0.614  -1.724   2.595  0.00  0.00    -0.226 N 
BRANCH  29  30
ATOM     30  C   UNL     1       1.213  -0.398   2.764  0.00  0.00    +0.182 C 
BRANCH  30  31
ATOM     31  C   UNL     1       0.267   0.486   3.535  0.00  0.00    -0.026 A 
ATOM     32  C   UNL     1      -0.665   1.253   2.861  0.00  0.00    +0.008 A 
ATOM     33  C   UNL     1      -1.536   2.061   3.566  0.00  0.00    +0.038 A 
ATOM     34  C   UNL     1      -1.469   2.110   4.948  0.00  0.00    +0.123 A 
ATOM     35  C   UNL     1      -0.532   1.345   5.622  0.00  0.00    +0.038 A 
ATOM     36  C   UNL     1       0.335   0.534   4.915  0.00  0.00    +0.008 A 
ATOM     37  F   UNL     1      -2.318   2.902   5.639  0.00  0.00    -0.205 F 
ENDBRANCH  30  31
ENDBRANCH  29  30
ENDBRANCH  24  25
BRANCH  24  38
ATOM     38  C   UNL     1      -2.078  -0.940   0.530  0.00  0.00    -0.011 C 
ATOM     39  C   UNL     1      -2.485   0.002  -0.605  0.00  0.00    +0.002 C 
ENDBRANCH  24  38
ENDBRANCH   1  24
TORSDOF 10
