REMARK  Name = ZINC63896811
REMARK  10 active torsions:
REMARK  status: ('A' for Active; 'I' for Inactive)
REMARK    1  A    between atoms: C_1  and  O_2
REMARK    2  A    between atoms: O_2  and  C_3
REMARK    3  A    between atoms: C_6  and  C_9
REMARK    4  A    between atoms: C_14  and  N_18
REMARK    5  A    between atoms: N_18  and  C_19
REMARK    6  A    between atoms: C_19  and  C_20
REMARK    7  A    between atoms: C_20  and  C_22
REMARK    8  A    between atoms: C_20  and  C_30
REMARK    9  A    between atoms: C_25  and  O_28
REMARK   10  A    between atoms: O_28  and  C_29
REMARK                            x       y       z     vdW  Elec       q    Type
REMARK                         _______ _______ _______ _____ _____    ______ ____
ROOT
ATOM      1  C   UNL     1      -1.791  -4.444   3.675  0.00  0.00    +0.115 C 
ENDROOT
BRANCH   1   2
ATOM      2  N   UNL     1      -0.334  -4.332   3.780  0.00  0.00    -0.328 N 
ATOM      3  H   UNL     1       0.065  -3.527   4.146  0.00  0.00    +0.147 HD
BRANCH   2   9
ATOM      4  C   UNL     1       2.701  -4.053   3.635  0.00  0.00    +0.002 A 
ATOM      5  C   UNL     1       4.045  -4.145   3.503  0.00  0.00    +0.056 A 
ATOM      6  S   UNL     1       4.293  -5.807   2.908  0.00  0.00    -0.076 S 
ATOM      7  C   UNL     1       2.602  -6.339   2.851  0.00  0.00    +0.114 A 
ATOM      8  C   UNL     1       1.882  -5.213   3.301  0.00  0.00    +0.055 A 
ATOM      9  C   UNL     1       0.472  -5.373   3.357  0.00  0.00    +0.131 A 
ATOM     10  N   UNL     1      -0.061  -6.531   3.000  0.00  0.00    -0.220 NA
ATOM     11  C   UNL     1       0.676  -7.548   2.591  0.00  0.00    +0.224 A 
ATOM     12  N   UNL     1       1.989  -7.456   2.509  0.00  0.00    -0.228 NA
BRANCH   4  16
ATOM     13  C   UNL     1       0.903  -0.456   5.018  0.00  0.00    +0.120 A 
ATOM     14  C   UNL     1       1.711  -1.198   5.869  0.00  0.00    +0.046 A 
ATOM     15  C   UNL     1       2.296  -2.365   5.424  0.00  0.00    +0.012 A 
ATOM     16  C   UNL     1       2.074  -2.799   4.118  0.00  0.00    -0.016 A 
ATOM     17  C   UNL     1       1.262  -2.052   3.266  0.00  0.00    +0.012 A 
ATOM     18  C   UNL     1       0.676  -0.888   3.719  0.00  0.00    +0.046 A 
BRANCH  13  20
ATOM     19  C   UNL     1       0.507   1.020   6.840  0.00  0.00    +0.277 C 
ATOM     20  O   UNL     1       0.328   0.694   5.460  0.00  0.00    -0.495 OA
ENDBRANCH  13  20
ENDBRANCH   4  16
ENDBRANCH   2   9
ENDBRANCH   1   2
BRANCH   1  21
ATOM     21  C   UNL     1      -2.302  -3.474   2.608  0.00  0.00    +0.064 C 
BRANCH  21  22
ATOM     22  C   UNL     1      -1.729  -3.854   1.268  0.00  0.00    -0.033 C 
ATOM     23  C   UNL     1      -1.061  -3.049   0.411  0.00  0.00    -0.000 A 
ATOM     24  C   UNL     1      -0.684  -1.632   0.468  0.00  0.00    +0.010 A 
ATOM     25  C   UNL     1      -0.002  -1.092  -0.568  0.00  0.00    +0.001 A 
ATOM     26  C   UNL     1       0.353  -1.851  -1.692  0.00  0.00    +0.002 A 
ATOM     27  C   UNL     1       0.042  -3.158  -1.817  0.00  0.00    +0.026 A 
ATOM     28  C   UNL     1      -0.674  -3.828  -0.787  0.00  0.00    +0.043 A 
ATOM     29  N   UNL     1      -1.088  -5.067  -0.675  0.00  0.00    -0.380 N 
ATOM     30  C   UNL     1      -1.778  -5.216   0.611  0.00  0.00    +0.145 C 
ATOM     31  H   UNL     1      -0.955  -5.770  -1.331  0.00  0.00    +0.160 HD
ENDBRANCH  21  22
BRANCH  21  32
ATOM     32  C   UNL     1      -3.807  -3.540   2.548  0.00  0.00    -0.038 A 
ATOM     33  C   UNL     1      -4.434  -4.736   2.248  0.00  0.00    +0.008 A 
ATOM     34  C   UNL     1      -5.812  -4.799   2.192  0.00  0.00    +0.046 A 
ATOM     35  C   UNL     1      -6.568  -3.662   2.438  0.00  0.00    +0.120 A 
ATOM     36  C   UNL     1      -5.937  -2.464   2.739  0.00  0.00    +0.046 A 
ATOM     37  C   UNL     1      -4.558  -2.407   2.799  0.00  0.00    +0.008 A 
BRANCH  35  38
ATOM     38  O   UNL     1      -7.925  -3.721   2.383  0.00  0.00    -0.495 OA
ATOM     39  C   UNL     1      -8.639  -2.512   2.647  0.00  0.00    +0.277 C 
ENDBRANCH  35  38
ENDBRANCH  21  32
ENDBRANCH   1  21
TORSDOF 8
