REMARK  Name = ZINC09071618
REMARK  8 active torsions:
REMARK  status: ('A' for Active; 'I' for Inactive)
REMARK    1  A    between atoms: C_1  and  C_2
REMARK    2  A    between atoms: C_2  and  N_3
REMARK    3  A    between atoms: C_4  and  C_25
REMARK    4  A    between atoms: C_7  and  S_8
REMARK    5  A    between atoms: S_8  and  C_9
REMARK    6  A    between atoms: C_9  and  C_10
REMARK    7  A    between atoms: N_16  and  C_17
REMARK    8  A    between atoms: C_22  and  C_23
REMARK                            x       y       z     vdW  Elec       q    Type
REMARK                         _______ _______ _______ _____ _____    ______ ____
ROOT
ATOM      1  C   UNL     1      -4.643  -1.885   2.537  0.00  0.00    +0.146 A 
ATOM      2  N   UNL     1      -4.523  -2.802   3.481  0.00  0.00    -0.199 NA
ATOM      3  C   UNL     1      -5.353  -3.842   3.509  0.00  0.00    +0.217 A 
ATOM      4  N   UNL     1      -6.302  -3.958   2.586  0.00  0.00    -0.181 NA
ATOM      5  C   UNL     1      -6.418  -3.034   1.639  0.00  0.00    +0.224 A 
ATOM      6  N   UNL     1      -5.588  -1.994   1.621  0.00  0.00    -0.198 NA
ATOM      7  N   UNL     1      -7.403  -3.150   0.677  0.00  0.00    -0.283 N 
ATOM      8  N   UNL     1      -5.227  -4.800   4.495  0.00  0.00    -0.327 N 
ATOM      9  H   UNL     1      -7.542  -2.435   0.037  0.00  0.00    +0.155 HD
ATOM     10  H   UNL     1      -4.534  -4.715   5.168  0.00  0.00    +0.145 HD
ATOM     11  H   UNL     1      -5.832  -5.558   4.515  0.00  0.00    +0.145 HD
ENDROOT
BRANCH   7  12
ATOM     12  C   UNL     1      -8.199  -4.299   0.626  0.00  0.00    +0.036 A 
ATOM     13  C   UNL     1      -7.678  -5.524   1.022  0.00  0.00    +0.023 A 
ATOM     14  C   UNL     1      -8.468  -6.656   0.974  0.00  0.00    +0.002 A 
ATOM     15  C   UNL     1      -9.773  -6.572   0.524  0.00  0.00    +0.000 A 
ATOM     16  C   UNL     1     -10.292  -5.355   0.125  0.00  0.00    +0.005 A 
ATOM     17  C   UNL     1      -9.509  -4.218   0.174  0.00  0.00    -0.029 A 
ATOM     18  C   UNL     1     -10.076  -2.892  -0.262  0.00  0.00    +0.045 C 
ENDBRANCH   7  12
BRANCH   1  19
ATOM     19  C   UNL     1      -3.701  -0.708   2.509  0.00  0.00    +0.153 C 
BRANCH  19  20
ATOM     20  S   UNL     1      -2.252  -1.119   1.506  0.00  0.00    -0.078 S 
BRANCH  20  25
ATOM     21  N   UNL     1      -0.138   0.661   1.071  0.00  0.00    -0.302 N 
ATOM     22  C   UNL     1       0.172   1.945   1.456  0.00  0.00    +0.165 A 
ATOM     23  N   UNL     1      -0.820   2.375   2.201  0.00  0.00    -0.128 NA
ATOM     24  N   UNL     1      -1.713   1.458   2.313  0.00  0.00    -0.122 NA
ATOM     25  C   UNL     1      -1.348   0.388   1.642  0.00  0.00    +0.192 A 
BRANCH  22  26
ATOM     26  C   UNL     1       1.392   2.699   1.097  0.00  0.00    +0.019 A 
ATOM     27  C   UNL     1       1.774   3.812   1.848  0.00  0.00    +0.013 A 
ATOM     28  C   UNL     1       2.916   4.509   1.512  0.00  0.00    +0.021 A 
ATOM     29  C   UNL     1       3.677   4.113   0.425  0.00  0.00    +0.041 A 
ATOM     30  C   UNL     1       3.300   3.013  -0.327  0.00  0.00    +0.021 A 
ATOM     31  C   UNL     1       2.163   2.305   0.003  0.00  0.00    +0.013 A 
ATOM     32 CL   UNL     1       5.109   4.999   0.003  0.00  0.00    -0.084 Cl
ENDBRANCH  22  26
BRANCH  21  34
ATOM     33  C   UNL     1       0.223  -0.088  -1.229  0.00  0.00    +0.027 C 
ATOM     34  C   UNL     1       0.665  -0.229   0.229  0.00  0.00    +0.122 C 
ENDBRANCH  21  34
ENDBRANCH  20  25
ENDBRANCH  19  20
ENDBRANCH   1  19
TORSDOF 6
