REMARK  Name = ZINC21868685
REMARK  6 active torsions:
REMARK  status: ('A' for Active; 'I' for Inactive)
REMARK    1  A    between atoms: C_1  and  C_2
REMARK    2  A    between atoms: C_2  and  C_27
REMARK    3  A    between atoms: C_11  and  N_22
REMARK    4  A    between atoms: N_15  and  C_16
REMARK    5  A    between atoms: C_16  and  C_17
REMARK    6  A    between atoms: N_29  and  C_30
REMARK                            x       y       z     vdW  Elec       q    Type
REMARK                         _______ _______ _______ _____ _____    ______ ____
ROOT
ATOM      1  C   UNL     1       4.629  -0.046  -3.499  0.00  0.00    +0.043 C 
ATOM      2  C   UNL     1       5.265   1.234  -2.953  0.00  0.00    +0.129 C 
ATOM      3  C   UNL     1       5.748   0.977  -1.527  0.00  0.00    +0.157 C 
ATOM      4  N   UNL     1       4.586   0.893  -0.632  0.00  0.00    -0.332 N 
ATOM      5  C   UNL     1       4.431   0.195   0.520  0.00  0.00    +0.052 A 
ATOM      6  C   UNL     1       5.285  -0.668   1.210  0.00  0.00    +0.026 A 
ATOM      7  C   UNL     1       4.807  -1.220   2.384  0.00  0.00    +0.002 A 
ATOM      8  C   UNL     1       3.540  -0.942   2.872  0.00  0.00    +0.001 A 
ATOM      9  C   UNL     1       2.676  -0.101   2.217  0.00  0.00    +0.012 A 
ATOM     10  C   UNL     1       3.135   0.477   1.028  0.00  0.00    +0.024 A 
ATOM     11  C   UNL     1       2.504   1.386   0.084  0.00  0.00    +0.084 A 
ATOM     12  C   UNL     1       3.410   1.608  -0.902  0.00  0.00    +0.130 A 
ATOM     13  C   UNL     1       3.306   2.450  -2.101  0.00  0.00    +0.266 C 
ATOM     14  O   UNL     1       2.386   3.231  -2.256  0.00  0.00    -0.268 OA
ATOM     15  N   UNL     1       4.285   2.312  -3.025  0.00  0.00    -0.273 N 
ENDROOT
BRANCH  11  16
ATOM     16  N   UNL     1       1.221   1.929   0.177  0.00  0.00    -0.321 N 
ATOM     17  C   UNL     1       0.052   1.225   0.118  0.00  0.00    +0.091 A 
ATOM     18  C   UNL     1      -0.970   2.096   0.240  0.00  0.00    +0.019 A 
ATOM     19  C   UNL     1      -0.415   3.383   0.388  0.00  0.00    +0.019 A 
ATOM     20  C   UNL     1       0.927   3.253   0.343  0.00  0.00    +0.091 A 
ENDBRANCH  11  16
BRANCH   2  21
ATOM     21  C   UNL     1       6.450   1.594  -3.812  0.00  0.00    +0.238 C 
ATOM     22  O   UNL     1       6.889   0.790  -4.606  0.00  0.00    -0.273 OA
ATOM     23  N   UNL     1       7.021   2.809  -3.697  0.00  0.00    -0.311 N 
ATOM     24  H   UNL     1       6.677   3.507  -2.920  0.00  0.00    +0.149 HD
BRANCH  23  25
ATOM     25  C   UNL     1       8.100   3.200  -4.607  0.00  0.00    +0.073 C 
ATOM     26  C   UNL     1       9.461   2.747  -4.039  0.00  0.00    +0.022 C 
ATOM     27  C   UNL     1      10.431   3.894  -4.416  0.00  0.00    +0.002 C 
ATOM     28  C   UNL     1       9.557   5.158  -4.223  0.00  0.00    +0.002 C 
ATOM     29  C   UNL     1       8.161   4.733  -4.724  0.00  0.00    +0.022 C 
ENDBRANCH  23  25
ENDBRANCH   2  21
BRANCH  15  30
ATOM     30  C   UNL     1       4.364   3.273  -4.127  0.00  0.00    +0.183 C 
BRANCH  30  31
ATOM     31  C   UNL     1       3.434   2.847  -5.233  0.00  0.00    +0.122 A 
ATOM     32  C   UNL     1       2.144   3.207  -5.359  0.00  0.00    +0.046 A 
ATOM     33  C   UNL     1       1.656   2.583  -6.530  0.00  0.00    +0.041 A 
ATOM     34  C   UNL     1       2.678   1.878  -7.050  0.00  0.00    +0.195 A 
ATOM     35  O   UNL     1       3.753   2.046  -6.263  0.00  0.00    -0.466 OA
ENDBRANCH  30  31
ENDBRANCH  15  30
TORSDOF 5
