REMARK  Name = ZINC52002198
REMARK  3 active torsions:
REMARK  status: ('A' for Active; 'I' for Inactive)
REMARK    1  A    between atoms: C_11  and  N_13
REMARK    2  A    between atoms: N_13  and  C_14
REMARK    3  A    between atoms: C_20  and  O_22
REMARK                            x       y       z     vdW  Elec       q    Type
REMARK                         _______ _______ _______ _____ _____    ______ ____
ROOT
ATOM      1  C   UNL     1       4.269   3.949   3.053  0.00  0.00    +0.001 A 
ATOM      2  C   UNL     1       4.649   3.358   1.861  0.00  0.00    +0.004 A 
ATOM      3  C   UNL     1       3.773   2.531   1.195  0.00  0.00    -0.030 A 
ATOM      4  C   UNL     1       2.505   2.279   1.704  0.00  0.00    +0.049 A 
ATOM      5  C   UNL     1       2.130   2.878   2.906  0.00  0.00    +0.039 A 
ATOM      6  C   UNL     1       3.010   3.707   3.571  0.00  0.00    +0.017 A 
ATOM      7 BR   UNL     1       0.411   2.555   3.625  0.00  0.00    -0.048 Br
ATOM      8  N   UNL     1       1.807   1.417   0.857  0.00  0.00    -0.285 N 
ATOM      9  C   UNL     1       2.533   1.060  -0.216  0.00  0.00    +0.208 C 
ATOM     10  O   UNL     1       2.179   0.324  -1.113  0.00  0.00    -0.277 OA
ATOM     11  C   UNL     1       3.875   1.750  -0.095  0.00  0.00    +0.049 C 
ATOM     12  H   UNL     1       0.902   1.111   1.024  0.00  0.00    +0.155 HD
ENDROOT
BRANCH  11  13
ATOM     13  N   UNL     1       4.091   2.657  -1.230  0.00  0.00    +0.393 N 
ATOM     14  H   UNL     1       4.048   2.134  -2.092  0.00  0.00    -0.084 HD
ATOM     15  H   UNL     1       3.376   3.369  -1.232  0.00  0.00    -0.084 HD
BRANCH  13  16
ATOM     16  C   UNL     1       5.412   3.289  -1.107  0.00  0.00    -0.041 C 
ATOM     17  C   UNL     1       6.500   2.218  -1.199  0.00  0.00    -0.013 C 
ATOM     18  C   UNL     1       7.875   2.877  -1.071  0.00  0.00    -0.001 C 
ATOM     19  C   UNL     1       8.062   3.892  -2.201  0.00  0.00    +0.002 C 
ATOM     20  C   UNL     1       6.973   4.963  -2.108  0.00  0.00    +0.030 C 
ATOM     21  C   UNL     1       5.598   4.305  -2.237  0.00  0.00    +0.101 C 
BRANCH  21  22
ATOM     22  O   UNL     1       4.581   5.305  -2.151  0.00  0.00    -0.393 OA
ATOM     23  H   UNL     1       4.638   5.984  -2.837  0.00  0.00    +0.210 HD
ENDBRANCH  21  22
ENDBRANCH  13  16
ENDBRANCH  11  13
TORSDOF 3
