REMARK  Name = ZINC11847320
REMARK  12 active torsions:
REMARK  status: ('A' for Active; 'I' for Inactive)
REMARK    1  A    between atoms: C_1  and  O_2
REMARK    2  A    between atoms: O_2  and  C_3
REMARK    3  A    between atoms: C_5  and  C_36
REMARK    4  A    between atoms: C_8  and  O_9
REMARK    5  A    between atoms: O_9  and  C_10
REMARK    6  A    between atoms: C_10  and  C_11
REMARK    7  A    between atoms: C_11  and  C_13
REMARK    8  A    between atoms: C_11  and  O_35
REMARK    9  A    between atoms: C_13  and  N_72
REMARK   10  A    between atoms: C_16  and  C_19
REMARK   11  A    between atoms: C_19  and  N_20
REMARK   12  A    between atoms: C_36  and  C_37
REMARK                            x       y       z     vdW  Elec       q    Type
REMARK                         _______ _______ _______ _____ _____    ______ ____
ROOT
ATOM      1  C   UNL     1      -0.832   3.562  -1.183  0.00  0.00    -0.078 C 
ATOM      2  C   UNL     1      -0.762   2.034  -1.228  0.00  0.00    -0.014 C 
ATOM      3  C   UNL     1      -0.019   1.526   0.010  0.00  0.00    +0.003 C 
ATOM      4  C   UNL     1      -0.738   2.021   1.268  0.00  0.00    -0.014 C 
ATOM      5  C   UNL     1      -0.810   3.549   1.240  0.00  0.00    -0.078 C 
ATOM      6  N   UNL     1      -1.558   3.973   0.038  0.00  0.00    +0.381 N 
ATOM      7  H   UNL     1      -2.481   3.523   0.043  0.00  0.00    -0.082 HD
ENDROOT
BRANCH   6   8
ATOM      8  C   UNL     1      -1.740   5.440   0.047  0.00  0.00    -0.044 C 
BRANCH   8   9
ATOM      9  C   UNL     1      -2.679   5.812   1.196  0.00  0.00    +0.135 C 
BRANCH   9  10
ATOM     10  O   UNL     1      -3.934   5.152   1.018  0.00  0.00    -0.390 OA
ATOM     11  H   UNL     1      -4.386   5.381   0.195  0.00  0.00    +0.210 HD
ENDBRANCH   9  10
BRANCH   9  12
ATOM     12  C   UNL     1      -2.896   7.327   1.206  0.00  0.00    +0.258 C 
BRANCH  12  13
ATOM     13  O   UNL     1      -3.678   7.689   2.346  0.00  0.00    -0.486 OA
BRANCH  13  19
ATOM     14  C   UNL     1      -4.725   9.431   3.591  0.00  0.00    +0.162 A 
ATOM     15  C   UNL     1      -5.009  10.778   3.752  0.00  0.00    +0.053 A 
ATOM     16  C   UNL     1      -4.545  11.697   2.829  0.00  0.00    -0.040 A 
ATOM     17  C   UNL     1      -3.793  11.276   1.748  0.00  0.00    +0.008 A 
ATOM     18  C   UNL     1      -3.502   9.935   1.585  0.00  0.00    +0.050 A 
ATOM     19  C   UNL     1      -3.964   9.008   2.506  0.00  0.00    +0.162 A 
BRANCH  14  21
ATOM     20  C   UNL     1      -5.961   9.030   5.583  0.00  0.00    +0.277 C 
ATOM     21  O   UNL     1      -5.186   8.525   4.494  0.00  0.00    -0.491 OA
ENDBRANCH  14  21
BRANCH  16  22
ATOM     22  C   UNL     1      -4.860  13.160   3.003  0.00  0.00    +0.061 C 
BRANCH  22  23
ATOM     23  C   UNL     1      -6.152  13.483   2.299  0.00  0.00    -0.030 C 
ATOM     24  C   UNL     1      -7.133  14.051   2.957  0.00  0.00    +0.004 C 
ENDBRANCH  22  23
ENDBRANCH  16  22
ENDBRANCH  13  19
ENDBRANCH  12  13
ENDBRANCH   9  12
ENDBRANCH   8   9
ENDBRANCH   6   8
BRANCH   3  25
ATOM     25  C   UNL     1       0.002  -0.004   0.002  0.00  0.00    +0.120 C 
BRANCH  25  26
ATOM     26  N   UNL     1       0.812  -0.488   1.123  0.00  0.00    -0.234 N 
ATOM     27  C   UNL     1       2.129  -0.690   0.932  0.00  0.00    +0.254 C 
ATOM     28  O   UNL     1       2.623  -0.470  -0.158  0.00  0.00    -0.270 OA
ATOM     29  C   UNL     1       2.975  -1.171   2.034  0.00  0.00    +0.046 A 
ATOM     30  C   UNL     1       4.337  -1.387   1.883  0.00  0.00    +0.014 A 
ATOM     31  C   UNL     1       5.094  -1.846   2.954  0.00  0.00    +0.001 A 
ATOM     32  C   UNL     1       4.532  -2.095   4.173  0.00  0.00    +0.008 A 
ATOM     33  C   UNL     1       3.155  -1.889   4.369  0.00  0.00    -0.016 A 
ATOM     34  C   UNL     1       2.376  -1.423   3.289  0.00  0.00    +0.006 A 
ATOM     35  C   UNL     1       0.989  -1.205   3.454  0.00  0.00    +0.046 A 
ATOM     36  C   UNL     1       0.410  -1.455   4.689  0.00  0.00    +0.014 A 
ATOM     37  C   UNL     1       1.189  -1.913   5.745  0.00  0.00    +0.001 A 
ATOM     38  C   UNL     1       2.529  -2.130   5.604  0.00  0.00    +0.008 A 
ATOM     39  C   UNL     1       0.210  -0.718   2.305  0.00  0.00    +0.254 C 
ATOM     40  O   UNL     1      -0.985  -0.524   2.424  0.00  0.00    -0.270 OA
ENDBRANCH  25  26
ENDBRANCH   3  25
TORSDOF 11
