REMARK  Name = ZINC39914940
REMARK  17 active torsions:
REMARK  status: ('A' for Active; 'I' for Inactive)
REMARK    1  A    between atoms: C_1  and  C_2
REMARK    2  A    between atoms: C_4  and  O_39
REMARK    3  A    between atoms: C_5  and  C_9
REMARK    4  A    between atoms: N_17  and  C_32
REMARK    5  A    between atoms: C_18  and  C_20
REMARK    6  A    between atoms: C_22  and  O_30
REMARK    7  A    between atoms: C_23  and  O_28
REMARK    8  A    between atoms: C_24  and  O_26
REMARK    9  A    between atoms: O_26  and  C_27
REMARK   10  A    between atoms: O_28  and  C_29
REMARK   11  A    between atoms: O_30  and  C_31
REMARK   12  A    between atoms: C_32  and  C_33
REMARK   13  A    between atoms: C_33  and  C_34
REMARK   14  A    between atoms: C_34  and  O_35
REMARK   15  A    between atoms: O_35  and  C_36
REMARK   16  A    between atoms: C_36  and  C_37
REMARK   17  A    between atoms: C_36  and  C_38
REMARK                            x       y       z     vdW  Elec       q    Type
REMARK                         _______ _______ _______ _____ _____    ______ ____
ROOT
ATOM      1  C   UNL     1      -0.139  -3.935   0.124  0.00  0.00    +0.102 A 
ATOM      2  C   UNL     1       0.068  -4.892   1.123  0.00  0.00    +0.035 A 
ATOM      3  C   UNL     1       0.058  -6.115   0.481  0.00  0.00    +0.126 A 
ATOM      4  N   UNL     1      -0.149  -5.847  -0.843  0.00  0.00    -0.272 N 
ATOM      5  H   UNL     1      -0.205  -6.515  -1.544  0.00  0.00    +0.189 HD
ATOM      6  N   UNL     1      -0.265  -4.579  -1.019  0.00  0.00    -0.173 NA
ATOM      7  C   UNL     1       0.271  -7.169   1.479  0.00  0.00    +0.265 C 
ATOM      8  O   UNL     1       0.316  -8.359   1.234  0.00  0.00    -0.268 OA
ATOM      9  N   UNL     1       0.410  -6.631   2.705  0.00  0.00    -0.285 N 
ATOM     10  C   UNL     1       0.295  -5.172   2.583  0.00  0.00    +0.141 C 
ENDROOT
BRANCH   1  15
ATOM     11  C   UNL     1      -0.416   1.773   0.876  0.00  0.00    +0.045 C 
ATOM     12  C   UNL     1      -0.343   0.281   0.677  0.00  0.00    -0.029 A 
ATOM     13  C   UNL     1      -0.368  -0.245  -0.602  0.00  0.00    +0.050 A 
ATOM     14  C   UNL     1      -0.302  -1.616  -0.790  0.00  0.00    +0.126 A 
ATOM     15  C   UNL     1      -0.209  -2.465   0.317  0.00  0.00    +0.045 A 
ATOM     16  C   UNL     1      -0.185  -1.926   1.600  0.00  0.00    +0.034 A 
ATOM     17  C   UNL     1      -0.246  -0.557   1.774  0.00  0.00    +0.045 A 
ATOM     18 CL   UNL     1      -0.208   0.115   3.375  0.00  0.00    -0.083 Cl
BRANCH  14  19
ATOM     19  O   UNL     1      -0.327  -2.133  -2.046  0.00  0.00    -0.506 OA
ATOM     20  H   UNL     1       0.547  -2.235  -2.447  0.00  0.00    +0.292 HD
ENDBRANCH  14  19
ENDBRANCH   1  15
BRANCH  10  21
ATOM     21  C   UNL     1       1.568  -4.511   3.046  0.00  0.00    -0.015 A 
ATOM     22  C   UNL     1       2.780  -4.894   2.503  0.00  0.00    +0.055 A 
ATOM     23  C   UNL     1       3.954  -4.289   2.927  0.00  0.00    +0.165 A 
ATOM     24  C   UNL     1       3.910  -3.296   3.899  0.00  0.00    +0.204 A 
ATOM     25  C   UNL     1       2.689  -2.914   4.442  0.00  0.00    +0.165 A 
ATOM     26  C   UNL     1       1.520  -3.521   4.009  0.00  0.00    +0.055 A 
BRANCH  25  27
ATOM     27  O   UNL     1       2.641  -1.943   5.393  0.00  0.00    -0.491 OA
ATOM     28  C   UNL     1       1.370  -1.683   5.991  0.00  0.00    +0.277 C 
ENDBRANCH  25  27
BRANCH  24  29
ATOM     29  O   UNL     1       5.060  -2.700   4.317  0.00  0.00    -0.488 OA
ATOM     30  C   UNL     1       5.481  -1.533   3.609  0.00  0.00    +0.277 C 
ENDBRANCH  24  29
BRANCH  23  31
ATOM     31  O   UNL     1       5.146  -4.667   2.393  0.00  0.00    -0.491 OA
ATOM     32  C   UNL     1       5.116  -5.693   1.399  0.00  0.00    +0.277 C 
ENDBRANCH  23  31
ENDBRANCH  10  21
BRANCH   9  33
ATOM     33  C   UNL     1       0.636  -7.374   3.947  0.00  0.00    +0.111 C 
BRANCH  33  34
ATOM     34  C   UNL     1       2.140  -7.537   4.177  0.00  0.00    +0.047 C 
BRANCH  34  35
ATOM     35  C   UNL     1       2.376  -8.313   5.474  0.00  0.00    +0.161 C 
BRANCH  35  36
ATOM     36  O   UNL     1       3.781  -8.466   5.689  0.00  0.00    -0.377 OA
BRANCH  36  37
ATOM     37  C   UNL     1       4.112  -9.181   6.881  0.00  0.00    +0.112 C 
ATOM     38  C   UNL     1       5.435  -9.923   6.679  0.00  0.00    +0.037 C 
ATOM     39  C   UNL     1       4.253  -8.196   8.044  0.00  0.00    +0.037 C 
ENDBRANCH  36  37
ENDBRANCH  35  36
ENDBRANCH  34  35
ENDBRANCH  33  34
ENDBRANCH   9  33
TORSDOF 11
