REMARK  Name = ZINC09001410
REMARK  8 active torsions:
REMARK  status: ('A' for Active; 'I' for Inactive)
REMARK    1  A    between atoms: C_2  and  C_3
REMARK    2  A    between atoms: C_3  and  N_4
REMARK    3  A    between atoms: C_8  and  S_29
REMARK    4  A    between atoms: N_13  and  C_14
REMARK    5  A    between atoms: C_14  and  C_16
REMARK    6  A    between atoms: C_16  and  C_17
REMARK    7  A    between atoms: C_16  and  C_23
REMARK    8  A    between atoms: S_29  and  N_32
REMARK                            x       y       z     vdW  Elec       q    Type
REMARK                         _______ _______ _______ _____ _____    ______ ____
ROOT
ATOM      1  N   UNL     1       0.684  -1.830  -0.147  0.00  0.00    -0.310 N 
ATOM      2  C   UNL     1       0.720  -0.449  -0.185  0.00  0.00    +0.059 A 
ATOM      3  C   UNL     1       1.843   0.393  -0.220  0.00  0.00    +0.029 A 
ATOM      4  C   UNL     1       1.697   1.759  -0.256  0.00  0.00    +0.030 A 
ATOM      5  C   UNL     1       0.443   2.347  -0.259  0.00  0.00    +0.106 A 
ATOM      6  C   UNL     1      -0.681   1.542  -0.224  0.00  0.00    +0.045 A 
ATOM      7  C   UNL     1      -0.536   0.175  -0.188  0.00  0.00    +0.041 A 
ATOM      8  S   UNL     1      -1.668  -1.191  -0.138  0.00  0.00    -0.052 S 
ATOM      9  C   UNL     1      -0.509  -2.480  -0.116  0.00  0.00    +0.167 A 
ATOM     10  N   UNL     1      -0.733  -3.792  -0.078  0.00  0.00    -0.156 NA
ENDROOT
BRANCH   5  11
ATOM     11  S   UNL     1       0.281   4.101  -0.305  0.00  0.00    +0.056 S 
ATOM     12  O   UNL     1       1.478   4.604  -0.883  0.00  0.00    -0.153 OA
ATOM     13  O   UNL     1      -1.002   4.377  -0.849  0.00  0.00    -0.153 OA
BRANCH  11  14
ATOM     14  N   UNL     1       0.254   4.632   1.264  0.00  0.00    -0.204 NA
ATOM     15  H   UNL     1       0.322   3.995   1.992  0.00  0.00    +0.144 HD
ATOM     16  H   UNL     1       0.169   5.579   1.454  0.00  0.00    +0.144 HD
ENDBRANCH  11  14
ENDBRANCH   5  11
BRANCH  10  17
ATOM     17  C   UNL     1      -1.979  -4.253  -0.052  0.00  0.00    +0.250 C 
ATOM     18  O   UNL     1      -2.915  -3.476  -0.062  0.00  0.00    -0.273 OA
BRANCH  17  19
ATOM     19  C   UNL     1      -2.233  -5.737  -0.009  0.00  0.00    +0.137 C 
BRANCH  19  20
ATOM     20  C   UNL     1      -3.719  -5.992   0.014  0.00  0.00    -0.031 A 
ATOM     21  C   UNL     1      -4.530  -5.437  -0.957  0.00  0.00    +0.005 A 
ATOM     22  C   UNL     1      -5.892  -5.675  -0.939  0.00  0.00    +0.000 A 
ATOM     23  C   UNL     1      -6.443  -6.460   0.057  0.00  0.00    +0.000 A 
ATOM     24  C   UNL     1      -5.632  -7.011   1.031  0.00  0.00    +0.000 A 
ATOM     25  C   UNL     1      -4.270  -6.777   1.010  0.00  0.00    +0.005 A 
ENDBRANCH  19  20
BRANCH  19  26
ATOM     26  C   UNL     1      -1.631  -6.385  -1.229  0.00  0.00    -0.031 A 
ATOM     27  C   UNL     1      -1.924  -5.895  -2.488  0.00  0.00    +0.005 A 
ATOM     28  C   UNL     1      -1.368  -6.486  -3.607  0.00  0.00    +0.000 A 
ATOM     29  C   UNL     1      -0.527  -7.574  -3.467  0.00  0.00    +0.000 A 
ATOM     30  C   UNL     1      -0.239  -8.069  -2.209  0.00  0.00    +0.000 A 
ATOM     31  C   UNL     1      -0.791  -7.474  -1.090  0.00  0.00    +0.005 A 
ENDBRANCH  19  26
ENDBRANCH  17  19
ENDBRANCH  10  17
BRANCH   1  32
ATOM     32  C   UNL     1       1.934  -2.594  -0.139  0.00  0.00    +0.212 C 
BRANCH  32  34
ATOM     33  C   UNL     1       2.659  -3.123  -2.628  0.00  0.00    +0.005 C 
ATOM     34  C   UNL     1       2.337  -2.889  -1.524  0.00  0.00    -0.084 C 
ENDBRANCH  32  34
ENDBRANCH   1  32
TORSDOF 8
