REMARK  Name = ZINC18200820
REMARK  4 active torsions:
REMARK  status: ('A' for Active; 'I' for Inactive)
REMARK    1  A    between atoms: C_1  and  C_2
REMARK    2  A    between atoms: C_5  and  C_7
REMARK    3  A    between atoms: N_13  and  C_16
REMARK    4  A    between atoms: C_28  and  C_31
REMARK                            x       y       z     vdW  Elec       q    Type
REMARK                         _______ _______ _______ _____ _____    ______ ____
ROOT
ATOM      1  C   UNL     1      -1.189   2.332   0.020  0.00  0.00    +0.099 C 
ATOM      2  C   UNL     1      -0.017   1.391   0.010  0.00  0.00    +0.070 A 
ATOM      3  C   UNL     1       1.282   1.834  -0.000  0.00  0.00    +0.125 A 
ATOM      4  N   UNL     1       2.101   0.748  -0.018  0.00  0.00    -0.277 N 
ATOM      5  H   UNL     1       3.071   0.764  -0.032  0.00  0.00    +0.189 HD
ATOM      6  N   UNL     1       1.294  -0.401  -0.015  0.00  0.00    -0.218 N 
ATOM      7  C   UNL     1       0.002  -0.004   0.002  0.00  0.00    +0.278 A 
ATOM      8  O   UNL     1      -0.973  -0.735   0.010  0.00  0.00    -0.265 OA
ATOM      9  N   UNL     1       1.581   3.175   0.012  0.00  0.00    -0.303 N 
ATOM     10  C   UNL     1       0.590   4.070   0.344  0.00  0.00    +0.017 C 
ATOM     11  C   UNL     1      -0.714   3.727   0.365  0.00  0.00    +0.025 C 
ATOM     12  C   UNL     1      -1.704   4.669   0.708  0.00  0.00    +0.162 C 
ATOM     13  O   UNL     1      -2.868   4.321   0.742  0.00  0.00    -0.292 OA
ATOM     14  C   UNL     1      -1.353   6.094   1.033  0.00  0.00    +0.091 C 
ATOM     15  C   UNL     1      -0.064   6.468   0.294  0.00  0.00    +0.068 C 
ATOM     16  C   UNL     1       1.026   5.474   0.697  0.00  0.00    +0.063 C 
ATOM     17  H   UNL     1       2.474   3.485  -0.209  0.00  0.00    +0.153 HD
ENDROOT
BRANCH   1  22
ATOM     18  C   UNL     1      -2.744   2.686  -5.415  0.00  0.00    +0.051 C 
ATOM     19  C   UNL     1      -2.577   2.511  -3.928  0.00  0.00    -0.013 A 
ATOM     20  C   UNL     1      -3.485   2.098  -3.010  0.00  0.00    +0.011 A 
ATOM     21  C   UNL     1      -3.106   2.012  -1.684  0.00  0.00    +0.012 A 
ATOM     22  C   UNL     1      -1.837   2.342  -1.340  0.00  0.00    +0.002 A 
ATOM     23  S   UNL     1      -1.135   2.799  -2.917  0.00  0.00    -0.097 S 
ENDBRANCH   1  22
BRANCH   6  24
ATOM     24  C   UNL     1       1.747  -1.724  -0.028  0.00  0.00    +0.067 A 
ATOM     25  C   UNL     1       0.835  -2.772  -0.017  0.00  0.00    +0.028 A 
ATOM     26  C   UNL     1       1.286  -4.077  -0.034  0.00  0.00    +0.002 A 
ATOM     27  C   UNL     1       2.643  -4.341  -0.051  0.00  0.00    +0.000 A 
ATOM     28  C   UNL     1       3.553  -3.300  -0.057  0.00  0.00    +0.002 A 
ATOM     29  C   UNL     1       3.109  -1.993  -0.045  0.00  0.00    +0.028 A 
ENDBRANCH   6  24
BRANCH  15  30
ATOM     30  C   UNL     1       0.354   7.864   0.678  0.00  0.00    +0.109 A 
ATOM     31  C   UNL     1       0.500   8.902  -0.165  0.00  0.00    +0.045 A 
ATOM     32  C   UNL     1       0.899  10.011   0.615  0.00  0.00    +0.041 A 
ATOM     33  C   UNL     1       0.981   9.584   1.888  0.00  0.00    +0.195 A 
ATOM     34  O   UNL     1       0.650   8.282   1.920  0.00  0.00    -0.468 OA
ENDBRANCH  15  30
TORSDOF 3
