REMARK  Name = ZINC38729684
REMARK  9 active torsions:
REMARK  status: ('A' for Active; 'I' for Inactive)
REMARK    1  A    between atoms: C_1  and  C_2
REMARK    2  A    between atoms: C_2  and  C_3
REMARK    3  A    between atoms: C_2  and  C_4
REMARK    4  A    between atoms: C_2  and  C_5
REMARK    5  A    between atoms: C_8  and  N_11
REMARK    6  A    between atoms: C_12  and  C_14
REMARK    7  A    between atoms: C_20  and  C_22
REMARK    8  A    between atoms: C_27  and  C_30
REMARK    9  A    between atoms: C_27  and  C_32
REMARK                            x       y       z     vdW  Elec       q    Type
REMARK                         _______ _______ _______ _____ _____    ______ ____
ROOT
ATOM      1  C   UNL     1       5.670  -3.084  -0.142  0.00  0.00    +0.091 C 
ATOM      2  C   UNL     1       5.194  -4.499   0.192  0.00  0.00    +0.040 C 
ATOM      3  C   UNL     1       6.089  -5.114   1.229  0.00  0.00    -0.030 C 
ATOM      4  C   UNL     1       7.270  -4.671   1.522  0.00  0.00    -0.030 C 
ATOM      5  C   UNL     1       7.904  -3.476   0.873  0.00  0.00    +0.040 C 
ATOM      6  C   UNL     1       7.176  -3.128  -0.426  0.00  0.00    +0.091 C 
ENDROOT
BRANCH   6   7
ATOM      7  C   UNL     1       7.637  -1.782  -0.925  0.00  0.00    +0.220 C 
ATOM      8  O   UNL     1       7.015  -0.783  -0.636  0.00  0.00    -0.275 OA
ATOM      9  N   UNL     1       8.741  -1.691  -1.693  0.00  0.00    -0.301 N 
ATOM     10  C   UNL     1       9.442  -2.901  -2.144  0.00  0.00    +0.109 C 
ATOM     11  C   UNL     1       9.589  -2.846  -3.668  0.00  0.00    +0.045 C 
ATOM     12  C   UNL     1      10.276  -1.537  -4.064  0.00  0.00    +0.085 C 
ATOM     13  C   UNL     1       9.415  -0.352  -3.619  0.00  0.00    +0.045 C 
ATOM     14  C   UNL     1       9.263  -0.379  -2.099  0.00  0.00    +0.109 C 
BRANCH  12  15
ATOM     15  C   UNL     1      10.452  -1.496  -5.560  0.00  0.00    -0.027 A 
ATOM     16  C   UNL     1      10.008  -2.548  -6.338  0.00  0.00    +0.005 A 
ATOM     17  C   UNL     1      10.170  -2.510  -7.710  0.00  0.00    +0.000 A 
ATOM     18  C   UNL     1      10.776  -1.419  -8.304  0.00  0.00    +0.000 A 
ATOM     19  C   UNL     1      11.220  -0.366  -7.526  0.00  0.00    +0.000 A 
ATOM     20  C   UNL     1      11.054  -0.402  -6.154  0.00  0.00    +0.005 A 
ENDBRANCH  12  15
BRANCH  12  21
ATOM     21  C   UNL     1      11.593  -1.458  -3.412  0.00  0.00    +0.074 C 
ATOM     22  N   UNL     1      12.610  -1.398  -2.910  0.00  0.00    -0.196 NA
ENDBRANCH  12  21
ENDBRANCH   6   7
BRANCH   1  24
ATOM     23  N   UNL     1       3.596  -2.465  -1.342  0.00  0.00    -0.312 N 
ATOM     24  C   UNL     1       4.939  -2.579  -1.360  0.00  0.00    +0.217 C 
ATOM     25  O   UNL     1       5.560  -2.275  -2.357  0.00  0.00    -0.275 OA
ATOM     26  H   UNL     1       3.100  -2.708  -0.545  0.00  0.00    +0.149 HD
BRANCH  23  30
ATOM     27  C   UNL     1       0.721  -0.479  -1.238  0.00  0.00    -0.005 C 
ATOM     28  C   UNL     1       0.738  -2.009  -1.252  0.00  0.00    +0.006 C 
ATOM     29  C   UNL     1       1.450  -2.500  -2.513  0.00  0.00    +0.022 C 
ATOM     30  C   UNL     1       2.887  -1.974  -2.526  0.00  0.00    +0.073 C 
ATOM     31  C   UNL     1       2.870  -0.444  -2.512  0.00  0.00    +0.022 C 
ATOM     32  C   UNL     1       2.157   0.047  -1.250  0.00  0.00    +0.006 C 
BRANCH  27  34
ATOM     33  C   UNL     1      -0.009   1.542   0.037  0.00  0.00    +0.011 C 
ATOM     34  C   UNL     1       0.009   0.012   0.024  0.00  0.00    -0.035 C 
ATOM     35  C   UNL     1       0.750  -0.501   1.260  0.00  0.00    +0.011 C 
ATOM     36  C   UNL     1      -1.428  -0.514   0.036  0.00  0.00    +0.011 C 
ENDBRANCH  27  34
ENDBRANCH  23  30
ENDBRANCH   1  24
TORSDOF 6
