REMARK  Name = ZINC08780369
REMARK  7 active torsions:
REMARK  status: ('A' for Active; 'I' for Inactive)
REMARK    1  A    between atoms: C_1  and  C_2
REMARK    2  A    between atoms: C_2  and  O_3
REMARK    3  A    between atoms: O_3  and  C_4
REMARK    4  A    between atoms: C_6  and  C_11
REMARK    5  A    between atoms: C_9  and  O_10
REMARK    6  A    between atoms: N_22  and  C_23
REMARK    7  A    between atoms: C_23  and  C_24
REMARK                            x       y       z     vdW  Elec       q    Type
REMARK                         _______ _______ _______ _____ _____    ______ ____
ROOT
ATOM      1  C   UNL     1      -2.583   1.028  -0.384  0.00  0.00    +0.193 C 
ATOM      2  N   UNL     1      -2.546  -0.142  -1.270  0.00  0.00    -0.321 N 
ATOM      3  C   UNL     1      -2.768   0.047  -2.629  0.00  0.00    +0.041 A 
ATOM      4  C   UNL     1      -2.197  -0.773  -3.587  0.00  0.00    +0.024 A 
ATOM      5  C   UNL     1      -2.447  -0.538  -4.925  0.00  0.00    +0.002 A 
ATOM      6  C   UNL     1      -3.265   0.510  -5.316  0.00  0.00    +0.001 A 
ATOM      7  C   UNL     1      -3.843   1.336  -4.375  0.00  0.00    +0.015 A 
ATOM      8  C   UNL     1      -3.601   1.111  -3.022  0.00  0.00    +0.058 A 
ATOM      9  C   UNL     1      -4.199   1.957  -1.974  0.00  0.00    +0.250 C 
ATOM     10  O   UNL     1      -5.108   2.719  -2.244  0.00  0.00    -0.270 OA
ATOM     11  N   UNL     1      -3.727   1.877  -0.717  0.00  0.00    -0.272 N 
ATOM     12  H   UNL     1      -2.372  -1.027  -0.915  0.00  0.00    +0.148 HD
ENDROOT
BRANCH   1  15
ATOM     13  C   UNL     1       0.763   2.625   0.343  0.00  0.00    +0.162 A 
ATOM     14  C   UNL     1      -0.409   1.902   0.495  0.00  0.00    +0.056 A 
ATOM     15  C   UNL     1      -1.310   1.819  -0.550  0.00  0.00    -0.006 A 
ATOM     16  C   UNL     1      -1.050   2.464  -1.745  0.00  0.00    +0.011 A 
ATOM     17  C   UNL     1       0.118   3.186  -1.903  0.00  0.00    +0.049 A 
ATOM     18  C   UNL     1       1.028   3.269  -0.862  0.00  0.00    +0.158 A 
BRANCH  18  19
ATOM     19  O   UNL     1       2.178   3.979  -1.016  0.00  0.00    -0.503 OA
ATOM     20  H   UNL     1       2.918   3.459  -1.359  0.00  0.00    +0.292 HD
ENDBRANCH  18  19
BRANCH  13  21
ATOM     21  O   UNL     1       1.653   2.703   1.368  0.00  0.00    -0.489 OA
BRANCH  21  23
ATOM     22  C   UNL     1       2.428   2.218   3.605  0.00  0.00    +0.048 C 
ATOM     23  C   UNL     1       1.315   2.016   2.575  0.00  0.00    +0.226 C 
ENDBRANCH  21  23
ENDBRANCH  13  21
ENDBRANCH   1  15
BRANCH  11  24
ATOM     24  C   UNL     1      -4.374   2.658   0.340  0.00  0.00    +0.141 C 
BRANCH  24  25
ATOM     25  C   UNL     1      -3.781   4.068   0.368  0.00  0.00    +0.136 C 
ATOM     26  C   UNL     1      -4.488   4.928   1.446  0.00  0.00    +0.035 C 
ATOM     27  C   UNL     1      -3.388   5.980   1.752  0.00  0.00    +0.031 C 
ATOM     28  C   UNL     1      -2.092   5.157   1.585  0.00  0.00    +0.160 C 
ATOM     29  O   UNL     1      -2.403   4.021   0.770  0.00  0.00    -0.375 OA
ENDBRANCH  24  25
ENDBRANCH  11  24
TORSDOF 6
