REMARK  Name = ZINC65615518
REMARK  9 active torsions:
REMARK  status: ('A' for Active; 'I' for Inactive)
REMARK    1  A    between atoms: C_1  and  C_2
REMARK    2  A    between atoms: C_3  and  C_9
REMARK    3  A    between atoms: C_4  and  C_8
REMARK    4  A    between atoms: N_5  and  C_7
REMARK    5  A    between atoms: C_9  and  C_10
REMARK    6  A    between atoms: C_9  and  N_11
REMARK    7  A    between atoms: C_12  and  C_14
REMARK    8  A    between atoms: N_16  and  C_17
REMARK    9  A    between atoms: C_18  and  C_26
REMARK                            x       y       z     vdW  Elec       q    Type
REMARK                         _______ _______ _______ _____ _____    ______ ____
ROOT
ATOM      1  C   UNL     1      -2.017   2.313  -4.136  0.00  0.00    +0.304 C 
ATOM      2  O   UNL     1      -2.210   3.070  -3.207  0.00  0.00    -0.265 OA
ATOM      3  N   UNL     1      -2.570   2.568  -5.338  0.00  0.00    -0.271 N 
ATOM      4  H   UNL     1      -2.416   1.963  -6.081  0.00  0.00    +0.156 HD
ENDROOT
BRANCH   3   5
ATOM      5  C   UNL     1      -3.357   3.694  -5.514  0.00  0.00    +0.090 A 
ATOM      6  C   UNL     1      -4.015   4.128  -6.659  0.00  0.00    +0.084 A 
ATOM      7  C   UNL     1      -4.784   5.357  -6.574  0.00  0.00    -0.018 A 
ATOM      8  C   UNL     1      -4.791   5.977  -5.371  0.00  0.00    -0.004 A 
ATOM      9  S   UNL     1      -3.793   4.952  -4.326  0.00  0.00    -0.077 S 
ATOM     10  C   UNL     1      -5.495   7.248  -5.011  0.00  0.00    +0.043 C 
ATOM     11  C   UNL     1      -5.914   7.955  -6.308  0.00  0.00    +0.005 C 
ATOM     12  C   UNL     1      -6.590   6.934  -7.227  0.00  0.00    +0.005 C 
ATOM     13  C   UNL     1      -5.552   5.943  -7.755  0.00  0.00    +0.037 C 
BRANCH   6  14
ATOM     14  C   UNL     1      -3.937   3.388  -7.882  0.00  0.00    +0.102 C 
ATOM     15  N   UNL     1      -3.874   2.801  -8.852  0.00  0.00    -0.191 NA
ENDBRANCH   6  14
ENDBRANCH   3   5
BRANCH   1  17
ATOM     16  N   UNL     1      -0.616   0.845  -2.745  0.00  0.00    -0.301 N 
ATOM     17  C   UNL     1      -1.168   1.100  -3.947  0.00  0.00    +0.300 C 
ATOM     18  O   UNL     1      -0.976   0.343  -4.876  0.00  0.00    -0.265 OA
ATOM     19  H   UNL     1      -0.769   1.450  -2.002  0.00  0.00    +0.150 HD
BRANCH  16  20
ATOM     20  C   UNL     1       0.218  -0.346  -2.559  0.00  0.00    +0.104 C 
ATOM     21  C   UNL     1       1.648  -0.043  -3.010  0.00  0.00    +0.033 C 
BRANCH  20  24
ATOM     22  C   UNL     1      -0.183  -3.272  -1.411  0.00  0.00    +0.068 C 
ATOM     23  C   UNL     1       0.045  -2.025  -0.595  0.00  0.00    +0.065 A 
ATOM     24  C   UNL     1       0.222  -0.734  -1.103  0.00  0.00    +0.016 A 
ATOM     25  C   UNL     1       0.397   0.105  -0.056  0.00  0.00    +0.041 A 
ATOM     26  N   UNL     1       0.334  -0.630   1.075  0.00  0.00    -0.271 N 
ATOM     27  N   UNL     1       0.107  -1.963   0.710  0.00  0.00    -0.176 NA
ATOM     28  C   UNL     1       0.473  -0.122   2.442  0.00  0.00    +0.172 C 
ATOM     29  C   UNL     1       0.623   1.592  -0.137  0.00  0.00    +0.065 C 
ENDBRANCH  20  24
ENDBRANCH  16  20
ENDBRANCH   1  17
TORSDOF 5
