REMARK  Name = ZINC02457886
REMARK  7 active torsions:
REMARK  status: ('A' for Active; 'I' for Inactive)
REMARK    1  A    between atoms: C_1  and  C_2
REMARK    2  A    between atoms: C_4  and  C_25
REMARK    3  A    between atoms: C_5  and  N_9
REMARK    4  A    between atoms: C_6  and  C_8
REMARK    5  A    between atoms: N_12  and  S_15
REMARK    6  A    between atoms: S_15  and  C_18
REMARK    7  A    between atoms: C_21  and  N_24
REMARK                            x       y       z     vdW  Elec       q    Type
REMARK                         _______ _______ _______ _____ _____    ______ ____
ROOT
ATOM      1  N   UNL     1       1.173  -2.746  -4.394  0.00  0.00    -0.327 N 
ATOM      2  C   UNL     1       2.161  -2.090  -3.527  0.00  0.00    +0.122 C 
ATOM      3  C   UNL     1       2.271  -2.862  -2.208  0.00  0.00    +0.128 C 
ATOM      4  N   UNL     1       0.925  -2.993  -1.630  0.00  0.00    -0.174 NA
ATOM      5  C   UNL     1      -0.150  -3.522  -2.483  0.00  0.00    +0.128 C 
ATOM      6  C   UNL     1      -0.166  -2.719  -3.792  0.00  0.00    +0.122 C 
ENDROOT
BRANCH   1  11
ATOM      7  C   UNL     1       1.132  -0.405  -9.559  0.00  0.00    +0.044 C 
ATOM      8  C   UNL     1       1.143  -1.027  -8.186  0.00  0.00    -0.050 A 
ATOM      9  C   UNL     1       0.980  -0.232  -7.067  0.00  0.00    +0.008 A 
ATOM     10  C   UNL     1       0.989  -0.799  -5.808  0.00  0.00    -0.029 A 
ATOM     11  C   UNL     1       1.163  -2.170  -5.666  0.00  0.00    +0.036 A 
ATOM     12  C   UNL     1       1.332  -2.965  -6.793  0.00  0.00    -0.029 A 
ATOM     13  C   UNL     1       1.316  -2.393  -8.049  0.00  0.00    +0.008 A 
ATOM     14  C   UNL     1       1.527  -4.452  -6.643  0.00  0.00    +0.045 C 
ATOM     15  C   UNL     1       0.810   0.069  -4.589  0.00  0.00    +0.045 C 
ENDBRANCH   1  11
BRANCH   4  16
ATOM     16  S   UNL     1       0.629  -2.563  -0.058  0.00  0.00    +0.061 S 
ATOM     17  O   UNL     1       1.871  -2.647   0.627  0.00  0.00    -0.153 OA
ATOM     18  O   UNL     1      -0.519  -3.293   0.354  0.00  0.00    -0.153 OA
BRANCH  16  19
ATOM     19  C   UNL     1       0.169  -0.862  -0.061  0.00  0.00    +0.106 A 
ATOM     20  C   UNL     1      -1.161  -0.507  -0.194  0.00  0.00    +0.030 A 
ATOM     21  C   UNL     1      -1.524   0.826  -0.197  0.00  0.00    +0.024 A 
ATOM     22  C   UNL     1      -0.552   1.809  -0.066  0.00  0.00    +0.025 A 
ATOM     23  C   UNL     1       0.783   1.449   0.068  0.00  0.00    +0.024 A 
ATOM     24  C   UNL     1       1.139   0.115   0.069  0.00  0.00    +0.030 A 
BRANCH  22  25
ATOM     25  N   UNL     1      -0.916   3.158  -0.069  0.00  0.00    -0.358 N 
ATOM     26  H   UNL     1      -1.849   3.408  -0.162  0.00  0.00    +0.142 HD
ATOM     27  H   UNL     1      -0.237   3.844   0.022  0.00  0.00    +0.142 HD
ENDBRANCH  22  25
ENDBRANCH  16  19
ENDBRANCH   4  16
TORSDOF 4
