REMARK  Name = ZINC08978619
REMARK  6 active torsions:
REMARK  status: ('A' for Active; 'I' for Inactive)
REMARK    1  A    between atoms: C_4  and  C_7
REMARK    2  A    between atoms: C_8  and  O_19
REMARK    3  A    between atoms: O_19  and  C_20
REMARK    4  A    between atoms: C_20  and  C_21
REMARK    5  A    between atoms: N_23  and  C_24
REMARK    6  A    between atoms: C_25  and  C_33
REMARK                            x       y       z     vdW  Elec       q    Type
REMARK                         _______ _______ _______ _____ _____    ______ ____
ROOT
ATOM      1  O   UNL     1       3.599  -2.068  -0.260  0.00  0.00    -0.476 OA
ENDROOT
BRANCH   1   3
ATOM      2  C   UNL     1       1.251  -2.158  -0.025  0.00  0.00    +0.181 A 
ATOM      3  C   UNL     1       2.452  -2.791  -0.146  0.00  0.00    +0.211 A 
ATOM      4  C   UNL     1       2.497  -4.209  -0.144  0.00  0.00    +0.235 A 
ATOM      5  O   UNL     1       3.553  -4.810  -0.245  0.00  0.00    -0.283 OA
ATOM      6  C   UNL     1       1.214  -4.927  -0.022  0.00  0.00    +0.069 A 
ATOM      7  C   UNL     1       1.161  -6.320  -0.017  0.00  0.00    +0.035 A 
ATOM      8  C   UNL     1      -0.057  -6.955   0.098  0.00  0.00    +0.042 A 
ATOM      9  C   UNL     1      -1.225  -6.212   0.209  0.00  0.00    +0.023 A 
ATOM     10  C   UNL     1      -1.185  -4.834   0.206  0.00  0.00    +0.048 A 
ATOM     11  C   UNL     1       0.033  -4.175   0.090  0.00  0.00    +0.140 A 
ATOM     12  O   UNL     1       0.091  -2.827   0.085  0.00  0.00    -0.451 OA
ATOM     13 CL   UNL     1      -0.131  -8.689   0.104  0.00  0.00    -0.084 Cl
BRANCH   2  17
ATOM     14  C   UNL     1       1.168   2.087  -0.018  0.00  0.00    +0.000 A 
ATOM     15  C   UNL     1       1.885   1.414  -0.991  0.00  0.00    +0.001 A 
ATOM     16  C   UNL     1       1.917   0.035  -1.000  0.00  0.00    +0.012 A 
ATOM     17  C   UNL     1       1.222  -0.683  -0.022  0.00  0.00    +0.021 A 
ATOM     18  C   UNL     1       0.500   0.003   0.957  0.00  0.00    +0.012 A 
ATOM     19  C   UNL     1       0.477   1.382   0.954  0.00  0.00    +0.001 A 
ENDBRANCH   2  17
ENDBRANCH   1   3
BRANCH   1  20
ATOM     20  C   UNL     1       4.334  -1.822   0.941  0.00  0.00    +0.325 C 
BRANCH  20  21
ATOM     21  C   UNL     1       5.565  -1.014   0.620  0.00  0.00    +0.255 C 
ATOM     22  O   UNL     1       5.791  -0.681  -0.524  0.00  0.00    -0.272 OA
ATOM     23  N   UNL     1       6.414  -0.660   1.605  0.00  0.00    -0.277 N 
ATOM     24  H   UNL     1       6.233  -0.926   2.520  0.00  0.00    +0.155 HD
BRANCH  23  25
ATOM     25  C   UNL     1       7.547   0.084   1.310  0.00  0.00    +0.084 A 
ATOM     26  C   UNL     1       8.527   0.544   2.178  0.00  0.00    +0.068 A 
ATOM     27  C   UNL     1       9.625   1.306   1.608  0.00  0.00    -0.023 A 
ATOM     28  C   UNL     1       9.562   1.495   0.272  0.00  0.00    -0.004 A 
ATOM     29  S   UNL     1       8.078   0.671  -0.231  0.00  0.00    -0.077 S 
ATOM     30  C   UNL     1      10.540   2.240  -0.582  0.00  0.00    +0.043 C 
ATOM     31  C   UNL     1      11.439   3.083   0.336  0.00  0.00    +0.005 C 
ATOM     32  C   UNL     1      11.937   2.201   1.484  0.00  0.00    +0.005 C 
ATOM     33  C   UNL     1      10.778   1.872   2.427  0.00  0.00    +0.037 C 
BRANCH  26  34
ATOM     34  C   UNL     1       8.459   0.267   3.616  0.00  0.00    +0.244 C 
ATOM     35  O   UNL     1       8.977  -0.738   4.068  0.00  0.00    -0.270 OA
ATOM     36  N   UNL     1       7.822   1.124   4.438  0.00  0.00    -0.325 N 
ATOM     37  H   UNL     1       7.409   1.925   4.079  0.00  0.00    +0.145 HD
ATOM     38  H   UNL     1       7.777   0.941   5.390  0.00  0.00    +0.145 HD
ENDBRANCH  26  34
ENDBRANCH  23  25
ENDBRANCH  20  21
ENDBRANCH   1  20
TORSDOF 6
