REMARK  Name = ZINC01238615
REMARK  8 active torsions:
REMARK  status: ('A' for Active; 'I' for Inactive)
REMARK    1  A    between atoms: C_1  and  C_2
REMARK    2  A    between atoms: C_3  and  C_13
REMARK    3  A    between atoms: C_13  and  C_14
REMARK    4  A    between atoms: C_14  and  N_15
REMARK    5  A    between atoms: C_19  and  C_23
REMARK    6  A    between atoms: C_19  and  C_24
REMARK    7  A    between atoms: C_20  and  C_21
REMARK    8  A    between atoms: C_20  and  O_22
REMARK                            x       y       z     vdW  Elec       q    Type
REMARK                         _______ _______ _______ _____ _____    ______ ____
ROOT
ATOM      1  C   UNL     1      -2.970   1.175   1.464  0.00  0.00    +0.056 C 
ENDROOT
BRANCH   1   4
ATOM      2  C   UNL     1      -3.718  -1.838   1.453  0.00  0.00    +0.063 C 
ATOM      3  C   UNL     1      -4.699  -0.694   1.463  0.00  0.00    +0.017 A 
ATOM      4  C   UNL     1      -4.366   0.607   1.467  0.00  0.00    -0.018 A 
ATOM      5  C   UNL     1      -5.617   1.369   1.482  0.00  0.00    +0.005 A 
ATOM      6  C   UNL     1      -5.923   2.732   1.485  0.00  0.00    +0.030 A 
ATOM      7  C   UNL     1      -7.230   3.133   1.492  0.00  0.00    +0.042 A 
ATOM      8  C   UNL     1      -8.256   2.196   1.493  0.00  0.00    +0.022 A 
ATOM      9  C   UNL     1      -7.975   0.848   1.485  0.00  0.00    +0.027 A 
ATOM     10  C   UNL     1      -6.652   0.417   1.477  0.00  0.00    +0.047 A 
ATOM     11  N   UNL     1      -6.061  -0.827   1.468  0.00  0.00    -0.358 N 
ATOM     12  H   UNL     1      -6.538  -1.671   1.466  0.00  0.00    +0.166 HD
ATOM     13 CL   UNL     1      -7.610   4.827   1.502  0.00  0.00    -0.084 Cl
ENDBRANCH   1   4
BRANCH   1  14
ATOM     14  C   UNL     1      -2.504   1.375   0.021  0.00  0.00    +0.119 C 
BRANCH  14  15
ATOM     15  N   UNL     1      -1.147   1.927   0.018  0.00  0.00    -0.235 N 
ATOM     16  C   UNL     1      -0.014   1.211   0.009  0.00  0.00    +0.406 C 
ATOM     17  O   UNL     1       0.002  -0.004   0.002  0.00  0.00    -0.226 OA
ATOM     18  O   UNL     1       1.097   1.956   0.002  0.00  0.00    -0.440 OA
ATOM     19  C   UNL     1       0.735   3.367   0.013  0.00  0.00    +0.155 C 
ATOM     20  C   UNL     1      -0.806   3.358   0.027  0.00  0.00    +0.174 C 
ATOM     21  C   UNL     1      -1.359   4.046  -1.223  0.00  0.00    +0.068 C 
ATOM     22  C   UNL     1       1.279   4.051   1.269  0.00  0.00    +0.060 C 
ATOM     23  C   UNL     1       1.258   4.064  -1.245  0.00  0.00    +0.060 C 
BRANCH  20  24
ATOM     24  O   UNL     1      -1.301   3.988   1.210  0.00  0.00    -0.368 OA
ATOM     25  H   UNL     1      -2.266   4.010   1.270  0.00  0.00    +0.212 HD
ENDBRANCH  20  24
ENDBRANCH  14  15
ENDBRANCH   1  14
TORSDOF 4
