REMARK  Name = ZINC46572085
REMARK  5 active torsions:
REMARK  status: ('A' for Active; 'I' for Inactive)
REMARK    1  A    between atoms: C_1  and  C_2
REMARK    2  A    between atoms: C_3  and  C_12
REMARK    3  A    between atoms: C_5  and  C_7
REMARK    4  A    between atoms: N_14  and  N_15
REMARK    5  A    between atoms: C_16  and  C_18
REMARK                            x       y       z     vdW  Elec       q    Type
REMARK                         _______ _______ _______ _____ _____    ______ ____
ROOT
ATOM      1  C   UNL     1      -2.497  -0.409   0.012  0.00  0.00    +0.282 C 
ATOM      2  O   UNL     1      -2.781   0.774   0.020  0.00  0.00    -0.267 OA
ATOM      3  N   UNL     1      -3.474  -1.337   0.011  0.00  0.00    -0.229 N 
ATOM      4  H   UNL     1      -3.247  -2.280   0.004  0.00  0.00    +0.173 HD
ENDROOT
BRANCH   1   7
ATOM      5  C   UNL     1      -0.018   1.503   0.010  0.00  0.00    +0.089 C 
ATOM      6  C   UNL     1       0.002  -0.004   0.002  0.00  0.00    +0.135 A 
ATOM      7  C   UNL     1      -1.083  -0.827   0.003  0.00  0.00    +0.168 A 
ATOM      8  N   UNL     1      -0.621  -2.105  -0.007  0.00  0.00    -0.204 NA
ATOM      9  C   UNL     1       0.691  -2.071  -0.012  0.00  0.00    +0.235 A 
ATOM     10  O   UNL     1       1.094  -0.787  -0.013  0.00  0.00    -0.439 OA
BRANCH   9  11
ATOM     11  C   UNL     1       1.576  -3.245  -0.022  0.00  0.00    +0.074 A 
ATOM     12  C   UNL     1       1.244  -4.587  -0.033  0.00  0.00    +0.021 A 
ATOM     13  C   UNL     1       2.260  -5.513  -0.041  0.00  0.00    +0.008 A 
ATOM     14  C   UNL     1       3.550  -5.084  -0.038  0.00  0.00    +0.046 A 
ATOM     15  S   UNL     1       3.360  -3.309  -0.030  0.00  0.00    -0.092 S 
ENDBRANCH   9  11
ENDBRANCH   1   7
BRANCH   3  16
ATOM     16  N   UNL     1      -4.817  -0.940   0.020  0.00  0.00    -0.229 N 
ATOM     17  C   UNL     1      -5.795  -1.868   0.019  0.00  0.00    +0.278 C 
ATOM     18  O   UNL     1      -5.511  -3.049   0.011  0.00  0.00    -0.267 OA
ATOM     19  H   UNL     1      -5.044   0.004   0.027  0.00  0.00    +0.173 HD
BRANCH  17  20
ATOM     20  C   UNL     1      -7.216  -1.447   0.029  0.00  0.00    +0.127 A 
ATOM     21  C   UNL     1      -8.221  -2.427   0.034  0.00  0.00    +0.034 A 
ATOM     22  C   UNL     1      -9.534  -2.053   0.043  0.00  0.00    +0.012 A 
ATOM     23  C   UNL     1      -9.834  -0.678   0.048  0.00  0.00    +0.000 A 
ATOM     24  C   UNL     1     -11.163  -0.222   0.058  0.00  0.00    +0.010 A 
ATOM     25  C   UNL     1     -11.416   1.115   0.062  0.00  0.00    +0.001 A 
ATOM     26  C   UNL     1     -10.373   2.042   0.056  0.00  0.00    +0.002 A 
ATOM     27  C   UNL     1      -9.075   1.638   0.047  0.00  0.00    +0.028 A 
ATOM     28  C   UNL     1      -8.771   0.263   0.042  0.00  0.00    +0.072 A 
ATOM     29  N   UNL     1      -7.508  -0.161   0.038  0.00  0.00    -0.242 NA
ENDBRANCH  17  20
ENDBRANCH   3  16
TORSDOF 4
