REMARK  Name = ZINC02363115
REMARK  5 active torsions:
REMARK  status: ('A' for Active; 'I' for Inactive)
REMARK    1  A    between atoms: C_1  and  C_2
REMARK    2  A    between atoms: C_3  and  N_9
REMARK    3  A    between atoms: C_10  and  C_12
REMARK    4  A    between atoms: C_23  and  C_25
REMARK    5  A    between atoms: C_23  and  C_26
REMARK                            x       y       z     vdW  Elec       q    Type
REMARK                         _______ _______ _______ _____ _____    ______ ____
ROOT
ATOM      1  C   UNL     1       0.192   0.111  -4.876  0.00  0.00    +0.119 C 
ATOM      2  C   UNL     1      -1.058   0.974  -5.054  0.00  0.00    +0.113 C 
ATOM      3  C   UNL     1      -2.232   0.082  -5.367  0.00  0.00    +0.218 C 
ATOM      4  O   UNL     1      -3.339   0.376  -4.968  0.00  0.00    -0.275 OA
ATOM      5  N   UNL     1      -2.056  -1.039  -6.088  0.00  0.00    -0.289 N 
ATOM      6  C   UNL     1      -0.820  -1.382  -6.575  0.00  0.00    +0.018 C 
ATOM      7  C   UNL     1       0.299  -0.861  -6.028  0.00  0.00    +0.024 C 
ATOM      8  C   UNL     1       1.575  -1.204  -6.506  0.00  0.00    +0.162 C 
ATOM      9  O   UNL     1       2.559  -0.706  -5.995  0.00  0.00    -0.292 OA
ATOM     10  C   UNL     1       1.743  -2.178  -7.641  0.00  0.00    +0.086 C 
ATOM     11  C   UNL     1       0.560  -3.152  -7.638  0.00  0.00    -0.023 C 
ATOM     12  C   UNL     1      -0.738  -2.345  -7.732  0.00  0.00    +0.058 C 
ATOM     13  C   UNL     1       0.568  -3.965  -6.342  0.00  0.00    +0.011 C 
ATOM     14  C   UNL     1       0.668  -4.094  -8.839  0.00  0.00    +0.011 C 
ATOM     15  H   UNL     1      -2.815  -1.615  -6.267  0.00  0.00    +0.155 HD
ENDROOT
BRANCH   1  17
ATOM     16  N   UNL     1      -0.010   0.011  -2.413  0.00  0.00    -0.285 N 
ATOM     17  C   UNL     1       0.095  -0.653  -3.581  0.00  0.00    +0.225 C 
ATOM     18  O   UNL     1       0.112  -1.866  -3.590  0.00  0.00    -0.275 OA
ATOM     19  H   UNL     1      -0.104   0.977  -2.411  0.00  0.00    +0.155 HD
BRANCH  16  22
ATOM     20  C   UNL     1      -1.263   1.190  -0.146  0.00  0.00    +0.047 C 
ATOM     21  C   UNL     1      -0.583  -0.153  -0.073  0.00  0.00    -0.011 A 
ATOM     22  C   UNL     1       0.017  -0.692  -1.204  0.00  0.00    +0.038 A 
ATOM     23  C   UNL     1       0.642  -1.929  -1.132  0.00  0.00    +0.023 A 
ATOM     24  C   UNL     1       0.667  -2.621   0.064  0.00  0.00    +0.003 A 
ATOM     25  C   UNL     1       0.069  -2.084   1.188  0.00  0.00    +0.020 A 
ATOM     26  C   UNL     1      -0.551  -0.848   1.122  0.00  0.00    +0.046 A 
ATOM     27 CL   UNL     1      -1.293  -0.172   2.538  0.00  0.00    -0.083 Cl
ENDBRANCH  16  22
ENDBRANCH   1  17
TORSDOF 2
