REMARK  Name = ZINC67306475
REMARK  7 active torsions:
REMARK  status: ('A' for Active; 'I' for Inactive)
REMARK    1  A    between atoms: C_1  and  C_2
REMARK    2  A    between atoms: C_5  and  C_9
REMARK    3  A    between atoms: C_6  and  C_8
REMARK    4  A    between atoms: C_9  and  C_10
REMARK    5  A    between atoms: C_10  and  C_12
REMARK    6  A    between atoms: C_10  and  N_13
REMARK    7  A    between atoms: C_14  and  C_16
REMARK                            x       y       z     vdW  Elec       q    Type
REMARK                         _______ _______ _______ _____ _____    ______ ____
ROOT
ATOM      1  N   UNL     1      -2.143  -4.420  -1.074  0.00  0.00    -0.312 N 
ATOM      2  C   UNL     1      -3.484  -4.311  -0.997  0.00  0.00    +0.216 C 
ATOM      3  O   UNL     1      -4.051  -4.531   0.052  0.00  0.00    -0.276 OA
ATOM      4  H   UNL     1      -1.690  -4.245  -1.914  0.00  0.00    +0.149 HD
ENDROOT
BRANCH   2   5
ATOM      5  C   UNL     1      -4.280  -3.916  -2.215  0.00  0.00    +0.075 C 
ATOM      6  C   UNL     1      -3.823  -2.537  -2.696  0.00  0.00    +0.015 C 
ATOM      7  C   UNL     1      -4.623  -2.143  -3.940  0.00  0.00    +0.036 C 
ATOM      8  C   UNL     1      -6.110  -2.115  -3.605  0.00  0.00    +0.112 C 
ATOM      9  C   UNL     1      -6.575  -3.477  -3.099  0.00  0.00    +0.036 C 
ATOM     10  C   UNL     1      -5.767  -3.866  -1.858  0.00  0.00    +0.015 C 
ATOM     11  C   UNL     1      -6.400  -1.044  -2.579  0.00  0.00    +0.244 C 
ATOM     12  O   UNL     1      -5.964  -0.970  -1.451  0.00  0.00    -0.273 OA
ATOM     13  N   UNL     1      -7.248  -0.186  -3.184  0.00  0.00    -0.238 N 
ATOM     14  C   UNL     1      -7.526  -0.569  -4.437  0.00  0.00    +0.307 C 
ATOM     15  O   UNL     1      -8.266   0.043  -5.182  0.00  0.00    -0.252 OA
ATOM     16  N   UNL     1      -6.894  -1.708  -4.778  0.00  0.00    -0.285 N 
ATOM     17  H   UNL     1      -7.611   0.610  -2.764  0.00  0.00    +0.159 HD
ATOM     18  H   UNL     1      -6.947  -2.169  -5.630  0.00  0.00    +0.151 HD
ENDBRANCH   2   5
BRANCH   1  19
ATOM     19  C   UNL     1      -1.370  -4.804   0.109  0.00  0.00    +0.074 C 
ATOM     20  C   UNL     1      -1.341  -6.330   0.226  0.00  0.00    +0.028 C 
BRANCH  19  21
ATOM     21  C   UNL     1       0.059  -4.275  -0.021  0.00  0.00    +0.057 C 
BRANCH  21  26
ATOM     22  C   UNL     1      -0.018   1.503   0.010  0.00  0.00    +0.044 C 
ATOM     23  C   UNL     1       0.002  -0.004   0.002  0.00  0.00    -0.050 A 
ATOM     24  C   UNL     1       0.006  -0.689  -1.199  0.00  0.00    +0.003 A 
ATOM     25  C   UNL     1       0.025  -2.071  -1.207  0.00  0.00    +0.004 A 
ATOM     26  C   UNL     1       0.040  -2.768  -0.013  0.00  0.00    -0.043 A 
ATOM     27  C   UNL     1       0.037  -2.084   1.188  0.00  0.00    -0.047 A 
ATOM     28  C   UNL     1       0.023  -0.702   1.195  0.00  0.00    +0.007 A 
ATOM     29  C   UNL     1       0.054  -2.845   2.489  0.00  0.00    +0.044 C 
ENDBRANCH  21  26
ENDBRANCH  19  21
ENDBRANCH   1  19
TORSDOF 4
