REMARK  Name = ZINC46841209
REMARK  10 active torsions:
REMARK  status: ('A' for Active; 'I' for Inactive)
REMARK    1  A    between atoms: C_1  and  C_2
REMARK    2  A    between atoms: C_2  and  C_4
REMARK    3  A    between atoms: C_2  and  N_14
REMARK    4  A    between atoms: C_8  and  O_10
REMARK    5  A    between atoms: O_10  and  C_11
REMARK    6  A    between atoms: C_15  and  C_17
REMARK    7  A    between atoms: C_17  and  C_19
REMARK    8  A    between atoms: C_17  and  N_30
REMARK    9  A    between atoms: C_19  and  C_20
REMARK   10  A    between atoms: C_31  and  C_33
REMARK                            x       y       z     vdW  Elec       q    Type
REMARK                         _______ _______ _______ _____ _____    ______ ____
ROOT
ATOM      1  C   UNL     1      -3.442  -1.177   1.191  0.00  0.00    +0.163 C 
ENDROOT
BRANCH   1   3
ATOM      2  N   UNL     1      -1.372  -0.511   0.012  0.00  0.00    -0.307 N 
ATOM      3  C   UNL     1      -2.029  -0.655   1.181  0.00  0.00    +0.234 C 
ATOM      4  O   UNL     1      -1.481  -0.365   2.224  0.00  0.00    -0.274 OA
ATOM      5  H   UNL     1      -1.810  -0.743  -0.822  0.00  0.00    +0.149 HD
BRANCH   2   7
ATOM      6  C   UNL     1      -0.019   1.526   0.010  0.00  0.00    +0.033 C 
ATOM      7  C   UNL     1       0.002  -0.004   0.002  0.00  0.00    +0.100 C 
BRANCH   7   8
ATOM      8  C   UNL     1       0.707  -0.490  -1.238  0.00  0.00    -0.024 A 
ATOM      9  C   UNL     1       0.037  -0.521  -2.447  0.00  0.00    +0.005 A 
ATOM     10  C   UNL     1       0.681  -0.967  -3.586  0.00  0.00    +0.004 A 
ATOM     11  C   UNL     1       1.997  -1.382  -3.519  0.00  0.00    +0.046 A 
ATOM     12  C   UNL     1       2.672  -1.352  -2.308  0.00  0.00    +0.127 A 
ATOM     13  C   UNL     1       2.025  -0.898  -1.167  0.00  0.00    +0.051 A 
BRANCH  12  14
ATOM     14  O   UNL     1       3.966  -1.760  -2.239  0.00  0.00    -0.434 OA
BRANCH  14  15
ATOM     15  C   UNL     1       4.571  -2.208  -3.454  0.00  0.00    +0.541 C 
ATOM     16  F   UNL     1       3.857  -3.303  -3.953  0.00  0.00    -0.166 F 
ATOM     17  F   UNL     1       4.552  -1.172  -4.394  0.00  0.00    -0.166 F 
ENDBRANCH  14  15
ENDBRANCH  12  14
ENDBRANCH   7   8
ENDBRANCH   2   7
ENDBRANCH   1   3
BRANCH   1  18
ATOM     18  N   UNL     1      -4.091  -0.805   2.451  0.00  0.00    -0.299 N 
ATOM     19  C   UNL     1      -3.578  -1.229   3.624  0.00  0.00    +0.251 C 
ATOM     20  O   UNL     1      -2.577  -1.921   3.635  0.00  0.00    -0.270 OA
ATOM     21  H   UNL     1      -4.889  -0.254   2.442  0.00  0.00    +0.150 HD
BRANCH  19  22
ATOM     22  C   UNL     1      -4.227  -0.857   4.885  0.00  0.00    +0.074 A 
ATOM     23  C   UNL     1      -3.863  -1.179   6.183  0.00  0.00    +0.021 A 
ATOM     24  C   UNL     1      -4.675  -0.680   7.172  0.00  0.00    +0.008 A 
ATOM     25  C   UNL     1      -5.748   0.074   6.826  0.00  0.00    +0.046 A 
ATOM     26  S   UNL     1      -5.685   0.135   5.148  0.00  0.00    -0.092 S 
ENDBRANCH  19  22
ENDBRANCH   1  18
BRANCH   1  27
ATOM     27  C   UNL     1      -3.425  -2.701   1.057  0.00  0.00    +0.069 C 
BRANCH  27  28
ATOM     28  C   UNL     1      -4.838  -3.212   0.945  0.00  0.00    -0.020 A 
ATOM     29  C   UNL     1      -5.608  -3.660   1.949  0.00  0.00    +0.087 A 
ATOM     30  N   UNL     1      -6.830  -4.040   1.466  0.00  0.00    -0.360 N 
ATOM     31  H   UNL     1      -7.555  -4.397   2.003  0.00  0.00    +0.165 HD
ATOM     32  C   UNL     1      -6.878  -3.841   0.105  0.00  0.00    +0.047 A 
ATOM     33  C   UNL     1      -5.635  -3.307  -0.281  0.00  0.00    +0.003 A 
ATOM     34  C   UNL     1      -5.395  -2.997  -1.621  0.00  0.00    +0.010 A 
ATOM     35  C   UNL     1      -6.373  -3.209  -2.552  0.00  0.00    +0.001 A 
ATOM     36  C   UNL     1      -7.603  -3.732  -2.176  0.00  0.00    +0.002 A 
ATOM     37  C   UNL     1      -7.857  -4.054  -0.860  0.00  0.00    +0.026 A 
ENDBRANCH  27  28
ENDBRANCH   1  27
TORSDOF 9
