REMARK  Name = ZINC21461617
REMARK  7 active torsions:
REMARK  status: ('A' for Active; 'I' for Inactive)
REMARK    1  A    between atoms: C_1  and  C_2
REMARK    2  A    between atoms: C_2  and  C_4
REMARK    3  A    between atoms: C_2  and  S_10
REMARK    4  A    between atoms: S_10  and  C_11
REMARK    5  A    between atoms: N_21  and  C_22
REMARK    6  A    between atoms: C_22  and  C_23
REMARK    7  A    between atoms: C_23  and  C_24
REMARK                            x       y       z     vdW  Elec       q    Type
REMARK                         _______ _______ _______ _____ _____    ______ ____
ROOT
ATOM      1  C   UNL     1       0.918   1.881  -2.999  0.00  0.00    +0.173 A 
ATOM      2  N   UNL     1       1.576   1.519  -4.073  0.00  0.00    -0.223 NA
ATOM      3  C   UNL     1       1.311   0.359  -4.706  0.00  0.00    +0.079 A 
ATOM      4  C   UNL     1       2.009  -0.024  -5.856  0.00  0.00    +0.028 A 
ATOM      5  C   UNL     1       1.707  -1.208  -6.467  0.00  0.00    +0.002 A 
ATOM      6  C   UNL     1       0.715  -2.040  -5.963  0.00  0.00    +0.001 A 
ATOM      7  C   UNL     1       0.015  -1.693  -4.840  0.00  0.00    +0.015 A 
ATOM      8  C   UNL     1       0.302  -0.490  -4.197  0.00  0.00    +0.065 A 
ATOM      9  C   UNL     1      -0.418  -0.065  -2.989  0.00  0.00    +0.262 A 
ATOM     10  O   UNL     1      -1.296  -0.753  -2.502  0.00  0.00    -0.267 OA
ATOM     11  N   UNL     1      -0.067   1.120  -2.437  0.00  0.00    -0.287 N 
ENDROOT
BRANCH   1  12
ATOM     12  S   UNL     1       1.327   3.418  -2.241  0.00  0.00    -0.075 S 
BRANCH  12  14
ATOM     13  C   UNL     1       2.050   4.234  -4.746  0.00  0.00    +0.029 C 
ATOM     14  C   UNL     1       2.638   3.979  -3.357  0.00  0.00    +0.137 C 
BRANCH  14  15
ATOM     15  C   UNL     1       3.239   5.254  -2.824  0.00  0.00    +0.233 C 
ATOM     16  O   UNL     1       2.623   5.929  -2.028  0.00  0.00    -0.274 OA
ATOM     17  N   UNL     1       4.463   5.644  -3.233  0.00  0.00    -0.239 N 
ATOM     18  C   UNL     1       5.001   6.785  -2.756  0.00  0.00    +0.303 C 
ATOM     19  O   UNL     1       4.383   7.461  -1.958  0.00  0.00    -0.253 OA
ATOM     20  N   UNL     1       6.224   7.175  -3.165  0.00  0.00    -0.313 N 
ATOM     21  H   UNL     1       5.022   5.032  -3.955  0.00  0.00    +0.159 HD
ATOM     22  H   UNL     1       6.663   8.105  -2.776  0.00  0.00    +0.146 HD
ATOM     23  H   UNL     1       6.784   6.562  -3.888  0.00  0.00    +0.146 HD
ENDBRANCH  14  15
ENDBRANCH  12  14
ENDBRANCH   1  12
BRANCH  11  24
ATOM     24  C   UNL     1      -0.753   1.593  -1.232  0.00  0.00    +0.132 C 
BRANCH  24  25
ATOM     25  C   UNL     1      -0.013   1.086   0.008  0.00  0.00    +0.058 C 
BRANCH  25  26
ATOM     26  C   UNL     1      -0.718   1.572   1.248  0.00  0.00    -0.027 A 
ATOM     27  C   UNL     1      -1.568   0.726   1.936  0.00  0.00    +0.006 A 
ATOM     28  C   UNL     1      -2.215   1.171   3.073  0.00  0.00    +0.020 A 
ATOM     29  C   UNL     1      -2.012   2.463   3.524  0.00  0.00    +0.042 A 
ATOM     30  C   UNL     1      -1.162   3.310   2.836  0.00  0.00    +0.040 A 
ATOM     31  C   UNL     1      -0.510   2.862   1.701  0.00  0.00    +0.046 A 
ATOM     32 CL   UNL     1       0.562   3.922   0.840  0.00  0.00    -0.083 Cl
ATOM     33 CL   UNL     1      -2.825   3.022   4.952  0.00  0.00    -0.083 Cl
ENDBRANCH  25  26
ENDBRANCH  24  25
ENDBRANCH  11  24
TORSDOF 6
