REMARK  Name = ZINC21316038
REMARK  6 active torsions:
REMARK  status: ('A' for Active; 'I' for Inactive)
REMARK    1  A    between atoms: C_11  and  C_13
REMARK    2  A    between atoms: C_13  and  S_14
REMARK    3  A    between atoms: S_14  and  C_15
REMARK    4  A    between atoms: N_19  and  N_20
REMARK    5  A    between atoms: N_21  and  N_22
REMARK    6  A    between atoms: C_23  and  C_24
REMARK                            x       y       z     vdW  Elec       q    Type
REMARK                         _______ _______ _______ _____ _____    ______ ____
ROOT
ATOM      1  C   UNL     1       0.639   3.495   0.015  0.00  0.00    +0.210 A 
ATOM      2  N   UNL     1      -0.673   3.478   0.027  0.00  0.00    -0.119 NA
ATOM      3  N   UNL     1      -1.088   2.139   0.018  0.00  0.00    -0.109 NA
ATOM      4  C   UNL     1      -0.017   1.383   0.010  0.00  0.00    +0.254 A 
ATOM      5  N   UNL     1       1.078   2.202   0.004  0.00  0.00    -0.211 N 
ATOM      6  N   UNL     1       0.002  -0.004   0.002  0.00  0.00    -0.204 N 
ATOM      7  H   UNL     1       0.962  -0.541  -0.010  0.00  0.00    +0.177 HD
ENDROOT
BRANCH   5   8
ATOM      8  N   UNL     1       2.383   1.797  -0.010  0.00  0.00    -0.294 N 
ATOM      9  H   UNL     1       2.626   0.725  -0.018  0.00  0.00    +0.163 HD
ATOM     10  H   UNL     1       3.190   2.544  -0.014  0.00  0.00    +0.163 HD
ENDBRANCH   5   8
BRANCH   6  11
ATOM     11  N   UNL     1      -1.202  -0.721   0.010  0.00  0.00    -0.188 NA
ATOM     12  C   UNL     1      -1.184  -2.019   0.003  0.00  0.00    +0.138 C 
BRANCH  12  13
ATOM     13  C   UNL     1      -2.450  -2.774   0.011  0.00  0.00    -0.005 A 
ATOM     14  C   UNL     1      -3.672  -2.095   0.032  0.00  0.00    +0.010 A 
ATOM     15  C   UNL     1      -4.853  -2.807   0.033  0.00  0.00    +0.016 A 
ATOM     16  C   UNL     1      -4.830  -4.191   0.026  0.00  0.00    +0.018 A 
ATOM     17  C   UNL     1      -3.624  -4.870   0.011  0.00  0.00    +0.016 A 
ATOM     18  C   UNL     1      -2.435  -4.171   0.003  0.00  0.00    +0.010 A 
ATOM     19 BR   UNL     1      -6.455  -5.159   0.037  0.00  0.00    -0.050 Br
ENDBRANCH  12  13
ENDBRANCH   6  11
BRANCH   1  20
ATOM     20  S   UNL     1       1.655   4.934   0.013  0.00  0.00    -0.075 S 
BRANCH  20  21
ATOM     21  C   UNL     1       0.471   6.308   0.032  0.00  0.00    +0.173 C 
BRANCH  21  32
ATOM     22  C   UNL     1       2.103  14.652   0.064  0.00  0.00    +0.002 A 
ATOM     23  C   UNL     1       3.460  14.364   0.050  0.00  0.00    +0.001 A 
ATOM     24  C   UNL     1       3.872  13.044   0.039  0.00  0.00    +0.017 A 
ATOM     25  C   UNL     1       2.934  12.041   0.042  0.00  0.00    +0.041 A 
ATOM     26  C   UNL     1       1.544  12.297   0.055  0.00  0.00    +0.080 A 
ATOM     27  C   UNL     1       1.160  13.658   0.067  0.00  0.00    +0.029 A 
ATOM     28  N   UNL     1       0.749  11.206   0.056  0.00  0.00    -0.225 NA
ATOM     29  C   UNL     1       1.228   9.983   0.045  0.00  0.00    +0.165 A 
ATOM     30  S   UNL     1       2.992  10.266   0.038  0.00  0.00    -0.052 S 
ATOM     31  N   UNL     1       0.540   8.781   0.045  0.00  0.00    -0.264 N 
ATOM     32  C   UNL     1       1.219   7.616   0.032  0.00  0.00    +0.229 C 
ATOM     33  O   UNL     1       2.431   7.622   0.021  0.00  0.00    -0.275 OA
ATOM     34  H   UNL     1      -0.560   8.776   0.055  0.00  0.00    +0.157 HD
ENDBRANCH  21  32
ENDBRANCH  20  21
ENDBRANCH   1  20
TORSDOF 6
