REMARK  Name = ZINC17081024
REMARK  6 active torsions:
REMARK  status: ('A' for Active; 'I' for Inactive)
REMARK    1  A    between atoms: C_1  and  C_2
REMARK    2  A    between atoms: C_9  and  N_15
REMARK    3  A    between atoms: C_10  and  C_11
REMARK    4  A    between atoms: C_11  and  O_13
REMARK    5  A    between atoms: O_13  and  C_14
REMARK    6  A    between atoms: C_16  and  C_18
REMARK                            x       y       z     vdW  Elec       q    Type
REMARK                         _______ _______ _______ _____ _____    ______ ____
ROOT
ATOM      1  N   UNL     1      -0.219   8.149   0.048  0.00  0.00    -0.275 N 
ATOM      2  C   UNL     1      -1.349   7.415   0.054  0.00  0.00    +0.254 C 
ATOM      3  O   UNL     1      -2.433   7.967   0.067  0.00  0.00    -0.270 OA
ATOM      4  H   UNL     1       0.761   7.649   0.037  0.00  0.00    +0.156 HD
ENDROOT
BRANCH   2   5
ATOM      5  C   UNL     1      -1.272   5.946   0.046  0.00  0.00    +0.097 A 
ATOM      6  C   UNL     1      -0.048   5.305   0.030  0.00  0.00    +0.030 A 
ATOM      7  C   UNL     1      -0.033   3.841   0.023  0.00  0.00    +0.018 A 
ATOM      8  C   UNL     1       1.183   3.145   0.008  0.00  0.00    +0.011 A 
ATOM      9  C   UNL     1       1.183   1.779   0.000  0.00  0.00    +0.001 A 
ATOM     10  C   UNL     1      -0.013   1.076   0.008  0.00  0.00    +0.004 A 
ATOM     11  C   UNL     1      -1.220   1.742   0.017  0.00  0.00    +0.047 A 
ATOM     12  C   UNL     1      -1.246   3.132   0.031  0.00  0.00    +0.137 A 
ATOM     13  O   UNL     1      -2.429   3.785   0.045  0.00  0.00    -0.439 OA
ATOM     14  C   UNL     1      -2.499   5.130   0.052  0.00  0.00    +0.205 A 
ATOM     15  N   UNL     1      -3.665   5.717   0.065  0.00  0.00    -0.369 N 
ATOM     16  H   UNL     1      -4.585   5.113   0.070  0.00  0.00    +0.159 HD
ATOM     17  H   UNL     1      -3.728   6.815   0.072  0.00  0.00    +0.159 HD
ENDBRANCH   2   5
BRANCH   1  25
ATOM     18  C   UNL     1      -1.062  15.924   0.003  0.00  0.00    +0.008 C 
ATOM     19  C   UNL     1      -0.522  14.524  -0.295  0.00  0.00    -0.009 C 
ATOM     20  C   UNL     1       0.744  14.275   0.529  0.00  0.00    +0.008 C 
ATOM     21  C   UNL     1       1.426  12.989   0.060  0.00  0.00    +0.037 C 
ATOM     22  C   UNL     1       0.401  11.861   0.062  0.00  0.00    -0.021 A 
ATOM     23  C   UNL     1      -0.924  12.125   0.076  0.00  0.00    -0.004 A 
ATOM     24  S   UNL     1      -1.703  10.536   0.075  0.00  0.00    -0.077 S 
ATOM     25  C   UNL     1      -0.291   9.532   0.056  0.00  0.00    +0.087 A 
ATOM     26  C   UNL     1       0.751  10.451   0.058  0.00  0.00    +0.091 A 
ATOM     27  C   UNL     1      -1.576  13.474   0.087  0.00  0.00    +0.046 C 
BRANCH  26  28
ATOM     28  C   UNL     1       2.148  10.015   0.051  0.00  0.00    +0.342 C 
ATOM     29  O   UNL     1       2.725   9.839  -1.006  0.00  0.00    -0.245 OA
BRANCH  28  30
ATOM     30  O   UNL     1       2.796   9.807   1.216  0.00  0.00    -0.464 OA
ATOM     31  C   UNL     1       4.180   9.376   1.133  0.00  0.00    +0.280 C 
ENDBRANCH  28  30
ENDBRANCH  26  28
ENDBRANCH   1  25
TORSDOF 4
