REMARK  Name = ZINC57510476
REMARK  11 active torsions:
REMARK  status: ('A' for Active; 'I' for Inactive)
REMARK    1  A    between atoms: C_1  and  C_2
REMARK    2  A    between atoms: C_5  and  N_9
REMARK    3  A    between atoms: C_6  and  C_8
REMARK    4  A    between atoms: C_10  and  C_12
REMARK    5  A    between atoms: C_12  and  S_13
REMARK    6  A    between atoms: S_13  and  C_14
REMARK    7  A    between atoms: C_17  and  S_21
REMARK    8  A    between atoms: C_18  and  N_20
REMARK    9  A    between atoms: S_21  and  C_24
REMARK   10  A    between atoms: C_26  and  C_31
REMARK   11  A    between atoms: C_29  and  C_30
REMARK                            x       y       z     vdW  Elec       q    Type
REMARK                         _______ _______ _______ _____ _____    ______ ____
ROOT
ATOM      1  C   UNL     1      -0.356  -8.692  -2.728  0.00  0.00    +0.190 A 
ATOM      2  N   UNL     1      -0.335  -9.227  -1.516  0.00  0.00    -0.228 NA
ATOM      3  C   UNL     1      -0.409 -10.540  -1.349  0.00  0.00    +0.144 A 
ATOM      4  C   UNL     1      -0.509 -11.357  -2.459  0.00  0.00    +0.151 A 
ATOM      5  C   UNL     1      -0.529 -10.764  -3.723  0.00  0.00    +0.146 A 
ATOM      6  N   UNL     1      -0.456  -9.440  -3.817  0.00  0.00    -0.205 NA
ENDROOT
BRANCH   5   7
ATOM      7  N   UNL     1      -0.628 -11.545  -4.864  0.00  0.00    -0.342 N 
ATOM      8  H   UNL     1      -0.684 -12.510  -4.787  0.00  0.00    +0.144 HD
ATOM      9  H   UNL     1      -0.641 -11.126  -5.739  0.00  0.00    +0.144 HD
ENDBRANCH   5   7
BRANCH   4  10
ATOM     10  S   UNL     1      -0.610 -13.107  -2.283  0.00  0.00    +0.030 S 
ATOM     11  O   UNL     1       0.344 -13.661  -3.178  0.00  0.00    -0.164 OA
ATOM     12  O   UNL     1      -0.591 -13.376  -0.887  0.00  0.00    -0.164 OA
BRANCH  10  13
ATOM     13  C   UNL     1      -2.196 -13.600  -2.869  0.00  0.00    +0.097 A 
ATOM     14  C   UNL     1      -2.300 -14.404  -3.989  0.00  0.00    +0.031 A 
ATOM     15  C   UNL     1      -3.545 -14.790  -4.449  0.00  0.00    -0.049 A 
ATOM     16  C   UNL     1      -4.686 -14.373  -3.789  0.00  0.00    +0.004 A 
ATOM     17  C   UNL     1      -4.582 -13.570  -2.670  0.00  0.00    +0.005 A 
ATOM     18  C   UNL     1      -3.337 -13.187  -2.207  0.00  0.00    -0.025 A 
ATOM     19  C   UNL     1      -3.224 -12.315  -0.983  0.00  0.00    +0.046 C 
ATOM     20  C   UNL     1      -3.658 -15.666  -5.670  0.00  0.00    +0.044 C 
ENDBRANCH  10  13
ENDBRANCH   4  10
BRANCH   1  21
ATOM     21  S   UNL     1      -0.255  -6.941  -2.895  0.00  0.00    -0.077 S 
BRANCH  21  22
ATOM     22  C   UNL     1      -0.134  -6.343  -1.187  0.00  0.00    +0.173 C 
BRANCH  22  24
ATOM     23  N   UNL     1       0.059  -4.170  -0.021  0.00  0.00    -0.285 N 
ATOM     24  C   UNL     1      -0.040  -4.839  -1.187  0.00  0.00    +0.227 C 
ATOM     25  O   UNL     1      -0.054  -4.230  -2.236  0.00  0.00    -0.275 OA
ATOM     26  H   UNL     1       0.135  -4.658   0.814  0.00  0.00    +0.155 HD
BRANCH  23  31
ATOM     27  C   UNL     1       0.025   1.503   0.005  0.00  0.00    +0.044 C 
ATOM     28  C   UNL     1       0.034  -0.004  -0.002  0.00  0.00    -0.050 A 
ATOM     29  C   UNL     1       0.632  -0.685  -1.046  0.00  0.00    +0.005 A 
ATOM     30  C   UNL     1       0.641  -2.066  -1.055  0.00  0.00    +0.024 A 
ATOM     31  C   UNL     1       0.051  -2.771  -0.014  0.00  0.00    +0.036 A 
ATOM     32  C   UNL     1      -0.548  -2.083   1.033  0.00  0.00    -0.029 A 
ATOM     33  C   UNL     1      -0.550  -0.702   1.039  0.00  0.00    +0.008 A 
ATOM     34  C   UNL     1      -1.190  -2.843   2.165  0.00  0.00    +0.045 C 
ENDBRANCH  23  31
ENDBRANCH  22  24
ENDBRANCH  21  22
ENDBRANCH   1  21
TORSDOF 7
