REMARK  Name = ZINC11610278
REMARK  6 active torsions:
REMARK  status: ('A' for Active; 'I' for Inactive)
REMARK    1  A    between atoms: C_1  and  C_2
REMARK    2  A    between atoms: N_4  and  C_5
REMARK    3  A    between atoms: C_13  and  C_16
REMARK    4  A    between atoms: C_16  and  N_17
REMARK    5  A    between atoms: C_20  and  C_24
REMARK    6  A    between atoms: C_20  and  C_25
REMARK                            x       y       z     vdW  Elec       q    Type
REMARK                         _______ _______ _______ _____ _____    ______ ____
ROOT
ATOM      1  C   UNL     1       2.414   7.068   3.859  0.00  0.00    +0.174 C 
ENDROOT
BRANCH   1   8
ATOM      2  C   UNL     1      -0.401   2.561   7.942  0.00  0.00    +0.110 C 
ATOM      3  C   UNL     1       0.392   3.453   7.023  0.00  0.00    +0.223 C 
ATOM      4  O   UNL     1      -0.171   4.311   6.376  0.00  0.00    -0.275 OA
ATOM      5  N   UNL     1       1.727   3.297   6.919  0.00  0.00    -0.219 N 
ATOM      6  C   UNL     1       2.473   4.187   6.152  0.00  0.00    +0.172 A 
ATOM      7  N   UNL     1       2.054   5.180   5.393  0.00  0.00    -0.228 NA
ATOM      8  C   UNL     1       2.904   5.935   4.724  0.00  0.00    +0.068 A 
ATOM      9  C   UNL     1       4.228   5.665   4.828  0.00  0.00    +0.073 A 
ATOM     10  S   UNL     1       4.196   4.272   5.948  0.00  0.00    -0.060 S 
BRANCH   5  11
ATOM     11  C   UNL     1       2.363   2.241   7.583  0.00  0.00    +0.043 A 
ATOM     12  C   UNL     1       2.760   2.389   8.905  0.00  0.00    +0.024 A 
ATOM     13  C   UNL     1       3.381   1.343   9.560  0.00  0.00    +0.002 A 
ATOM     14  C   UNL     1       3.619   0.154   8.895  0.00  0.00    +0.000 A 
ATOM     15  C   UNL     1       3.230   0.005   7.577  0.00  0.00    +0.002 A 
ATOM     16  C   UNL     1       2.603   1.045   6.919  0.00  0.00    +0.024 A 
ENDBRANCH   5  11
ENDBRANCH   1   8
BRANCH   1  17
ATOM     17  N   UNL     1       2.056   6.552   2.536  0.00  0.00    -0.218 N 
ATOM     18  C   UNL     1       2.916   6.469   1.497  0.00  0.00    +0.251 C 
ATOM     19  O   UNL     1       4.084   6.794   1.481  0.00  0.00    -0.272 OA
ATOM     20  C   UNL     1       2.114   5.882   0.352  0.00  0.00    +0.135 C 
ATOM     21  N   UNL     1       0.773   5.686   0.930  0.00  0.00    -0.281 N 
ATOM     22  C   UNL     1       0.839   6.106   2.206  0.00  0.00    +0.310 C 
ATOM     23  O   UNL     1      -0.103   6.083   2.974  0.00  0.00    -0.252 OA
ATOM     24  C   UNL     1       2.057   6.860  -0.823  0.00  0.00    +0.047 C 
ATOM     25  H   UNL     1      -0.006   5.325   0.478  0.00  0.00    +0.152 HD
BRANCH  20  26
ATOM     26  C   UNL     1       2.700   4.564  -0.085  0.00  0.00    -0.014 A 
ATOM     27  C   UNL     1       4.063   4.350   0.005  0.00  0.00    +0.006 A 
ATOM     28  C   UNL     1       4.602   3.142  -0.396  0.00  0.00    +0.001 A 
ATOM     29  C   UNL     1       3.777   2.147  -0.887  0.00  0.00    +0.015 A 
ATOM     30  C   UNL     1       2.414   2.360  -0.976  0.00  0.00    +0.018 A 
ATOM     31  C   UNL     1       1.875   3.570  -0.575  0.00  0.00    +0.021 A 
ATOM     32 BR   UNL     1       1.286   0.999  -1.647  0.00  0.00    -0.050 Br
ENDBRANCH  20  26
ENDBRANCH   1  17
TORSDOF 4
