REMARK  Name = ZINC31118492
REMARK  12 active torsions:
REMARK  status: ('A' for Active; 'I' for Inactive)
REMARK    1  A    between atoms: C_1  and  C_2
REMARK    2  A    between atoms: C_2  and  C_4
REMARK    3  A    between atoms: C_2  and  N_26
REMARK    4  A    between atoms: C_4  and  C_5
REMARK    5  A    between atoms: N_7  and  C_8
REMARK    6  A    between atoms: C_8  and  C_9
REMARK    7  A    between atoms: C_9  and  C_10
REMARK    8  A    between atoms: C_10  and  C_11
REMARK    9  A    between atoms: C_12  and  C_24
REMARK   10  A    between atoms: C_13  and  N_23
REMARK   11  A    between atoms: N_14  and  C_16
REMARK   12  A    between atoms: C_27  and  C_29
REMARK                            x       y       z     vdW  Elec       q    Type
REMARK                         _______ _______ _______ _____ _____    ______ ____
ROOT
ATOM      1  C   UNL     1      -0.019   1.526   0.010  0.00  0.00    +0.025 C 
ENDROOT
BRANCH   1   2
ATOM      2  C   UNL     1       1.417   2.055  -0.000  0.00  0.00    +0.104 C 
BRANCH   2   5
ATOM      3  C   UNL     1       2.555   4.210   0.000  0.00  0.00    +0.215 C 
ATOM      4  O   UNL     1       3.613   3.618  -0.013  0.00  0.00    -0.276 OA
ATOM      5  N   UNL     1       1.397   3.520   0.008  0.00  0.00    -0.315 N 
ATOM      6  H   UNL     1       0.437   4.057   0.020  0.00  0.00    +0.149 HD
BRANCH   3   7
ATOM      7  C   UNL     1       2.534   5.717   0.009  0.00  0.00    +0.117 C 
BRANCH   7   9
ATOM      8  C   UNL     1       3.950   7.772  -0.120  0.00  0.00    +0.028 C 
ATOM      9  C   UNL     1       3.970   6.246  -0.002  0.00  0.00    +0.079 C 
BRANCH   9  10
ATOM     10  N   UNL     1       4.642   5.861   1.241  0.00  0.00    -0.308 N 
ATOM     11  C   UNL     1       5.985   5.752   1.276  0.00  0.00    +0.244 C 
ATOM     12  O   UNL     1       6.638   5.974   0.275  0.00  0.00    -0.270 OA
ATOM     13  H   UNL     1       4.050   5.660   2.147  0.00  0.00    +0.149 HD
BRANCH  11  14
ATOM     14  C   UNL     1       6.663   5.363   2.530  0.00  0.00    +0.037 A 
ATOM     15  C   UNL     1       5.916   5.114   3.683  0.00  0.00    +0.013 A 
ATOM     16  C   UNL     1       6.555   4.746   4.849  0.00  0.00    +0.001 A 
ATOM     17  C   UNL     1       7.933   4.635   4.881  0.00  0.00    +0.000 A 
ATOM     18  C   UNL     1       8.680   4.887   3.744  0.00  0.00    +0.001 A 
ATOM     19  C   UNL     1       8.054   5.250   2.569  0.00  0.00    +0.013 A 
ENDBRANCH  11  14
ENDBRANCH   9  10
ENDBRANCH   7   9
ENDBRANCH   3   7
ENDBRANCH   2   5
ENDBRANCH   1   2
BRANCH   1  20
ATOM     20  C   UNL     1       0.002  -0.004   0.002  0.00  0.00    +0.060 C 
BRANCH  20  21
ATOM     21  C   UNL     1      -1.412  -0.526   0.013  0.00  0.00    +0.083 A 
ATOM     22  C   UNL     1      -2.200  -0.806  -1.127  0.00  0.00    +0.114 A 
ATOM     23  C   UNL     1      -3.432  -1.266  -0.668  0.00  0.00    +0.138 A 
ATOM     24  N   UNL     1      -3.379  -1.259   0.683  0.00  0.00    -0.217 N 
ATOM     25  N   UNL     1      -2.116  -0.801   1.075  0.00  0.00    -0.168 NA
BRANCH  24  26
ATOM     26  C   UNL     1      -4.414  -1.649   1.546  0.00  0.00    +0.068 A 
ATOM     27  C   UNL     1      -5.735  -1.393   1.206  0.00  0.00    +0.030 A 
ATOM     28  C   UNL     1      -6.753  -1.782   2.055  0.00  0.00    +0.040 A 
ATOM     29  C   UNL     1      -6.455  -2.417   3.249  0.00  0.00    +0.124 A 
ATOM     30  C   UNL     1      -5.138  -2.668   3.592  0.00  0.00    +0.040 A 
ATOM     31  C   UNL     1      -4.117  -2.285   2.743  0.00  0.00    +0.030 A 
ATOM     32  F   UNL     1      -7.452  -2.791   4.081  0.00  0.00    -0.205 F 
ENDBRANCH  24  26
BRANCH  23  33
ATOM     33  N   UNL     1      -4.505  -1.656  -1.446  0.00  0.00    -0.342 N 
ATOM     34  H   UNL     1      -5.433  -2.003  -0.969  0.00  0.00    +0.144 HD
ATOM     35  H   UNL     1      -4.431  -1.619  -2.543  0.00  0.00    +0.144 HD
ENDBRANCH  23  33
BRANCH  22  36
ATOM     36  C   UNL     1      -1.806  -0.649  -2.495  0.00  0.00    +0.104 C 
ATOM     37  N   UNL     1      -1.494  -0.523  -3.580  0.00  0.00    -0.191 NA
ENDBRANCH  22  36
ENDBRANCH  20  21
ENDBRANCH   1  20
TORSDOF 11
