REMARK  Name = ZINC12560920
REMARK  6 active torsions:
REMARK  status: ('A' for Active; 'I' for Inactive)
REMARK    1  A    between atoms: C_1  and  C_2
REMARK    2  A    between atoms: C_2  and  N_3
REMARK    3  A    between atoms: N_6  and  C_9
REMARK    4  A    between atoms: C_14  and  N_15
REMARK    5  A    between atoms: N_15  and  S_16
REMARK    6  A    between atoms: S_16  and  C_19
REMARK                            x       y       z     vdW  Elec       q    Type
REMARK                         _______ _______ _______ _____ _____    ______ ____
ROOT
ATOM      1  N   UNL     1      -6.242  -2.492  -0.204  0.00  0.00    -0.214 N 
ATOM      2  H   UNL     1      -6.019  -1.570  -0.001  0.00  0.00    +0.174 HD
ENDROOT
BRANCH   1   8
ATOM      3  C   UNL     1      -4.182  -2.933  -1.399  0.00  0.00    +0.052 A 
ATOM      4  C   UNL     1      -3.494  -3.619  -2.388  0.00  0.00    +0.025 A 
ATOM      5  C   UNL     1      -4.156  -4.539  -3.180  0.00  0.00    +0.002 A 
ATOM      6  C   UNL     1      -5.504  -4.777  -2.990  0.00  0.00    +0.002 A 
ATOM      7  C   UNL     1      -6.199  -4.098  -2.006  0.00  0.00    +0.026 A 
ATOM      8  C   UNL     1      -5.542  -3.178  -1.204  0.00  0.00    +0.069 A 
BRANCH   3  12
ATOM      9  N   UNL     1      -1.449  -0.429   0.442  0.00  0.00    +0.382 N 
ATOM     10  C   UNL     1      -1.972  -0.139  -0.900  0.00  0.00    -0.060 C 
ATOM     11  C   UNL     1      -3.435  -0.585  -0.985  0.00  0.00    +0.086 C 
ATOM     12  N   UNL     1      -3.514  -2.002  -0.595  0.00  0.00    -0.332 N 
ATOM     13  C   UNL     1      -2.870  -2.412   0.662  0.00  0.00    +0.086 C 
ATOM     14  C   UNL     1      -1.434  -1.879   0.669  0.00  0.00    -0.060 C 
ATOM     15  H   UNL     1      -2.038   0.013   1.132  0.00  0.00    -0.082 HD
BRANCH   9  17
ATOM     16  C   UNL     1      -0.113   1.624   0.444  0.00  0.00    -0.017 C 
ATOM     17  C   UNL     1      -0.083   0.098   0.557  0.00  0.00    -0.082 C 
ENDBRANCH   9  17
ENDBRANCH   3  12
ENDBRANCH   1   8
BRANCH   1  18
ATOM     18  S   UNL     1      -7.450  -3.255   0.633  0.00  0.00    +0.072 S 
ATOM     19  O   UNL     1      -7.868  -2.357   1.651  0.00  0.00    -0.150 OA
ATOM     20  O   UNL     1      -8.347  -3.779  -0.336  0.00  0.00    -0.150 OA
BRANCH  18  21
ATOM     21  C   UNL     1      -6.725  -4.638   1.449  0.00  0.00    +0.109 A 
ATOM     22  C   UNL     1      -6.666  -5.863   0.809  0.00  0.00    +0.030 A 
ATOM     23  C   UNL     1      -6.099  -6.950   1.445  0.00  0.00    +0.025 A 
ATOM     24  C   UNL     1      -5.587  -6.811   2.729  0.00  0.00    +0.037 A 
ATOM     25  C   UNL     1      -5.647  -5.580   3.368  0.00  0.00    -0.024 A 
ATOM     26  C   UNL     1      -6.211  -4.496   2.725  0.00  0.00    +0.034 A 
ATOM     27  C   UNL     1      -5.091  -5.429   4.760  0.00  0.00    +0.046 C 
ATOM     28  C   UNL     1      -5.306  -6.727   5.539  0.00  0.00    +0.101 C 
ATOM     29  C   UNL     1      -4.852  -7.902   4.714  0.00  0.00    +0.218 C 
ATOM     30  O   UNL     1      -4.337  -8.854   5.261  0.00  0.00    -0.275 OA
ATOM     31  N   UNL     1      -5.011  -7.907   3.378  0.00  0.00    -0.285 N 
ATOM     32  H   UNL     1      -4.724  -8.677   2.862  0.00  0.00    +0.155 HD
ENDBRANCH  18  21
ENDBRANCH   1  18
TORSDOF 5
