REMARK  Name = ZINC27527882
REMARK  12 active torsions:
REMARK  status: ('A' for Active; 'I' for Inactive)
REMARK    1  A    between atoms: C_1  and  C_2
REMARK    2  A    between atoms: C_5  and  C_8
REMARK    3  A    between atoms: N_10  and  C_11
REMARK    4  A    between atoms: C_11  and  C_22
REMARK    5  A    between atoms: C_12  and  C_13
REMARK    6  A    between atoms: C_16  and  C_19
REMARK    7  A    between atoms: C_19  and  C_20
REMARK    8  A    between atoms: C_19  and  C_21
REMARK    9  A    between atoms: N_24  and  C_25
REMARK   10  A    between atoms: C_26  and  C_38
REMARK   11  A    between atoms: N_27  and  C_37
REMARK   12  A    between atoms: N_28  and  C_31
REMARK                            x       y       z     vdW  Elec       q    Type
REMARK                         _______ _______ _______ _____ _____    ______ ____
ROOT
ATOM      1  C   UNL     1       0.612  -2.674  -0.625  0.00  0.00    +0.097 C 
ATOM      2  C   UNL     1      -0.410  -3.202   0.087  0.00  0.00    +0.036 C 
ENDROOT
BRANCH   2   3
ATOM      3  C   UNL     1      -0.530  -4.662   0.229  0.00  0.00    -0.023 A 
ATOM      4  C   UNL     1       0.192  -5.512  -0.615  0.00  0.00    +0.008 A 
ATOM      5  C   UNL     1       0.079  -6.878  -0.472  0.00  0.00    +0.004 A 
ATOM      6  C   UNL     1      -0.756  -7.410   0.495  0.00  0.00    -0.045 A 
ATOM      7  C   UNL     1      -1.479  -6.575   1.331  0.00  0.00    +0.004 A 
ATOM      8  C   UNL     1      -1.372  -5.207   1.204  0.00  0.00    +0.008 A 
BRANCH   6   9
ATOM      9  C   UNL     1      -0.880  -8.905   0.640  0.00  0.00    +0.013 C 
ATOM     10  C   UNL     1      -1.399  -9.503  -0.669  0.00  0.00    +0.012 C 
ATOM     11  C   UNL     1       0.492  -9.501   0.964  0.00  0.00    +0.012 C 
ENDBRANCH   6   9
ENDBRANCH   2   3
BRANCH   1  14
ATOM     12  C   UNL     1       1.953  -3.487  -2.412  0.00  0.00    +0.248 C 
ATOM     13  O   UNL     1       1.419  -2.691  -3.160  0.00  0.00    -0.270 OA
ATOM     14  N   UNL     1       1.632  -3.501  -1.103  0.00  0.00    -0.277 N 
ATOM     15  H   UNL     1       2.173  -4.163  -0.411  0.00  0.00    +0.155 HD
BRANCH  12  20
ATOM     16  C   UNL     1       5.850  -7.194  -4.457  0.00  0.00    +0.044 C 
ATOM     17  C   UNL     1       4.830  -6.223  -3.921  0.00  0.00    -0.050 A 
ATOM     18  C   UNL     1       4.307  -5.247  -4.750  0.00  0.00    +0.004 A 
ATOM     19  C   UNL     1       3.372  -4.355  -4.266  0.00  0.00    +0.013 A 
ATOM     20  C   UNL     1       2.954  -4.439  -2.937  0.00  0.00    +0.037 A 
ATOM     21  C   UNL     1       3.490  -5.423  -2.105  0.00  0.00    +0.013 A 
ATOM     22  C   UNL     1       4.420  -6.312  -2.603  0.00  0.00    +0.004 A 
ENDBRANCH  12  20
ENDBRANCH   1  14
BRANCH   1  23
ATOM     23  C   UNL     1       0.649  -1.229  -0.896  0.00  0.00    +0.263 C 
ATOM     24  O   UNL     1       1.568  -0.753  -1.536  0.00  0.00    -0.268 OA
ATOM     25  N   UNL     1      -0.335  -0.432  -0.435  0.00  0.00    -0.275 N 
ATOM     26  H   UNL     1      -1.122  -0.847   0.212  0.00  0.00    +0.155 HD
BRANCH  25  27
ATOM     27  C   UNL     1      -0.356   0.933  -0.781  0.00  0.00    +0.122 A 
ATOM     28  C   UNL     1      -0.324   1.979   0.075  0.00  0.00    +0.059 A 
ATOM     29  N   UNL     1      -0.358   3.140  -0.651  0.00  0.00    -0.282 N 
ATOM     30  N   UNL     1      -0.421   2.827  -2.014  0.00  0.00    -0.216 N 
ATOM     31  C   UNL     1      -0.422   1.484  -2.136  0.00  0.00    +0.293 A 
ATOM     32  O   UNL     1      -0.469   0.850  -3.175  0.00  0.00    -0.264 OA
ATOM     33  C   UNL     1      -0.337   4.493  -0.090  0.00  0.00    +0.171 C 
ATOM     34  C   UNL     1      -0.260   1.883   1.578  0.00  0.00    +0.067 C 
BRANCH  30  35
ATOM     35  C   UNL     1      -0.474   3.747  -3.066  0.00  0.00    +0.067 A 
ATOM     36  C   UNL     1      -1.347   4.826  -3.004  0.00  0.00    +0.028 A 
ATOM     37  C   UNL     1      -1.393   5.736  -4.042  0.00  0.00    +0.002 A 
ATOM     38  C   UNL     1      -0.579   5.568  -5.147  0.00  0.00    +0.000 A 
ATOM     39  C   UNL     1       0.287   4.492  -5.214  0.00  0.00    +0.002 A 
ATOM     40  C   UNL     1       0.342   3.582  -4.177  0.00  0.00    +0.028 A 
ENDBRANCH  30  35
ENDBRANCH  25  27
ENDBRANCH   1  23
TORSDOF 7
