REMARK  Name = ZINC35556571
REMARK  5 active torsions:
REMARK  status: ('A' for Active; 'I' for Inactive)
REMARK    1  A    between atoms: C_1  and  C_2
REMARK    2  A    between atoms: C_2  and  N_3
REMARK    3  A    between atoms: N_3  and  C_4
REMARK    4  A    between atoms: C_4  and  C_6
REMARK    5  A    between atoms: C_4  and  C_13
REMARK                            x       y       z     vdW  Elec       q    Type
REMARK                         _______ _______ _______ _____ _____    ______ ____
ROOT
ATOM      1  C   UNL     1       0.710  -1.947  -1.215  0.00  0.00    -0.010 C 
ENDROOT
BRANCH   1   2
ATOM      2  C   UNL     1      -0.700  -2.467  -1.328  0.00  0.00    -0.054 A 
ATOM      3  C   UNL     1      -1.600  -1.841  -2.172  0.00  0.00    +0.004 A 
ATOM      4  C   UNL     1      -2.894  -2.313  -2.281  0.00  0.00    +0.030 A 
ATOM      5  C   UNL     1      -3.290  -3.417  -1.543  0.00  0.00    +0.087 A 
ATOM      6  C   UNL     1      -2.384  -4.049  -0.692  0.00  0.00    +0.157 A 
ATOM      7  C   UNL     1      -1.086  -3.571  -0.593  0.00  0.00    +0.051 A 
ATOM      8  O   UNL     1      -3.035  -5.083  -0.106  0.00  0.00    -0.408 OA
ATOM      9  C   UNL     1      -4.300  -5.118  -0.555  0.00  0.00    +0.419 A 
ATOM     10  O   UNL     1      -5.142  -5.929  -0.219  0.00  0.00    -0.223 OA
ATOM     11  N   UNL     1      -4.492  -4.115  -1.434  0.00  0.00    -0.288 N 
ATOM     12  H   UNL     1      -5.316  -3.916  -1.906  0.00  0.00    +0.172 HD
ENDBRANCH   1   2
BRANCH   1  13
ATOM     13  C   UNL     1       1.520  -2.432  -2.389  0.00  0.00    -0.057 A 
ATOM     14  C   UNL     1       1.423  -1.788  -3.609  0.00  0.00    +0.003 A 
ATOM     15  C   UNL     1       2.166  -2.233  -4.686  0.00  0.00    +0.014 A 
ATOM     16  C   UNL     1       3.007  -3.321  -4.543  0.00  0.00    +0.013 A 
ATOM     17  C   UNL     1       3.104  -3.965  -3.323  0.00  0.00    +0.014 A 
ATOM     18  C   UNL     1       2.365  -3.516  -2.245  0.00  0.00    +0.003 A 
ATOM     19  I   UNL     1       4.133  -3.996  -6.176  0.00  0.00    -0.044 I 
ENDBRANCH   1  13
BRANCH   1  20
ATOM     20  N   UNL     1       0.690  -0.478  -1.207  0.00  0.00    +0.386 N 
ATOM     21  H   UNL     1       0.202  -0.144  -2.024  0.00  0.00    -0.085 HD
ATOM     22  H   UNL     1       1.636  -0.129  -1.214  0.00  0.00    -0.085 HD
BRANCH  20  24
ATOM     23  C   UNL     1      -0.019   1.526   0.010  0.00  0.00    -0.017 C 
ATOM     24  C   UNL     1       0.002  -0.004   0.002  0.00  0.00    -0.085 C 
ENDBRANCH  20  24
ENDBRANCH   1  20
TORSDOF 4
