REMARK  Name = ZINC39691343
REMARK  11 active torsions:
REMARK  status: ('A' for Active; 'I' for Inactive)
REMARK    1  A    between atoms: C_1  and  C_2
REMARK    2  A    between atoms: C_2  and  C_3
REMARK    3  A    between atoms: C_3  and  C_4
REMARK    4  A    between atoms: C_3  and  C_6
REMARK    5  A    between atoms: C_4  and  C_5
REMARK    6  A    between atoms: C_10  and  C_19
REMARK    7  A    between atoms: N_21  and  C_22
REMARK    8  A    between atoms: C_22  and  C_23
REMARK    9  A    between atoms: C_23  and  N_24
REMARK   10  A    between atoms: C_25  and  C_27
REMARK   11  A    between atoms: C_27  and  C_28
REMARK                            x       y       z     vdW  Elec       q    Type
REMARK                         _______ _______ _______ _____ _____    ______ ____
ROOT
ATOM      1  C   UNL     1       4.385  -2.776  -2.662  0.00  0.00    +0.218 C 
ATOM      2  O   UNL     1       4.185  -2.147  -1.645  0.00  0.00    -0.275 OA
ATOM      3  N   UNL     1       5.647  -3.010  -3.073  0.00  0.00    -0.314 N 
ATOM      4  H   UNL     1       5.808  -3.513  -3.886  0.00  0.00    +0.149 HD
ENDROOT
BRANCH   1   9
ATOM      5  C   UNL     1       0.518  -2.150  -1.349  0.00  0.00    +0.219 C 
ATOM      6  O   UNL     1      -0.202  -2.728  -0.563  0.00  0.00    -0.275 OA
ATOM      7  N   UNL     1       1.184  -2.848  -2.291  0.00  0.00    -0.300 N 
ATOM      8  C   UNL     1       2.030  -2.318  -3.386  0.00  0.00    +0.121 C 
ATOM      9  C   UNL     1       3.223  -3.297  -3.467  0.00  0.00    +0.100 C 
ATOM     10  C   UNL     1       2.695  -4.609  -2.863  0.00  0.00    -0.004 C 
ATOM     11  C   UNL     1       1.241  -4.320  -2.461  0.00  0.00    +0.115 C 
ATOM     12  C   UNL     1       3.511  -4.990  -1.631  0.00  0.00    -0.010 C 
ATOM     13  C   UNL     1       3.004  -6.326  -1.082  0.00  0.00    -0.082 C 
ATOM     14  N   UNL     1       3.129  -7.361  -2.116  0.00  0.00    +0.379 N 
ATOM     15  C   UNL     1       2.268  -7.033  -3.259  0.00  0.00    -0.082 C 
ATOM     16  C   UNL     1       2.744  -5.726  -3.900  0.00  0.00    -0.010 C 
ATOM     17  H   UNL     1       4.088  -7.414  -2.423  0.00  0.00    -0.086 HD
ATOM     18  H   UNL     1       2.852  -8.252  -1.732  0.00  0.00    -0.086 HD
BRANCH   5  19
ATOM     19  C   UNL     1       0.668  -0.653  -1.275  0.00  0.00    +0.075 C 
BRANCH  19  21
ATOM     20  C   UNL     1      -0.244   1.527  -2.087  0.00  0.00    +0.004 C 
ATOM     21  C   UNL     1      -0.465   0.013  -2.058  0.00  0.00    +0.009 C 
ENDBRANCH  19  21
BRANCH  19  22
ATOM     22  C   UNL     1       0.608  -0.206   0.188  0.00  0.00    +0.009 C 
ATOM     23  C   UNL     1       1.819  -0.760   0.940  0.00  0.00    +0.004 C 
ENDBRANCH  19  22
ENDBRANCH   5  19
ENDBRANCH   1   9
BRANCH   3  24
ATOM     24  C   UNL     1       6.778  -2.504  -2.290  0.00  0.00    +0.123 C 
BRANCH  24  25
ATOM     25  C   UNL     1       8.089  -2.904  -2.970  0.00  0.00    +0.123 C 
BRANCH  25  26
ATOM     26  N   UNL     1       9.219  -2.398  -2.187  0.00  0.00    -0.314 N 
ATOM     27  C   UNL     1      10.481  -2.632  -2.598  0.00  0.00    +0.217 C 
ATOM     28  O   UNL     1      10.681  -3.261  -3.615  0.00  0.00    -0.275 OA
ATOM     29  H   UNL     1       9.059  -1.895  -1.374  0.00  0.00    +0.149 HD
BRANCH  27  30
ATOM     30  C   UNL     1      11.644  -2.111  -1.793  0.00  0.00    +0.131 C 
BRANCH  30  31
ATOM     31  C   UNL     1      12.935  -2.506  -2.462  0.00  0.00    -0.031 A 
ATOM     32  C   UNL     1      13.588  -3.636  -2.077  0.00  0.00    +0.005 A 
ATOM     33  C   UNL     1      14.783  -4.017  -2.684  0.00  0.00    +0.001 A 
ATOM     34  C   UNL     1      15.332  -3.269  -3.680  0.00  0.00    +0.008 A 
ATOM     35  C   UNL     1      14.687  -2.096  -4.105  0.00  0.00    -0.018 A 
ATOM     36  C   UNL     1      13.468  -1.712  -3.492  0.00  0.00    -0.014 A 
ATOM     37  C   UNL     1      12.820  -0.541  -3.921  0.00  0.00    +0.009 A 
ATOM     38  C   UNL     1      13.366   0.203  -4.921  0.00  0.00    +0.001 A 
ATOM     39  C   UNL     1      14.561  -0.178  -5.529  0.00  0.00    +0.001 A 
ATOM     40  C   UNL     1      15.223  -1.298  -5.130  0.00  0.00    +0.008 A 
ENDBRANCH  30  31
ENDBRANCH  27  30
ENDBRANCH  25  26
ENDBRANCH  24  25
ENDBRANCH   3  24
TORSDOF 9
