REMARK  Name = ZINC08772507
REMARK  10 active torsions:
REMARK  status: ('A' for Active; 'I' for Inactive)
REMARK    1  A    between atoms: C_1  and  O_2
REMARK    2  A    between atoms: O_2  and  C_3
REMARK    3  A    between atoms: C_5  and  C_18
REMARK    4  A    between atoms: C_8  and  O_9
REMARK    5  A    between atoms: O_9  and  C_10
REMARK    6  A    between atoms: C_10  and  C_11
REMARK    7  A    between atoms: N_20  and  C_21
REMARK    8  A    between atoms: C_21  and  C_22
REMARK    9  A    between atoms: C_22  and  C_24
REMARK   10  A    between atoms: C_22  and  N_59
REMARK                            x       y       z     vdW  Elec       q    Type
REMARK                         _______ _______ _______ _____ _____    ______ ____
ROOT
ATOM      1  C   UNL     1       2.856   0.349   0.574  0.00  0.00    +0.163 A 
ATOM      2  C   UNL     1       2.740   1.724   0.507  0.00  0.00    +0.062 A 
ATOM      3  C   UNL     1       1.477   2.312   0.402  0.00  0.00    +0.041 A 
ATOM      4  C   UNL     1       0.336   1.507   0.365  0.00  0.00    +0.032 A 
ATOM      5  C   UNL     1       0.458   0.135   0.431  0.00  0.00    +0.064 A 
ATOM      6  C   UNL     1       1.714  -0.449   0.536  0.00  0.00    +0.176 A 
ATOM      7 BR   UNL     1      -1.088  -0.953   0.380  0.00  0.00    -0.046 Br
ENDROOT
BRANCH   3   8
ATOM      8  C   UNL     1       1.349   3.780   0.330  0.00  0.00    +0.244 C 
ATOM      9  O   UNL     1       2.343   4.480   0.363  0.00  0.00    -0.270 OA
ATOM     10  N   UNL     1       0.130   4.346   0.229  0.00  0.00    -0.312 N 
ATOM     11  H   UNL     1      -0.663   3.788   0.203  0.00  0.00    +0.149 HD
BRANCH  10  12
ATOM     12  C   UNL     1       0.002   5.804   0.158  0.00  0.00    +0.097 C 
BRANCH  12  13
ATOM     13  C   UNL     1      -1.476   6.182   0.048  0.00  0.00    +0.016 C 
BRANCH  13  18
ATOM     14  C   UNL     1      -1.581   5.909   2.465  0.00  0.00    -0.078 C 
ATOM     15  C   UNL     1      -2.722   5.681   3.487  0.00  0.00    -0.020 C 
ATOM     16  C   UNL     1      -3.970   6.191   2.732  0.00  0.00    -0.020 C 
ATOM     17  C   UNL     1      -3.592   6.128   1.241  0.00  0.00    -0.078 C 
ATOM     18  N   UNL     1      -2.234   5.584   1.187  0.00  0.00    +0.387 N 
ATOM     19  H   UNL     1      -2.274   4.565   1.068  0.00  0.00    -0.081 HD
ENDBRANCH  13  18
BRANCH  13  20
ATOM     20  C   UNL     1      -1.617   7.681   0.098  0.00  0.00    +0.093 A 
ATOM     21  C   UNL     1      -1.911   8.479  -0.944  0.00  0.00    +0.043 A 
ATOM     22  C   UNL     1      -1.945   9.803  -0.449  0.00  0.00    +0.041 A 
ATOM     23  C   UNL     1      -1.661   9.736   0.864  0.00  0.00    +0.195 A 
ATOM     24  O   UNL     1      -1.464   8.448   1.190  0.00  0.00    -0.469 OA
ENDBRANCH  13  20
ENDBRANCH  12  13
ENDBRANCH  10  12
ENDBRANCH   3   8
BRANCH   1  26
ATOM     25  C   UNL     1       5.211   0.652   0.708  0.00  0.00    +0.277 C 
ATOM     26  O   UNL     1       4.084  -0.227   0.675  0.00  0.00    -0.491 OA
ENDBRANCH   1  26
BRANCH   6  27
ATOM     27  O   UNL     1       1.829  -1.801   0.602  0.00  0.00    -0.483 OA
BRANCH  27  28
ATOM     28  C   UNL     1       1.964  -2.502  -0.636  0.00  0.00    +0.264 C 
BRANCH  28  29
ATOM     29  C   UNL     1       2.079  -3.980  -0.367  0.00  0.00    -0.010 A 
ATOM     30  C   UNL     1       3.322  -4.554  -0.178  0.00  0.00    +0.007 A 
ATOM     31  C   UNL     1       3.426  -5.909   0.074  0.00  0.00    +0.000 A 
ATOM     32  C   UNL     1       2.288  -6.692   0.126  0.00  0.00    +0.000 A 
ATOM     33  C   UNL     1       1.046  -6.119  -0.068  0.00  0.00    +0.000 A 
ATOM     34  C   UNL     1       0.941  -4.763  -0.315  0.00  0.00    +0.007 A 
ENDBRANCH  28  29
ENDBRANCH  27  28
ENDBRANCH   6  27
TORSDOF 9
