REMARK  Name = ZINC05676517
REMARK  8 active torsions:
REMARK  status: ('A' for Active; 'I' for Inactive)
REMARK    1  A    between atoms: C_1  and  C_2
REMARK    2  A    between atoms: C_2  and  C_3
REMARK    3  A    between atoms: C_3  and  C_5
REMARK    4  A    between atoms: C_3  and  C_6
REMARK    5  A    between atoms: C_9  and  O_12
REMARK    6  A    between atoms: O_12  and  C_13
REMARK    7  A    between atoms: C_13  and  C_14
REMARK    8  A    between atoms: N_16  and  N_17
REMARK                            x       y       z     vdW  Elec       q    Type
REMARK                         _______ _______ _______ _____ _____    ______ ____
ROOT
ATOM      1  C   UNL     1      -0.205  -8.204   2.479  0.00  0.00    +0.270 C 
ATOM      2  O   UNL     1       0.294  -8.733   1.508  0.00  0.00    -0.270 OA
ATOM      3  N   UNL     1      -0.752  -8.960   3.451  0.00  0.00    -0.203 N 
ATOM      4  H   UNL     1      -1.151  -8.536   4.228  0.00  0.00    +0.177 HD
ENDROOT
BRANCH   3   5
ATOM      5  N   UNL     1      -0.746 -10.356   3.341  0.00  0.00    -0.174 NA
ATOM      6  C   UNL     1      -1.278 -11.091   4.287  0.00  0.00    +0.152 C 
ATOM      7  C   UNL     1      -1.358 -12.569   4.344  0.00  0.00    +0.028 A 
ATOM      8  C   UNL     1      -0.931 -13.579   3.489  0.00  0.00    +0.012 A 
ATOM      9  C   UNL     1      -1.155 -14.900   3.824  0.00  0.00    +0.001 A 
ATOM     10  C   UNL     1      -1.802 -15.215   5.008  0.00  0.00    +0.002 A 
ATOM     11  C   UNL     1      -2.229 -14.220   5.862  0.00  0.00    +0.024 A 
ATOM     12  C   UNL     1      -2.012 -12.884   5.542  0.00  0.00    +0.043 A 
ATOM     13  N   UNL     1      -2.334 -11.709   6.212  0.00  0.00    -0.280 N 
ATOM     14  C   UNL     1      -1.925 -10.626   5.531  0.00  0.00    +0.269 C 
ATOM     15  O   UNL     1      -2.065  -9.467   5.875  0.00  0.00    -0.268 OA
ATOM     16  H   UNL     1      -2.793 -11.676   7.067  0.00  0.00    +0.155 HD
ENDBRANCH   3   5
BRANCH   1  17
ATOM     17  C   UNL     1      -0.212  -6.702   2.597  0.00  0.00    +0.326 C 
BRANCH  17  18
ATOM     18  O   UNL     1       0.422  -6.130   1.451  0.00  0.00    -0.483 OA
BRANCH  18  22
ATOM     19  C   UNL     1       0.657  -2.014   1.298  0.00  0.00    -0.044 A 
ATOM     20  C   UNL     1       1.179  -2.774   0.268  0.00  0.00    +0.007 A 
ATOM     21  C   UNL     1       1.102  -4.153   0.317  0.00  0.00    +0.046 A 
ATOM     22  C   UNL     1       0.500  -4.774   1.401  0.00  0.00    +0.121 A 
ATOM     23  C   UNL     1      -0.024  -4.010   2.433  0.00  0.00    +0.046 A 
ATOM     24  C   UNL     1       0.061  -2.632   2.382  0.00  0.00    +0.007 A 
BRANCH  19  25
ATOM     25  C   UNL     1       0.742  -0.511   1.242  0.00  0.00    +0.016 C 
ATOM     26  C   UNL     1       2.210  -0.086   1.169  0.00  0.00    +0.012 C 
BRANCH  25  28
ATOM     27  C   UNL     1      -0.019   1.526   0.010  0.00  0.00    +0.004 C 
ATOM     28  C   UNL     1       0.002  -0.004   0.002  0.00  0.00    +0.004 C 
ENDBRANCH  25  28
ENDBRANCH  19  25
ENDBRANCH  18  22
ENDBRANCH  17  18
ENDBRANCH   1  17
TORSDOF 6
