REMARK  Name = ZINC00720505
REMARK  2 active torsions:
REMARK  status: ('A' for Active; 'I' for Inactive)
REMARK    1  A    between atoms: C_8  and  C_24
REMARK    2  A    between atoms: C_14  and  C_19
REMARK                            x       y       z     vdW  Elec       q    Type
REMARK                         _______ _______ _______ _____ _____    ______ ____
ROOT
ATOM      1  C   UNL     1      -0.052   4.731   2.947  0.00  0.00    +0.002 A 
ATOM      2  C   UNL     1      -0.739   5.592   2.111  0.00  0.00    +0.002 A 
ATOM      3  C   UNL     1      -1.419   5.101   1.010  0.00  0.00    +0.025 A 
ATOM      4  C   UNL     1      -1.407   3.741   0.755  0.00  0.00    +0.052 A 
ATOM      5  C   UNL     1      -0.685   2.881   1.570  0.00  0.00    +0.049 A 
ATOM      6  C   UNL     1      -0.019   3.373   2.681  0.00  0.00    +0.025 A 
ATOM      7  N   UNL     1      -0.642   1.529   1.234  0.00  0.00    -0.331 N 
ATOM      8  C   UNL     1      -0.013   1.086   0.008  0.00  0.00    +0.143 C 
ATOM      9  C   UNL     1      -0.694   1.562  -1.252  0.00  0.00    +0.037 C 
ATOM     10  C   UNL     1      -1.649   2.502  -1.329  0.00  0.00    +0.017 C 
ATOM     11  N   UNL     1      -2.160   3.168  -0.263  0.00  0.00    -0.316 N 
ATOM     12  C   UNL     1      -2.258   2.879  -2.669  0.00  0.00    +0.060 C 
ATOM     13  C   UNL     1      -1.226   2.730  -3.773  0.00  0.00    +0.039 C 
ATOM     14  C   UNL     1      -0.764   1.268  -3.788  0.00  0.00    +0.088 C 
ATOM     15  C   UNL     1      -0.234   0.922  -2.428  0.00  0.00    +0.163 C 
ATOM     16  O   UNL     1       0.620   0.063  -2.333  0.00  0.00    -0.292 OA
ATOM     17  H   UNL     1      -1.041   0.875   1.829  0.00  0.00    +0.147 HD
ATOM     18  H   UNL     1      -3.125   3.252  -0.207  0.00  0.00    +0.152 HD
ENDROOT
BRANCH   8  19
ATOM     19  C   UNL     1       1.411   1.581  -0.003  0.00  0.00    +0.016 A 
ATOM     20  C   UNL     1       2.538   0.926  -0.372  0.00  0.00    +0.015 A 
ATOM     21  C   UNL     1       3.751   1.588  -0.304  0.00  0.00    +0.028 A 
ATOM     22  C   UNL     1       3.776   2.869   0.142  0.00  0.00    +0.078 A 
ATOM     23  S   UNL     1       2.049   3.178   0.474  0.00  0.00    -0.080 S 
ATOM     24 CL   UNL     1       5.134   3.932   0.340  0.00  0.00    -0.076 Cl
ENDBRANCH   8  19
BRANCH  13  25
ATOM     25  C   UNL     1      -1.844   3.084  -5.101  0.00  0.00    -0.006 A 
ATOM     26  C   UNL     1      -1.468   4.035  -5.991  0.00  0.00    +0.011 A 
ATOM     27  C   UNL     1      -2.191   4.182  -7.160  0.00  0.00    +0.008 A 
ATOM     28  C   UNL     1      -3.255   3.372  -7.381  0.00  0.00    +0.045 A 
ATOM     29  S   UNL     1      -3.256   2.355  -5.914  0.00  0.00    -0.101 S 
ENDBRANCH  13  25
TORSDOF 2
