REMARK  Name = ZINC20663090
REMARK  5 active torsions:
REMARK  status: ('A' for Active; 'I' for Inactive)
REMARK    1  A    between atoms: C_1  and  C_2
REMARK    2  A    between atoms: C_5  and  C_8
REMARK    3  A    between atoms: N_10  and  C_11
REMARK    4  A    between atoms: C_11  and  C_20
REMARK    5  A    between atoms: C_12  and  C_13
REMARK                            x       y       z     vdW  Elec       q    Type
REMARK                         _______ _______ _______ _____ _____    ______ ____
ROOT
ATOM      1  C   UNL     1       0.142   1.857  -4.656  0.00  0.00    +0.097 C 
ATOM      2  C   UNL     1       0.230   0.553  -5.004  0.00  0.00    +0.036 C 
ENDROOT
BRANCH   1   3
ATOM      3  C   UNL     1      -0.269   2.229  -3.294  0.00  0.00    +0.261 C 
ATOM      4  O   UNL     1      -1.448   2.362  -3.030  0.00  0.00    -0.269 OA
ATOM      5  N   UNL     1       0.662   2.422  -2.339  0.00  0.00    -0.296 N 
ATOM      6  C   UNL     1       2.082   2.166  -2.612  0.00  0.00    +0.113 C 
ATOM      7  C   UNL     1       2.676   1.279  -1.526  0.00  0.00    +0.027 C 
ATOM      8  C   UNL     1       2.351   1.822  -0.134  0.00  0.00    +0.018 C 
ATOM      9  C   UNL     1       0.829   1.879   0.019  0.00  0.00    +0.054 C 
ATOM     10  C   UNL     1       0.278   2.893  -0.998  0.00  0.00    +0.117 C 
ATOM     11  C   UNL     1       0.233   0.529  -0.308  0.00  0.00    +0.027 A 
ATOM     12  C   UNL     1      -0.950   0.208   0.279  0.00  0.00    +0.022 A 
ATOM     13  C   UNL     1      -1.593  -0.996  -0.026  0.00  0.00    +0.007 A 
ATOM     14  C   UNL     1      -1.026  -1.831  -0.945  0.00  0.00    +0.070 A 
ATOM     15  C   UNL     1       0.192  -1.468  -1.536  0.00  0.00    +0.251 A 
ATOM     16  O   UNL     1       0.677  -2.176  -2.404  0.00  0.00    -0.268 OA
ATOM     17  N   UNL     1       0.837  -0.339  -1.152  0.00  0.00    -0.312 N 
ATOM     18  C   UNL     1       2.204  -0.159  -1.643  0.00  0.00    +0.130 C 
ENDBRANCH   1   3
BRANCH   2  19
ATOM     19  C   UNL     1       0.495   0.181  -6.402  0.00  0.00    -0.020 A 
ATOM     20  C   UNL     1       1.015  -1.082  -6.707  0.00  0.00    +0.008 A 
ATOM     21  C   UNL     1       1.261  -1.425  -8.020  0.00  0.00    +0.003 A 
ATOM     22  C   UNL     1       0.995  -0.524  -9.036  0.00  0.00    +0.038 A 
ATOM     23  C   UNL     1       0.480   0.729  -8.744  0.00  0.00    +0.124 A 
ATOM     24  C   UNL     1       0.224   1.085  -7.434  0.00  0.00    +0.046 A 
ATOM     25  F   UNL     1       0.223   1.602  -9.742  0.00  0.00    -0.205 F 
ENDBRANCH   2  19
BRANCH   1  28
ATOM     26  C   UNL     1      -0.467   3.806  -5.874  0.00  0.00    +0.248 C 
ATOM     27  O   UNL     1      -1.508   3.859  -5.249  0.00  0.00    -0.270 OA
ATOM     28  N   UNL     1       0.441   2.852  -5.592  0.00  0.00    -0.277 N 
ATOM     29  H   UNL     1       1.418   2.855  -6.098  0.00  0.00    +0.155 HD
BRANCH  26  34
ATOM     30  C   UNL     1       0.583   7.634 -10.041  0.00  0.00    +0.044 C 
ATOM     31  C   UNL     1       0.308   6.631  -8.950  0.00  0.00    -0.050 A 
ATOM     32  C   UNL     1      -0.826   6.758  -8.168  0.00  0.00    +0.004 A 
ATOM     33  C   UNL     1      -1.084   5.844  -7.167  0.00  0.00    +0.013 A 
ATOM     34  C   UNL     1      -0.198   4.789  -6.945  0.00  0.00    +0.037 A 
ATOM     35  C   UNL     1       0.948   4.670  -7.734  0.00  0.00    +0.013 A 
ATOM     36  C   UNL     1       1.191   5.588  -8.735  0.00  0.00    +0.004 A 
ENDBRANCH  26  34
ENDBRANCH   1  28
TORSDOF 4
