REMARK  Name = ZINC20686417
REMARK  8 active torsions:
REMARK  status: ('A' for Active; 'I' for Inactive)
REMARK    1  A    between atoms: C_1  and  C_2
REMARK    2  A    between atoms: N_5  and  C_8
REMARK    3  A    between atoms: C_8  and  C_9
REMARK    4  A    between atoms: C_9  and  C_10
REMARK    5  A    between atoms: C_10  and  N_11
REMARK    6  A    between atoms: C_12  and  C_14
REMARK    7  A    between atoms: C_23  and  S_26
REMARK    8  A    between atoms: S_26  and  N_29
REMARK                            x       y       z     vdW  Elec       q    Type
REMARK                         _______ _______ _______ _____ _____    ______ ____
ROOT
ATOM      1  C   UNL     1      -2.505   1.024   0.029  0.00  0.00    +0.051 A 
ATOM      2  C   UNL     1      -1.323   1.707   0.044  0.00  0.00    +0.083 A 
ATOM      3  C   UNL     1      -1.337   3.168   0.051  0.00  0.00    +0.250 A 
ATOM      4  O   UNL     1      -0.282   3.778   0.065  0.00  0.00    -0.268 OA
ATOM      5  N   UNL     1      -2.496   3.850   0.043  0.00  0.00    -0.322 N 
ATOM      6  H   UNL     1      -2.487   4.950   0.048  0.00  0.00    +0.169 HD
ATOM      7  C   UNL     1      -3.710   3.198   0.027  0.00  0.00    +0.050 A 
ATOM      8  C   UNL     1      -3.760   1.792   0.026  0.00  0.00    +0.012 A 
ATOM      9  C   UNL     1      -4.996   1.140   0.004  0.00  0.00    +0.039 A 
ATOM     10  C   UNL     1      -6.150   1.870  -0.005  0.00  0.00    +0.106 A 
ATOM     11  C   UNL     1      -6.106   3.258   0.003  0.00  0.00    +0.030 A 
ATOM     12  C   UNL     1      -4.900   3.922   0.018  0.00  0.00    +0.028 A 
ENDROOT
BRANCH   1  14
ATOM     13  N   UNL     1      -1.371  -1.147  -0.095  0.00  0.00    -0.311 N 
ATOM     14  C   UNL     1      -2.524  -0.459   0.022  0.00  0.00    +0.245 C 
ATOM     15  O   UNL     1      -3.579  -1.053   0.122  0.00  0.00    -0.270 OA
ATOM     16  H   UNL     1      -0.410  -0.612  -0.102  0.00  0.00    +0.149 HD
BRANCH  13  17
ATOM     17  C   UNL     1      -1.398  -2.607  -0.214  0.00  0.00    +0.102 C 
BRANCH  17  18
ATOM     18  C   UNL     1       0.032  -3.135  -0.333  0.00  0.00    +0.000 C 
BRANCH  18  19
ATOM     19  C   UNL     1       0.004  -4.660  -0.457  0.00  0.00    -0.077 C 
BRANCH  19  24
ATOM     20  C   UNL     1       5.031  -7.092  -1.676  0.00  0.00    +0.007 C 
ATOM     21  C   UNL     1       3.562  -6.668  -1.719  0.00  0.00    -0.018 C 
ATOM     22  C   UNL     1       2.863  -7.111  -0.431  0.00  0.00    -0.016 C 
ATOM     23  C   UNL     1       1.410  -6.631  -0.454  0.00  0.00    -0.079 C 
ATOM     24  N   UNL     1       1.378  -5.168  -0.571  0.00  0.00    +0.380 N 
ATOM     25  C   UNL     1       2.002  -4.721  -1.823  0.00  0.00    -0.079 C 
ATOM     26  C   UNL     1       3.472  -5.144  -1.841  0.00  0.00    -0.016 C 
ATOM     27  H   UNL     1       1.964  -4.752   0.262  0.00  0.00    -0.082 HD
ENDBRANCH  19  24
ENDBRANCH  18  19
ENDBRANCH  17  18
ENDBRANCH  13  17
ENDBRANCH   1  14
BRANCH  10  28
ATOM     28  S   UNL     1      -7.707   1.045  -0.025  0.00  0.00    +0.061 S 
ATOM     29  O   UNL     1      -8.643   1.958  -0.581  0.00  0.00    -0.153 OA
ATOM     30  O   UNL     1      -7.476  -0.243  -0.580  0.00  0.00    -0.153 OA
BRANCH  28  31
ATOM     31  N   UNL     1      -8.156   0.807   1.551  0.00  0.00    -0.177 NA
ATOM     32  C   UNL     1      -7.834  -0.374   2.365  0.00  0.00    +0.109 C 
ATOM     33  C   UNL     1      -8.477  -0.164   3.752  0.00  0.00    +0.018 C 
ATOM     34  C   UNL     1      -9.607   0.858   3.457  0.00  0.00    +0.018 C 
ATOM     35  C   UNL     1      -8.950   1.742   2.369  0.00  0.00    +0.109 C 
ENDBRANCH  28  31
ENDBRANCH  10  28
TORSDOF 7
