REMARK  Name = ZINC06077543
REMARK  13 active torsions:
REMARK  status: ('A' for Active; 'I' for Inactive)
REMARK    1  A    between atoms: C_1  and  C_2
REMARK    2  A    between atoms: C_2  and  C_3
REMARK    3  A    between atoms: C_3  and  C_4
REMARK    4  A    between atoms: C_3  and  C_5
REMARK    5  A    between atoms: C_3  and  N_6
REMARK    6  A    between atoms: C_7  and  C_11
REMARK    7  A    between atoms: C_11  and  C_13
REMARK    8  A    between atoms: C_11  and  N_77
REMARK    9  A    between atoms: C_17  and  C_26
REMARK   10  A    between atoms: C_19  and  C_25
REMARK   11  A    between atoms: N_29  and  C_32
REMARK   12  A    between atoms: C_36  and  C_39
REMARK   13  A    between atoms: C_37  and  C_38
REMARK                            x       y       z     vdW  Elec       q    Type
REMARK                         _______ _______ _______ _____ _____    ______ ____
ROOT
ATOM      1  C   UNL     1      -2.243   0.887  -0.115  0.00  0.00    +0.039 C 
ENDROOT
BRANCH   1   2
ATOM      2  C   UNL     1      -1.112   1.851  -0.366  0.00  0.00    +0.011 A 
ATOM      3  C   UNL     1       0.124   1.378  -0.665  0.00  0.00    +0.017 A 
ATOM      4  C   UNL     1       1.200   2.340  -0.910  0.00  0.00    -0.001 A 
ATOM      5  C   UNL     1       2.494   1.913  -1.227  0.00  0.00    +0.013 A 
ATOM      6  C   UNL     1       3.476   2.836  -1.450  0.00  0.00    -0.050 A 
ATOM      7  C   UNL     1       3.202   4.194  -1.363  0.00  0.00    +0.008 A 
ATOM      8  C   UNL     1       1.935   4.638  -1.051  0.00  0.00    -0.026 A 
ATOM      9  C   UNL     1       0.918   3.716  -0.821  0.00  0.00    +0.052 A 
ATOM     10  N   UNL     1      -0.358   4.132  -0.507  0.00  0.00    -0.322 N 
ATOM     11  H   UNL     1      -0.556   5.110  -0.444  0.00  0.00    +0.169 HD
ATOM     12  C   UNL     1      -1.340   3.241  -0.283  0.00  0.00    +0.251 A 
ATOM     13  O   UNL     1      -2.457   3.644  -0.008  0.00  0.00    -0.268 OA
ATOM     14  C   UNL     1       1.651   6.115  -0.961  0.00  0.00    +0.046 C 
ATOM     15  C   UNL     1       4.870   2.376  -1.792  0.00  0.00    +0.044 C 
ENDBRANCH   1   2
BRANCH   1  21
ATOM     16  C   UNL     1      -1.849   1.015   2.271  0.00  0.00    -0.058 C 
ATOM     17  C   UNL     1      -2.488   1.390   3.610  0.00  0.00    +0.086 C 
ATOM     18  N   UNL     1      -3.655   0.529   3.850  0.00  0.00    -0.333 N 
ATOM     19  C   UNL     1      -4.647   0.680   2.777  0.00  0.00    +0.086 C 
ATOM     20  C   UNL     1      -4.008   0.305   1.438  0.00  0.00    -0.058 C 
ATOM     21  N   UNL     1      -2.850   1.192   1.198  0.00  0.00    +0.391 N 
ATOM     22  H   UNL     1      -3.171   2.168   1.199  0.00  0.00    -0.080 HD
BRANCH  18  23
ATOM     23  C   UNL     1      -4.223   0.794   5.098  0.00  0.00    +0.033 A 
ATOM     24  C   UNL     1      -4.779   2.041   5.360  0.00  0.00    +0.023 A 
ATOM     25  C   UNL     1      -5.340   2.299   6.595  0.00  0.00    +0.002 A 
ATOM     26  C   UNL     1      -5.350   1.319   7.571  0.00  0.00    +0.004 A 
ATOM     27  C   UNL     1      -4.798   0.077   7.314  0.00  0.00    -0.046 A 
ATOM     28  C   UNL     1      -4.240  -0.190   6.079  0.00  0.00    -0.027 A 
ATOM     29  C   UNL     1      -3.644  -1.545   5.797  0.00  0.00    +0.046 C 
ATOM     30  C   UNL     1      -4.810  -0.988   8.380  0.00  0.00    +0.044 C 
ENDBRANCH  18  23
ENDBRANCH   1  21
BRANCH   1  32
ATOM     31  N   UNL     1      -3.588   0.168  -2.159  0.00  0.00    -0.225 N 
ATOM     32  C   UNL     1      -3.289   1.050  -1.188  0.00  0.00    +0.143 A 
ATOM     33  N   UNL     1      -4.087   2.077  -1.354  0.00  0.00    -0.115 NA
ATOM     34  N   UNL     1      -4.832   1.840  -2.378  0.00  0.00    -0.023 NA
ATOM     35  N   UNL     1      -4.536   0.686  -2.865  0.00  0.00    -0.043 NA
BRANCH  31  36
ATOM     36  C   UNL     1      -2.958  -1.137  -2.374  0.00  0.00    +0.061 C 
ATOM     37  C   UNL     1      -1.450  -0.951  -2.557  0.00  0.00    +0.036 C 
ATOM     38  C   UNL     1      -3.217  -2.034  -1.162  0.00  0.00    +0.036 C 
BRANCH  36  40
ATOM     39  C   UNL     1      -2.888  -3.151  -3.850  0.00  0.00    +0.006 C 
ATOM     40  C   UNL     1      -3.547  -1.789  -3.626  0.00  0.00    +0.026 C 
ENDBRANCH  36  40
ENDBRANCH  31  36
ENDBRANCH   1  32
TORSDOF 6
