REMARK  Name = ZINC36365138
REMARK  1 active torsions:
REMARK  status: ('A' for Active; 'I' for Inactive)
REMARK    1  A    between atoms: C_9  and  N_14
REMARK                            x       y       z     vdW  Elec       q    Type
REMARK                         _______ _______ _______ _____ _____    ______ ____
ROOT
ATOM      1  C   UNL     1      -0.017   1.372   0.010  0.00  0.00    +0.000 A 
ATOM      2  C   UNL     1       1.179   2.068   0.002  0.00  0.00    +0.002 A 
ATOM      3  C   UNL     1       2.365   1.376  -0.009  0.00  0.00    +0.023 A 
ATOM      4  C   UNL     1       2.396  -0.029  -0.019  0.00  0.00    +0.037 A 
ATOM      5  C   UNL     1       1.202  -0.717  -0.015  0.00  0.00    -0.026 A 
ATOM      6  C   UNL     1       0.002  -0.004   0.002  0.00  0.00    +0.005 A 
ATOM      7  C   UNL     1       1.065  -2.205  -0.038  0.00  0.00    +0.039 C 
ATOM      8  C   UNL     1       2.088  -2.941  -0.845  0.00  0.00    +0.039 C 
ATOM      9  C   UNL     1       3.424  -3.065  -0.153  0.00  0.00    +0.178 C 
ATOM     10  C   UNL     1       4.162  -1.775  -0.136  0.00  0.00    +0.240 C 
ATOM     11  O   UNL     1       5.368  -1.841  -0.249  0.00  0.00    -0.273 OA
ATOM     12  N   UNL     1       3.656  -0.581  -0.012  0.00  0.00    -0.284 N 
ATOM     13  H   UNL     1       4.343   0.091   0.116  0.00  0.00    +0.155 HD
ENDROOT
BRANCH   9  14
ATOM     14  N   UNL     1       4.233  -4.065  -0.854  0.00  0.00    -0.286 N 
ATOM     15  C   UNL     1       4.558  -3.892  -2.162  0.00  0.00    +0.203 A 
ATOM     16  N   UNL     1       5.269  -4.739  -2.835  0.00  0.00    -0.236 NA
ATOM     17  C   UNL     1       5.754  -5.892  -2.269  0.00  0.00    +0.085 A 
ATOM     18  C   UNL     1       6.531  -6.896  -2.862  0.00  0.00    +0.036 A 
ATOM     19  C   UNL     1       6.920  -7.970  -2.140  0.00  0.00    +0.048 A 
ATOM     20  S   UNL     1       6.209  -7.644  -0.536  0.00  0.00    -0.090 S 
ATOM     21  C   UNL     1       5.433  -6.096  -0.915  0.00  0.00    +0.102 A 
ATOM     22  C   UNL     1       4.669  -5.170  -0.203  0.00  0.00    +0.269 A 
ATOM     23  O   UNL     1       4.399  -5.353   0.973  0.00  0.00    -0.266 OA
ENDBRANCH   9  14
TORSDOF 1
