REMARK  Name = ZINC16689787
REMARK  6 active torsions:
REMARK  status: ('A' for Active; 'I' for Inactive)
REMARK    1  A    between atoms: C_5  and  C_7
REMARK    2  A    between atoms: C_7  and  C_9
REMARK    3  A    between atoms: C_7  and  N_23
REMARK    4  A    between atoms: C_10  and  O_22
REMARK    5  A    between atoms: C_15  and  C_17
REMARK    6  A    between atoms: C_26  and  C_29
REMARK                            x       y       z     vdW  Elec       q    Type
REMARK                         _______ _______ _______ _____ _____    ______ ____
ROOT
ATOM      1  C   UNL     1       1.228  -2.186  -0.022  0.00  0.00    +0.008 C 
ENDROOT
BRANCH   1   2
ATOM      2  C   UNL     1       1.468  -2.677  -1.426  0.00  0.00    +0.045 A 
ATOM      3  C   UNL     1       2.510  -3.360  -1.915  0.00  0.00    +0.225 A 
ATOM      4  N   UNL     1       2.550  -3.725  -3.239  0.00  0.00    -0.173 N 
ATOM      5  C   UNL     1       1.487  -3.359  -4.019  0.00  0.00    +0.199 A 
ATOM      6  S   UNL     1       0.432  -2.506  -2.872  0.00  0.00    -0.050 S 
ATOM      7  N   UNL     1       1.674  -3.775  -5.240  0.00  0.00    -0.197 NA
ATOM      8  C   UNL     1       2.846  -4.421  -5.314  0.00  0.00    +0.218 A 
ATOM      9  N   UNL     1       3.414  -4.416  -4.127  0.00  0.00    -0.138 NA
BRANCH   8  10
ATOM     10  C   UNL     1       3.410  -5.038  -6.532  0.00  0.00    +0.173 A 
ATOM     11  C   UNL     1       2.834  -5.043  -7.764  0.00  0.00    +0.053 A 
ATOM     12  C   UNL     1       3.713  -5.737  -8.620  0.00  0.00    +0.042 A 
ATOM     13  C   UNL     1       4.770  -6.117  -7.877  0.00  0.00    +0.196 A 
ATOM     14  O   UNL     1       4.586  -5.689  -6.617  0.00  0.00    -0.460 OA
ENDBRANCH   8  10
BRANCH   3  15
ATOM     15  O   UNL     1       3.539  -3.697  -1.093  0.00  0.00    -0.492 OA
ATOM     16  H   UNL     1       4.248  -4.189  -1.530  0.00  0.00    +0.294 HD
ENDBRANCH   3  15
ENDBRANCH   1   2
BRANCH   1  21
ATOM     17  C   UNL     1      -0.017   1.378   0.010  0.00  0.00    +0.000 A 
ATOM     18  C   UNL     1       1.171   2.087   0.002  0.00  0.00    +0.003 A 
ATOM     19  C   UNL     1       2.377   1.414  -0.013  0.00  0.00    +0.038 A 
ATOM     20  C   UNL     1       2.397   0.029  -0.021  0.00  0.00    +0.125 A 
ATOM     21  C   UNL     1       1.208  -0.679  -0.013  0.00  0.00    -0.021 A 
ATOM     22  C   UNL     1       0.002  -0.004   0.002  0.00  0.00    +0.005 A 
ATOM     23  F   UNL     1       3.577  -0.630  -0.036  0.00  0.00    -0.205 F 
ENDBRANCH   1  21
BRANCH   1  24
ATOM     24  N   UNL     1      -0.062  -2.696   0.461  0.00  0.00    +0.388 N 
ATOM     25  C   UNL     1      -0.298  -2.210   1.826  0.00  0.00    -0.077 C 
ATOM     26  C   UNL     1      -1.677  -2.671   2.304  0.00  0.00    -0.006 C 
ATOM     27  C   UNL     1      -1.731  -4.201   2.290  0.00  0.00    +0.071 C 
ATOM     28  C   UNL     1      -1.410  -4.700   0.878  0.00  0.00    -0.006 C 
ATOM     29  C   UNL     1      -0.041  -4.164   0.452  0.00  0.00    -0.077 C 
ATOM     30  H   UNL     1      -0.800  -2.367  -0.143  0.00  0.00    -0.080 HD
BRANCH  27  31
ATOM     31  C   UNL     1      -3.111  -4.660   2.685  0.00  0.00    +0.213 C 
ATOM     32  O   UNL     1      -3.968  -3.845   2.952  0.00  0.00    -0.276 OA
ATOM     33  N   UNL     1      -3.392  -5.977   2.741  0.00  0.00    -0.329 N 
ATOM     34  H   UNL     1      -2.706  -6.629   2.527  0.00  0.00    +0.145 HD
ATOM     35  H   UNL     1      -4.280  -6.273   2.995  0.00  0.00    +0.145 HD
ENDBRANCH  27  31
ENDBRANCH   1  24
TORSDOF 6
