REMARK  Name = ZINC36039542
REMARK  10 active torsions:
REMARK  status: ('A' for Active; 'I' for Inactive)
REMARK    1  A    between atoms: C_1  and  C_2
REMARK    2  A    between atoms: C_2  and  O_3
REMARK    3  A    between atoms: O_3  and  C_4
REMARK    4  A    between atoms: C_8  and  N_10
REMARK    5  A    between atoms: C_12  and  C_27
REMARK    6  A    between atoms: N_15  and  C_16
REMARK    7  A    between atoms: C_16  and  C_18
REMARK    8  A    between atoms: C_18  and  N_19
REMARK    9  A    between atoms: N_19  and  C_20
REMARK   10  A    between atoms: C_20  and  C_21
REMARK                            x       y       z     vdW  Elec       q    Type
REMARK                         _______ _______ _______ _____ _____    ______ ____
ROOT
ATOM      1  N   UNL     1       2.173  -4.224  -3.739  0.00  0.00    -0.287 N 
ATOM      2  C   UNL     1       2.753  -3.491  -4.755  0.00  0.00    +0.120 A 
ATOM      3  C   UNL     1       3.270  -4.353  -5.648  0.00  0.00    +0.066 A 
ATOM      4  N   UNL     1       3.015  -5.642  -5.195  0.00  0.00    -0.326 N 
ATOM      5  C   UNL     1       2.345  -5.545  -4.018  0.00  0.00    +0.205 A 
ATOM      6  N   UNL     1       1.926  -6.564  -3.269  0.00  0.00    -0.148 NA
ATOM      7  H   UNL     1       3.273  -6.465  -5.639  0.00  0.00    +0.169 HD
ENDROOT
BRANCH   1  12
ATOM      8  C   UNL     1       0.777  -1.810  -1.336  0.00  0.00    +0.122 A 
ATOM      9  C   UNL     1       0.242  -2.668  -0.385  0.00  0.00    +0.046 A 
ATOM     10  C   UNL     1       0.348  -4.036  -0.549  0.00  0.00    +0.006 A 
ATOM     11  C   UNL     1       0.987  -4.554  -1.660  0.00  0.00    +0.026 A 
ATOM     12  C   UNL     1       1.524  -3.700  -2.614  0.00  0.00    +0.053 A 
ATOM     13  C   UNL     1       1.413  -2.325  -2.454  0.00  0.00    +0.071 A 
BRANCH   8  14
ATOM     14  O   UNL     1       0.671  -0.465  -1.174  0.00  0.00    -0.492 OA
BRANCH  14  16
ATOM     15  C   UNL     1      -0.019   1.526   0.010  0.00  0.00    +0.048 C 
ATOM     16  C   UNL     1       0.002  -0.004   0.002  0.00  0.00    +0.225 C 
ENDBRANCH  14  16
ENDBRANCH   8  14
ENDBRANCH   1  12
BRANCH   3  17
ATOM     17  C   UNL     1       3.983  -3.993  -6.893  0.00  0.00    -0.000 A 
ATOM     18  C   UNL     1       4.175  -2.652  -7.228  0.00  0.00    +0.010 A 
ATOM     19  C   UNL     1       4.841  -2.322  -8.390  0.00  0.00    +0.001 A 
ATOM     20  C   UNL     1       5.318  -3.318  -9.224  0.00  0.00    +0.000 A 
ATOM     21  C   UNL     1       5.131  -4.650  -8.898  0.00  0.00    +0.001 A 
ATOM     22  C   UNL     1       4.471  -4.992  -7.735  0.00  0.00    +0.010 A 
ENDBRANCH   3  17
BRANCH   6  23
ATOM     23  C   UNL     1       2.159  -7.813  -3.656  0.00  0.00    +0.222 C 
ATOM     24  O   UNL     1       2.755  -8.026  -4.695  0.00  0.00    -0.276 OA
BRANCH  23  25
ATOM     25  C   UNL     1       1.686  -8.965  -2.809  0.00  0.00    +0.017 C 
BRANCH  25  26
ATOM     26  N   UNL     1       2.064 -10.232  -3.450  0.00  0.00    +0.387 N 
ATOM     27  H   UNL     1       1.638 -10.288  -4.362  0.00  0.00    -0.085 HD
ATOM     28  H   UNL     1       3.068 -10.274  -3.544  0.00  0.00    -0.085 HD
BRANCH  26  29
ATOM     29  C   UNL     1       1.603 -11.356  -2.624  0.00  0.00    -0.046 C 
BRANCH  29  30
ATOM     30  C   UNL     1       1.991 -12.655  -3.281  0.00  0.00    -0.064 A 
ATOM     31  C   UNL     1       1.132 -13.258  -4.181  0.00  0.00    +0.002 A 
ATOM     32  C   UNL     1       1.489 -14.450  -4.784  0.00  0.00    +0.000 A 
ATOM     33  C   UNL     1       2.704 -15.038  -4.487  0.00  0.00    +0.000 A 
ATOM     34  C   UNL     1       3.563 -14.435  -3.588  0.00  0.00    +0.000 A 
ATOM     35  C   UNL     1       3.208 -13.241  -2.988  0.00  0.00    +0.002 A 
ENDBRANCH  29  30
ENDBRANCH  26  29
ENDBRANCH  25  26
ENDBRANCH  23  25
ENDBRANCH   6  23
TORSDOF 9
