REMARK  Name = ZINC01085008
REMARK  5 active torsions:
REMARK  status: ('A' for Active; 'I' for Inactive)
REMARK    1  A    between atoms: C_6  and  C_7
REMARK    2  A    between atoms: C_16  and  C_24
REMARK    3  A    between atoms: C_17  and  N_23
REMARK    4  A    between atoms: C_18  and  C_19
REMARK    5  A    between atoms: C_18  and  C_21
REMARK                            x       y       z     vdW  Elec       q    Type
REMARK                         _______ _______ _______ _____ _____    ______ ____
ROOT
ATOM      1  C   UNL     1       2.293   2.575   2.301  0.00  0.00    +0.066 C 
ATOM      2  C   UNL     1       2.198   1.547   1.172  0.00  0.00    +0.030 C 
ATOM      3  C   UNL     1       1.425   2.080  -0.012  0.00  0.00    +0.009 C 
ATOM      4  C   UNL     1      -0.022   1.591  -0.013  0.00  0.00    +0.005 C 
ATOM      5  C   UNL     1      -0.014   0.057  -0.049  0.00  0.00    +0.027 C 
ATOM      6  C   UNL     1       0.685  -0.429   1.194  0.00  0.00    -0.022 C 
ATOM      7  C   UNL     1       1.662   0.268   1.742  0.00  0.00    -0.029 C 
ATOM      8  C   UNL     1       2.249  -0.194   3.027  0.00  0.00    +0.074 C 
ATOM      9  C   UNL     1       2.996   0.667   3.764  0.00  0.00    +0.054 C 
ATOM     10  C   UNL     1       3.293   2.075   3.344  0.00  0.00    +0.188 C 
ENDROOT
BRANCH   1  16
ATOM     11  C   UNL     1       0.097   3.757   2.516  0.00  0.00    +0.005 A 
ATOM     12  C   UNL     1      -1.146   3.912   3.099  0.00  0.00    +0.015 A 
ATOM     13  C   UNL     1      -1.543   3.062   4.117  0.00  0.00    +0.018 A 
ATOM     14  C   UNL     1      -0.698   2.055   4.545  0.00  0.00    +0.015 A 
ATOM     15  C   UNL     1       0.543   1.898   3.958  0.00  0.00    +0.005 A 
ATOM     16  C   UNL     1       0.940   2.747   2.941  0.00  0.00    -0.041 A 
ATOM     17 BR   UNL     1      -3.241   3.279   4.921  0.00  0.00    -0.050 Br
ENDBRANCH   1  16
BRANCH   9  18
ATOM     18  N   UNL     1       3.506   0.226   4.952  0.00  0.00    -0.358 N 
ATOM     19  H   UNL     1       4.117   0.898   5.573  0.00  0.00    +0.142 HD
ATOM     20  H   UNL     1       3.307  -0.803   5.289  0.00  0.00    +0.142 HD
ENDBRANCH   9  18
BRANCH  10  21
ATOM     21  C   UNL     1       4.649   2.130   2.774  0.00  0.00    +0.091 C 
ATOM     22  N   UNL     1       5.696   2.173   2.334  0.00  0.00    -0.194 NA
ENDBRANCH  10  21
BRANCH  10  23
ATOM     23  C   UNL     1       3.233   2.950   4.526  0.00  0.00    +0.091 C 
ATOM     24  N   UNL     1       3.186   3.625   5.438  0.00  0.00    -0.194 NA
ENDBRANCH  10  23
BRANCH   8  25
ATOM     25  C   UNL     1       2.027  -1.532   3.484  0.00  0.00    +0.101 C 
ATOM     26  N   UNL     1       1.851  -2.595   3.847  0.00  0.00    -0.191 NA
ENDBRANCH   8  25
TORSDOF 5
