REMARK  Name = ZINC01771572
REMARK  9 active torsions:
REMARK  status: ('A' for Active; 'I' for Inactive)
REMARK    1  A    between atoms: C_1  and  C_2
REMARK    2  A    between atoms: C_9  and  N_14
REMARK    3  A    between atoms: C_10  and  C_11
REMARK    4  A    between atoms: C_15  and  C_17
REMARK    5  A    between atoms: C_17  and  C_18
REMARK    6  A    between atoms: C_18  and  C_19
REMARK    7  A    between atoms: C_19  and  C_20
REMARK    8  A    between atoms: C_20  and  C_21
REMARK    9  A    between atoms: C_21  and  N_22
REMARK                            x       y       z     vdW  Elec       q    Type
REMARK                         _______ _______ _______ _____ _____    ______ ____
ROOT
ATOM      1  N   UNL     1      -2.304  -5.917   0.763  0.00  0.00    -0.279 N 
ATOM      2  C   UNL     1      -3.569  -6.205   0.396  0.00  0.00    +0.218 C 
ATOM      3  O   UNL     1      -4.297  -5.325  -0.013  0.00  0.00    -0.275 OA
ATOM      4  H   UNL     1      -1.644  -6.715   1.134  0.00  0.00    +0.155 HD
ENDROOT
BRANCH   1  12
ATOM      5  C   UNL     1      -0.019   1.526   0.010  0.00  0.00    +0.008 C 
ATOM      6  C   UNL     1       0.002  -0.004   0.002  0.00  0.00    -0.009 C 
ATOM      7  C   UNL     1       0.742  -0.514   1.242  0.00  0.00    +0.008 C 
ATOM      8  C   UNL     1       0.984  -2.020   1.121  0.00  0.00    +0.037 C 
ATOM      9  C   UNL     1      -0.340  -2.706   0.809  0.00  0.00    -0.023 A 
ATOM     10  C   UNL     1      -1.390  -2.006   0.327  0.00  0.00    -0.004 A 
ATOM     11  S   UNL     1      -2.678  -3.203   0.125  0.00  0.00    -0.077 S 
ATOM     12  C   UNL     1      -1.836  -4.615   0.673  0.00  0.00    +0.084 A 
ATOM     13  C   UNL     1      -0.579  -4.127   0.999  0.00  0.00    +0.068 A 
ATOM     14  C   UNL     1      -1.437  -0.538   0.030  0.00  0.00    +0.046 C 
BRANCH  13  15
ATOM     15  C   UNL     1       0.470  -5.011   1.517  0.00  0.00    +0.244 C 
ATOM     16  O   UNL     1       0.577  -5.192   2.716  0.00  0.00    -0.270 OA
ATOM     17  N   UNL     1       1.315  -5.624   0.665  0.00  0.00    -0.325 N 
ATOM     18  H   UNL     1       2.102  -6.288   1.053  0.00  0.00    +0.145 HD
ATOM     19  H   UNL     1       1.219  -5.461  -0.419  0.00  0.00    +0.145 HD
ENDBRANCH  13  15
ENDBRANCH   1  12
BRANCH   2  20
ATOM     20  C   UNL     1      -4.078  -7.620   0.494  0.00  0.00    +0.096 C 
BRANCH  20  21
ATOM     21  C   UNL     1      -5.532  -7.673   0.019  0.00  0.00    +0.009 C 
BRANCH  21  22
ATOM     22  C   UNL     1      -6.049  -9.110   0.118  0.00  0.00    +0.002 C 
BRANCH  22  23
ATOM     23  C   UNL     1      -7.502  -9.162  -0.356  0.00  0.00    +0.019 C 
BRANCH  23  24
ATOM     24  C   UNL     1      -8.019 -10.599  -0.257  0.00  0.00    +0.117 C 
BRANCH  24  25
ATOM     25  N   UNL     1      -9.411 -10.650  -0.711  0.00  0.00    -0.234 N 
ATOM     26  C   UNL     1     -10.479 -10.486   0.089  0.00  0.00    +0.254 C 
ATOM     27  O   UNL     1     -10.444 -10.275   1.285  0.00  0.00    -0.270 OA
ATOM     28  C   UNL     1     -11.704 -10.602  -0.730  0.00  0.00    +0.049 A 
ATOM     29  C   UNL     1     -13.061 -10.523  -0.459  0.00  0.00    +0.014 A 
ATOM     30  C   UNL     1     -13.977 -10.689  -1.486  0.00  0.00    +0.001 A 
ATOM     31  C   UNL     1     -13.547 -10.932  -2.776  0.00  0.00    +0.001 A 
ATOM     32  C   UNL     1     -12.193 -11.014  -3.062  0.00  0.00    +0.014 A 
ATOM     33  C   UNL     1     -11.266 -10.851  -2.046  0.00  0.00    +0.049 A 
ATOM     34  C   UNL     1      -9.789 -10.872  -1.983  0.00  0.00    +0.254 C 
ATOM     35  O   UNL     1      -9.042 -11.059  -2.922  0.00  0.00    -0.270 OA
ENDBRANCH  24  25
ENDBRANCH  23  24
ENDBRANCH  22  23
ENDBRANCH  21  22
ENDBRANCH  20  21
ENDBRANCH   2  20
TORSDOF 8
