REMARK  Name = ZINC01861512
REMARK  7 active torsions:
REMARK  status: ('A' for Active; 'I' for Inactive)
REMARK    1  A    between atoms: C_1  and  C_2
REMARK    2  A    between atoms: C_2  and  C_3
REMARK    3  A    between atoms: C_2  and  C_4
REMARK    4  A    between atoms: C_7  and  C_10
REMARK    5  A    between atoms: N_11  and  N_12
REMARK    6  A    between atoms: C_20  and  O_25
REMARK    7  A    between atoms: O_25  and  C_26
REMARK                            x       y       z     vdW  Elec       q    Type
REMARK                         _______ _______ _______ _____ _____    ______ ____
ROOT
ATOM      1  N   UNL     1      -2.376  -0.065   0.064  0.00  0.00    -0.143 N 
ATOM      2  C   UNL     1      -3.516  -0.753   0.267  0.00  0.00    +0.301 A 
ATOM      3  O   UNL     1      -3.483  -1.959   0.440  0.00  0.00    -0.263 OA
ATOM      4  C   UNL     1      -4.753  -0.063   0.284  0.00  0.00    +0.131 A 
ATOM      5  C   UNL     1      -4.749   1.306   0.078  0.00  0.00    +0.081 A 
ATOM      6  C   UNL     1      -6.141   1.747   0.140  0.00  0.00    +0.024 A 
ATOM      7  C   UNL     1      -6.765   2.992   0.010  0.00  0.00    +0.015 A 
ATOM      8  C   UNL     1      -8.121   3.089   0.120  0.00  0.00    +0.046 A 
ATOM      9  C   UNL     1      -8.894   1.954   0.362  0.00  0.00    +0.122 A 
ATOM     10  C   UNL     1      -8.297   0.714   0.495  0.00  0.00    +0.072 A 
ATOM     11  C   UNL     1      -6.915   0.595   0.385  0.00  0.00    +0.053 A 
ATOM     12  N   UNL     1      -6.062  -0.482   0.468  0.00  0.00    -0.349 N 
ATOM     13  H   UNL     1      -6.335  -1.398   0.631  0.00  0.00    +0.166 HD
ATOM     14  N   UNL     1      -3.548   1.958  -0.132  0.00  0.00    -0.304 N 
ATOM     15  H   UNL     1      -3.536   2.947  -0.281  0.00  0.00    +0.171 HD
ATOM     16  C   UNL     1      -2.393   1.265  -0.134  0.00  0.00    +0.351 A 
ATOM     17  O   UNL     1      -1.345   1.853  -0.320  0.00  0.00    -0.245 OA
ENDROOT
BRANCH   1  19
ATOM     18  C   UNL     1      -0.245  -0.467   0.937  0.00  0.00    +0.141 C 
ATOM     19  N   UNL     1      -1.152  -0.747   0.052  0.00  0.00    -0.167 NA
BRANCH  18  23
ATOM     20  C   UNL     1      -1.252   1.847   4.350  0.00  0.00    -0.045 A 
ATOM     21  C   UNL     1      -2.250   1.401   3.501  0.00  0.00    +0.004 A 
ATOM     22  C   UNL     1      -1.930   0.649   2.390  0.00  0.00    +0.010 A 
ATOM     23  C   UNL     1      -0.595   0.337   2.123  0.00  0.00    -0.005 A 
ATOM     24  C   UNL     1       0.407   0.786   2.987  0.00  0.00    +0.010 A 
ATOM     25  C   UNL     1       0.073   1.541   4.092  0.00  0.00    +0.004 A 
BRANCH  20  27
ATOM     26  C   UNL     1      -1.142   1.944   6.825  0.00  0.00    +0.012 C 
ATOM     27  C   UNL     1      -1.609   2.668   5.562  0.00  0.00    +0.013 C 
ATOM     28  C   UNL     1      -0.923   4.033   5.473  0.00  0.00    +0.012 C 
ENDBRANCH  20  27
ENDBRANCH  18  23
ENDBRANCH   1  19
BRANCH   9  29
ATOM     29  O   UNL     1     -10.243   2.067   0.470  0.00  0.00    -0.495 OA
ATOM     30  C   UNL     1     -10.798   3.376   0.324  0.00  0.00    +0.277 C 
ENDBRANCH   9  29
TORSDOF 4
