REMARK  Name = ZINC06195970
REMARK  16 active torsions:
REMARK  status: ('A' for Active; 'I' for Inactive)
REMARK    1  A    between atoms: C_1  and  C_2
REMARK    2  A    between atoms: C_2  and  O_3
REMARK    3  A    between atoms: O_3  and  C_4
REMARK    4  A    between atoms: C_6  and  C_11
REMARK    5  A    between atoms: C_9  and  O_10
REMARK    6  A    between atoms: C_16  and  C_21
REMARK    7  A    between atoms: C_24  and  O_29
REMARK    8  A    between atoms: C_25  and  O_27
REMARK    9  A    between atoms: O_27  and  C_28
REMARK   10  A    between atoms: O_29  and  C_30
REMARK   11  A    between atoms: C_32  and  C_40
REMARK   12  A    between atoms: C_33  and  C_34
REMARK   13  A    between atoms: C_34  and  O_36
REMARK   14  A    between atoms: O_36  and  C_37
REMARK   15  A    between atoms: C_37  and  C_38
REMARK   16  A    between atoms: C_37  and  C_39
REMARK                            x       y       z     vdW  Elec       q    Type
REMARK                         _______ _______ _______ _____ _____    ______ ____
ROOT
ATOM      1  C   UNL     1      -0.701   2.192   3.649  0.00  0.00    +0.092 C 
ATOM      2  C   UNL     1      -2.010   2.870   3.334  0.00  0.00    +0.024 C 
ATOM      3  C   UNL     1      -2.620   2.673   2.146  0.00  0.00    +0.016 C 
ATOM      4  C   UNL     1      -3.936   3.339   1.829  0.00  0.00    +0.059 C 
ATOM      5  C   UNL     1      -4.020   4.684   2.555  0.00  0.00    +0.032 C 
ATOM      6  C   UNL     1      -3.871   4.434   4.059  0.00  0.00    +0.088 C 
ATOM      7  C   UNL     1      -2.574   3.712   4.309  0.00  0.00    +0.162 C 
ATOM      8  O   UNL     1      -2.005   3.859   5.372  0.00  0.00    -0.292 OA
ATOM      9  N   UNL     1      -2.051   1.868   1.198  0.00  0.00    -0.321 N 
ATOM     10  C   UNL     1      -0.722   1.557   1.252  0.00  0.00    +0.016 C 
ATOM     11  C   UNL     1      -0.034   1.701   2.398  0.00  0.00    +0.065 C 
ATOM     12  C   UNL     1      -0.020   1.055   0.016  0.00  0.00    +0.061 C 
ATOM     13  H   UNL     1      -2.666   1.463   0.381  0.00  0.00    +0.152 HD
ENDROOT
BRANCH   1  16
ATOM     14  C   UNL     1      -0.630  -0.081   6.666  0.00  0.00    +0.162 A 
ATOM     15  C   UNL     1      -0.390   0.992   5.823  0.00  0.00    +0.054 A 
ATOM     16  C   UNL     1      -0.959   1.022   4.563  0.00  0.00    -0.032 A 
ATOM     17  C   UNL     1      -1.760  -0.022   4.138  0.00  0.00    +0.008 A 
ATOM     18  C   UNL     1      -1.999  -1.098   4.973  0.00  0.00    +0.049 A 
ATOM     19  C   UNL     1      -1.435  -1.132   6.238  0.00  0.00    +0.158 A 
BRANCH  19  20
ATOM     20  O   UNL     1      -1.670  -2.190   7.061  0.00  0.00    -0.503 OA
ATOM     21  H   UNL     1      -2.307  -3.020   6.721  0.00  0.00    +0.292 HD
ENDBRANCH  19  20
BRANCH  14  22
ATOM     22  O   UNL     1      -0.075  -0.110   7.907  0.00  0.00    -0.489 OA
BRANCH  22  24
ATOM     23  C   UNL     1       1.274   0.794   9.698  0.00  0.00    +0.048 C 
ATOM     24  C   UNL     1       0.741   1.003   8.279  0.00  0.00    +0.226 C 
ENDBRANCH  22  24
ENDBRANCH  14  22
ENDBRANCH   1  16
BRANCH   5  25
ATOM     25  C   UNL     1      -5.354   5.330   2.279  0.00  0.00    -0.040 A 
ATOM     26  C   UNL     1      -6.522   4.677   2.626  0.00  0.00    +0.008 A 
ATOM     27  C   UNL     1      -7.747   5.266   2.375  0.00  0.00    +0.049 A 
ATOM     28  C   UNL     1      -7.806   6.513   1.776  0.00  0.00    +0.161 A 
ATOM     29  C   UNL     1      -6.631   7.171   1.427  0.00  0.00    +0.162 A 
ATOM     30  C   UNL     1      -5.406   6.578   1.686  0.00  0.00    +0.053 A 
BRANCH  29  31
ATOM     31  O   UNL     1      -6.684   8.396   0.839  0.00  0.00    -0.491 OA
ATOM     32  C   UNL     1      -5.437   9.012   0.509  0.00  0.00    +0.277 C 
ENDBRANCH  29  31
BRANCH  28  33
ATOM     33  O   UNL     1      -9.011   7.094   1.529  0.00  0.00    -0.491 OA
ATOM     34  C   UNL     1     -10.176   6.361   1.913  0.00  0.00    +0.277 C 
ENDBRANCH  28  33
ENDBRANCH   5  25
BRANCH  11  35
ATOM     35  C   UNL     1       1.345   1.385   2.424  0.00  0.00    +0.338 C 
ATOM     36  O   UNL     1       1.920   1.087   1.395  0.00  0.00    -0.245 OA
BRANCH  35  37
ATOM     37  O   UNL     1       2.021   1.413   3.592  0.00  0.00    -0.459 OA
BRANCH  37  38
ATOM     38  C   UNL     1       3.410   1.083   3.545  0.00  0.00    +0.171 C 
ATOM     39  C   UNL     1       4.229   2.353   3.308  0.00  0.00    +0.052 C 
ATOM     40  C   UNL     1       3.828   0.447   4.872  0.00  0.00    +0.052 C 
ENDBRANCH  37  38
ENDBRANCH  35  37
ENDBRANCH  11  35
TORSDOF 10
