REMARK  Name = ZINC15550492
REMARK  13 active torsions:
REMARK  status: ('A' for Active; 'I' for Inactive)
REMARK    1  A    between atoms: C_1  and  C_2
REMARK    2  A    between atoms: C_2  and  N_3
REMARK    3  A    between atoms: N_3  and  C_4
REMARK    4  A    between atoms: C_5  and  N_20
REMARK    5  A    between atoms: N_6  and  C_13
REMARK    6  A    between atoms: C_13  and  C_14
REMARK    7  A    between atoms: C_21  and  C_23
REMARK    8  A    between atoms: C_23  and  N_24
REMARK    9  A    between atoms: N_24  and  C_25
REMARK   10  A    between atoms: C_25  and  C_27
REMARK   11  A    between atoms: C_25  and  C_34
REMARK   12  A    between atoms: C_34  and  C_35
REMARK   13  A    between atoms: C_34  and  C_36
REMARK                            x       y       z     vdW  Elec       q    Type
REMARK                         _______ _______ _______ _____ _____    ______ ____
ROOT
ATOM      1  N   UNL     1      -1.104  -0.463  -0.027  0.00  0.00    -0.263 N 
ATOM      2  C   UNL     1      -1.673  -0.908   1.113  0.00  0.00    +0.234 C 
ATOM      3  O   UNL     1      -2.726  -1.510   1.071  0.00  0.00    -0.274 OA
ENDROOT
BRANCH   1   4
ATOM      4  C   UNL     1      -1.790  -0.589  -1.254  0.00  0.00    +0.140 A 
ATOM      5  C   UNL     1      -1.311  -1.426  -2.241  0.00  0.00    +0.128 A 
ATOM      6  N   UNL     1      -2.001  -1.528  -3.427  0.00  0.00    -0.276 N 
ATOM      7  C   UNL     1      -3.129  -0.821  -3.621  0.00  0.00    +0.331 A 
ATOM      8  O   UNL     1      -3.724  -0.926  -4.676  0.00  0.00    -0.246 OA
ATOM      9  N   UNL     1      -3.611  -0.002  -2.670  0.00  0.00    -0.273 N 
ATOM     10  H   UNL     1      -4.426   0.497  -2.835  0.00  0.00    +0.173 HD
ATOM     11  C   UNL     1      -2.976   0.131  -1.489  0.00  0.00    +0.277 A 
ATOM     12  O   UNL     1      -3.424   0.873  -0.631  0.00  0.00    -0.266 OA
BRANCH   5  13
ATOM     13  N   UNL     1      -0.159  -2.148  -2.043  0.00  0.00    -0.343 N 
ATOM     14  H   UNL     1       0.357  -2.025  -1.230  0.00  0.00    +0.144 HD
ATOM     15  H   UNL     1       0.140  -2.779  -2.716  0.00  0.00    +0.144 HD
ENDBRANCH   5  13
BRANCH   6  16
ATOM     16  C   UNL     1      -1.505  -2.413  -4.484  0.00  0.00    +0.163 C 
BRANCH  16  17
ATOM     17  C   UNL     1      -2.098  -3.787  -4.309  0.00  0.00    -0.028 A 
ATOM     18  C   UNL     1      -1.449  -4.726  -3.531  0.00  0.00    +0.005 A 
ATOM     19  C   UNL     1      -1.993  -5.987  -3.370  0.00  0.00    +0.000 A 
ATOM     20  C   UNL     1      -3.187  -6.308  -3.989  0.00  0.00    +0.000 A 
ATOM     21  C   UNL     1      -3.837  -5.368  -4.767  0.00  0.00    +0.000 A 
ATOM     22  C   UNL     1      -3.295  -4.106  -4.923  0.00  0.00    +0.005 A 
ENDBRANCH  16  17
ENDBRANCH   6  16
ENDBRANCH   1   4
BRANCH   1  24
ATOM     23  C   UNL     1       0.080   1.673   0.116  0.00  0.00    +0.025 C 
ATOM     24  C   UNL     1       0.225   0.153   0.010  0.00  0.00    +0.110 C 
ENDBRANCH   1  24
BRANCH   2  25
ATOM     25  C   UNL     1      -1.000  -0.659   2.438  0.00  0.00    +0.178 C 
BRANCH  25  26
ATOM     26  N   UNL     1      -1.813  -1.238   3.516  0.00  0.00    -0.301 NA
ATOM     27  H   UNL     1      -2.772  -0.930   3.452  0.00  0.00    +0.123 HD
BRANCH  26  28
ATOM     28  C   UNL     1      -1.245  -0.919   4.833  0.00  0.00    +0.087 C 
BRANCH  28  29
ATOM     29  C   UNL     1      -0.107  -1.861   5.131  0.00  0.00    -0.030 A 
ATOM     30  C   UNL     1      -0.207  -3.196   4.785  0.00  0.00    +0.008 A 
ATOM     31  C   UNL     1       0.836  -4.061   5.057  0.00  0.00    +0.038 A 
ATOM     32  C   UNL     1       1.981  -3.590   5.676  0.00  0.00    +0.123 A 
ATOM     33  C   UNL     1       2.080  -2.253   6.022  0.00  0.00    +0.038 A 
ATOM     34  C   UNL     1       1.038  -1.389   5.744  0.00  0.00    +0.008 A 
ATOM     35  F   UNL     1       3.001  -4.435   5.943  0.00  0.00    -0.205 F 
ENDBRANCH  28  29
BRANCH  28  36
ATOM     36  C   UNL     1      -2.326  -1.070   5.905  0.00  0.00    +0.004 C 
ATOM     37  C   UNL     1      -1.749  -0.686   7.269  0.00  0.00    +0.009 C 
ATOM     38  C   UNL     1      -3.505  -0.153   5.573  0.00  0.00    +0.009 C 
ENDBRANCH  28  36
ENDBRANCH  26  28
ENDBRANCH  25  26
ENDBRANCH   2  25
TORSDOF 10
