REMARK  Name = ZINC50582203
REMARK  5 active torsions:
REMARK  status: ('A' for Active; 'I' for Inactive)
REMARK    1  A    between atoms: C_1  and  O_2
REMARK    2  A    between atoms: O_2  and  C_3
REMARK    3  A    between atoms: C_3  and  C_5
REMARK    4  A    between atoms: C_5  and  C_6
REMARK    5  A    between atoms: N_22  and  C_23
REMARK                            x       y       z     vdW  Elec       q    Type
REMARK                         _______ _______ _______ _____ _____    ______ ____
ROOT
ATOM      1  C   UNL     1       1.353  -2.864  -2.183  0.00  0.00    +0.174 C 
ATOM      2  C   UNL     1       1.502  -4.352  -2.337  0.00  0.00    +0.234 C 
ATOM      3  O   UNL     1       0.545  -5.054  -2.085  0.00  0.00    -0.274 OA
ATOM      4  N   UNL     1       2.633  -4.944  -2.737  0.00  0.00    -0.309 N 
ATOM      5  C   UNL     1       3.875  -4.222  -2.946  0.00  0.00    +0.093 C 
ATOM      6  C   UNL     1       4.731  -4.833  -4.050  0.00  0.00    +0.024 C 
ATOM      7  C   UNL     1       6.059  -4.072  -4.119  0.00  0.00    +0.002 C 
ATOM      8  C   UNL     1       5.804  -2.592  -4.402  0.00  0.00    +0.002 C 
ATOM      9  C   UNL     1       4.912  -1.991  -3.311  0.00  0.00    +0.024 C 
ATOM     10  C   UNL     1       3.591  -2.760  -3.299  0.00  0.00    +0.099 C 
ATOM     11  N   UNL     1       2.675  -2.222  -2.288  0.00  0.00    -0.269 N 
ATOM     12  C   UNL     1       3.025  -1.190  -1.494  0.00  0.00    +0.303 C 
ATOM     13  O   UNL     1       2.228  -0.743  -0.692  0.00  0.00    -0.253 OA
ATOM     14  N   UNL     1       4.257  -0.655  -1.590  0.00  0.00    -0.296 N 
ATOM     15  H   UNL     1       2.624  -5.901  -2.894  0.00  0.00    +0.149 HD
ATOM     16  H   UNL     1       4.851  -0.928  -2.308  0.00  0.00    +0.151 HD
ENDROOT
BRANCH  14  17
ATOM     17  C   UNL     1       4.702   0.341  -0.611  0.00  0.00    +0.074 C 
ATOM     18  C   UNL     1       4.246   1.732  -1.056  0.00  0.00    +0.022 C 
ATOM     19  C   UNL     1       4.710   2.771  -0.033  0.00  0.00    +0.002 C 
ATOM     20  C   UNL     1       6.237   2.742   0.067  0.00  0.00    +0.000 C 
ATOM     21  C   UNL     1       6.692   1.351   0.511  0.00  0.00    +0.002 C 
ATOM     22  C   UNL     1       6.228   0.311  -0.511  0.00  0.00    +0.022 C 
ENDBRANCH  14  17
BRANCH   1  23
ATOM     23  C   UNL     1       0.742  -2.552  -0.815  0.00  0.00    +0.152 C 
BRANCH  23  24
ATOM     24  C   UNL     1      -0.017  -1.252  -0.889  0.00  0.00    +0.309 C 
ATOM     25  O   UNL     1      -0.169  -0.701  -1.954  0.00  0.00    -0.251 OA
BRANCH  24  27
ATOM     26  C   UNL     1      -1.334   0.460   0.069  0.00  0.00    +0.280 C 
ATOM     27  O   UNL     1      -0.524  -0.706   0.227  0.00  0.00    -0.468 OA
ENDBRANCH  24  27
ENDBRANCH  23  24
ENDBRANCH   1  23
TORSDOF 4
