REMARK  Name = ZINC14383129
REMARK  8 active torsions:
REMARK  status: ('A' for Active; 'I' for Inactive)
REMARK    1  A    between atoms: C_4  and  C_7
REMARK    2  A    between atoms: C_7  and  N_8
REMARK    3  A    between atoms: C_9  and  N_37
REMARK    4  A    between atoms: C_10  and  N_17
REMARK    5  A    between atoms: N_17  and  C_18
REMARK    6  A    between atoms: C_18  and  C_19
REMARK    7  A    between atoms: C_25  and  C_27
REMARK    8  A    between atoms: C_32  and  C_33
REMARK                            x       y       z     vdW  Elec       q    Type
REMARK                         _______ _______ _______ _____ _____    ______ ____
ROOT
ATOM      1  N   UNL     1       3.849   3.659   2.393  0.00  0.00    -0.256 N 
ATOM      2  C   UNL     1       3.429   2.997   3.489  0.00  0.00    +0.252 C 
ATOM      3  O   UNL     1       4.212   2.748   4.386  0.00  0.00    -0.270 OA
ENDROOT
BRANCH   1   6
ATOM      4  N   UNL     1       2.255   3.947  -0.904  0.00  0.00    -0.276 N 
ATOM      5  C   UNL     1       3.166   3.607   0.069  0.00  0.00    +0.128 A 
ATOM      6  C   UNL     1       2.932   3.989   1.374  0.00  0.00    +0.140 A 
ATOM      7  C   UNL     1       1.759   4.708   1.671  0.00  0.00    +0.277 A 
ATOM      8  O   UNL     1       1.525   5.054   2.817  0.00  0.00    -0.266 OA
ATOM      9  N   UNL     1       0.896   5.011   0.681  0.00  0.00    -0.273 N 
ATOM     10  H   UNL     1       0.063   5.522   0.892  0.00  0.00    +0.173 HD
ATOM     11  C   UNL     1       1.144   4.635  -0.586  0.00  0.00    +0.331 A 
ATOM     12  O   UNL     1       0.349   4.923  -1.460  0.00  0.00    -0.246 OA
BRANCH   5  13
ATOM     13  N   UNL     1       4.298   2.899  -0.256  0.00  0.00    -0.343 N 
ATOM     14  H   UNL     1       4.512   2.726  -1.187  0.00  0.00    +0.144 HD
ATOM     15  H   UNL     1       4.883   2.572   0.445  0.00  0.00    +0.144 HD
ENDBRANCH   5  13
BRANCH   4  16
ATOM     16  C   UNL     1       2.493   3.553  -2.295  0.00  0.00    +0.163 C 
BRANCH  16  20
ATOM     17  C   UNL     1       4.682   6.628  -4.293  0.00  0.00    +0.000 A 
ATOM     18  C   UNL     1       5.356   5.610  -3.646  0.00  0.00    +0.000 A 
ATOM     19  C   UNL     1       4.648   4.614  -2.999  0.00  0.00    +0.005 A 
ATOM     20  C   UNL     1       3.265   4.638  -3.000  0.00  0.00    -0.028 A 
ATOM     21  C   UNL     1       2.592   5.654  -3.652  0.00  0.00    +0.005 A 
ATOM     22  C   UNL     1       3.300   6.652  -4.294  0.00  0.00    +0.000 A 
ENDBRANCH  16  20
ENDBRANCH   4  16
ENDBRANCH   1   6
BRANCH   2  23
ATOM     23  C   UNL     1       2.018   2.572   3.601  0.00  0.00    +0.049 A 
ATOM     24  C   UNL     1       1.270   2.315   2.450  0.00  0.00    +0.013 A 
ATOM     25  C   UNL     1      -0.046   1.915   2.562  0.00  0.00    +0.001 A 
ATOM     26  C   UNL     1      -0.627   1.778   3.810  0.00  0.00    +0.001 A 
ATOM     27  C   UNL     1       0.107   2.036   4.954  0.00  0.00    +0.013 A 
ATOM     28  C   UNL     1       1.425   2.432   4.857  0.00  0.00    +0.067 A 
BRANCH  28  29
ATOM     29  C   UNL     1       2.223   2.713   6.104  0.00  0.00    +0.418 C 
ATOM     30  F   UNL     1       1.419   2.505   7.229  0.00  0.00    -0.166 F 
ATOM     31  F   UNL     1       3.327   1.856   6.154  0.00  0.00    -0.166 F 
ATOM     32  F   UNL     1       2.665   4.041   6.085  0.00  0.00    -0.166 F 
ENDBRANCH  28  29
ENDBRANCH   2  23
BRANCH   1  33
ATOM     33  C   UNL     1       5.258   4.038   2.261  0.00  0.00    +0.149 C 
BRANCH  33  34
ATOM     34  C   UNL     1       5.497   5.342   2.977  0.00  0.00    -0.030 A 
ATOM     35  C   UNL     1       5.247   6.540   2.333  0.00  0.00    +0.005 A 
ATOM     36  C   UNL     1       5.462   7.736   2.992  0.00  0.00    +0.000 A 
ATOM     37  C   UNL     1       5.937   7.735   4.290  0.00  0.00    +0.000 A 
ATOM     38  C   UNL     1       6.192   6.537   4.932  0.00  0.00    +0.000 A 
ATOM     39  C   UNL     1       5.972   5.341   4.275  0.00  0.00    +0.005 A 
ENDBRANCH  33  34
ENDBRANCH   1  33
TORSDOF 8
