REMARK  Name = ZINC10224923
REMARK  8 active torsions:
REMARK  status: ('A' for Active; 'I' for Inactive)
REMARK    1  A    between atoms: C_1  and  C_2
REMARK    2  A    between atoms: C_2  and  C_4
REMARK    3  A    between atoms: C_2  and  N_62
REMARK    4  A    between atoms: N_6  and  C_7
REMARK    5  A    between atoms: C_12  and  C_13
REMARK    6  A    between atoms: C_21  and  C_24
REMARK    7  A    between atoms: N_26  and  C_27
REMARK    8  A    between atoms: C_32  and  O_33
REMARK                            x       y       z     vdW  Elec       q    Type
REMARK                         _______ _______ _______ _____ _____    ______ ____
ROOT
ATOM      1  C   UNL     1      -4.976   1.319   0.249  0.00  0.00    -0.077 C 
ATOM      2  C   UNL     1      -3.631   2.047   0.202  0.00  0.00    -0.006 C 
ATOM      3  C   UNL     1      -2.498   1.018   0.223  0.00  0.00    +0.072 C 
ATOM      4  C   UNL     1      -2.664   0.061  -0.961  0.00  0.00    -0.006 C 
ATOM      5  C   UNL     1      -4.038  -0.609  -0.880  0.00  0.00    -0.077 C 
ATOM      6  N   UNL     1      -5.085   0.434  -0.930  0.00  0.00    +0.387 N 
ATOM      7  H   UNL     1      -4.956   0.995  -1.780  0.00  0.00    -0.081 HD
ENDROOT
BRANCH   3   8
ATOM      8  C   UNL     1      -1.172   1.726   0.116  0.00  0.00    +0.220 C 
ATOM      9  O   UNL     1      -1.135   2.935   0.033  0.00  0.00    -0.275 OA
ATOM     10  N   UNL     1      -0.027   1.015   0.113  0.00  0.00    -0.282 N 
ATOM     11  H   UNL     1      -0.058   0.045   0.095  0.00  0.00    +0.155 HD
BRANCH  10  12
ATOM     12  C   UNL     1       1.208   1.676   0.128  0.00  0.00    +0.075 A 
ATOM     13  C   UNL     1       1.304   2.958   0.649  0.00  0.00    +0.027 A 
ATOM     14  C   UNL     1       2.523   3.609   0.663  0.00  0.00    +0.002 A 
ATOM     15  C   UNL     1       3.650   2.984   0.160  0.00  0.00    +0.004 A 
ATOM     16  C   UNL     1       3.562   1.707  -0.361  0.00  0.00    +0.047 A 
ATOM     17  C   UNL     1       2.344   1.046  -0.374  0.00  0.00    +0.138 A 
BRANCH  17  18
ATOM     18  O   UNL     1       2.258  -0.213  -0.880  0.00  0.00    -0.505 OA
ATOM     19  H   UNL     1       2.064  -0.244  -1.827  0.00  0.00    +0.292 HD
ENDBRANCH  17  18
ENDBRANCH  10  12
ENDBRANCH   3   8
BRANCH   6  21
ATOM     20  C   UNL     1      -6.626  -1.098   0.249  0.00  0.00    -0.004 C 
ATOM     21  C   UNL     1      -6.422  -0.194  -0.968  0.00  0.00    +0.016 C 
BRANCH  21  22
ATOM     22  C   UNL     1      -6.540  -1.013  -2.227  0.00  0.00    +0.203 C 
ATOM     23  O   UNL     1      -5.604  -1.081  -2.997  0.00  0.00    -0.277 OA
ATOM     24  N   UNL     1      -7.684  -1.671  -2.499  0.00  0.00    -0.286 N 
ATOM     25  H   UNL     1      -8.454  -1.564  -1.919  0.00  0.00    +0.155 HD
BRANCH  24  26
ATOM     26  C   UNL     1      -7.761  -2.508  -3.615  0.00  0.00    +0.041 A 
ATOM     27  C   UNL     1      -7.078  -2.183  -4.778  0.00  0.00    +0.024 A 
ATOM     28  C   UNL     1      -7.150  -3.014  -5.878  0.00  0.00    +0.002 A 
ATOM     29  C   UNL     1      -7.912  -4.169  -5.833  0.00  0.00    +0.001 A 
ATOM     30  C   UNL     1      -8.602  -4.503  -4.685  0.00  0.00    +0.010 A 
ATOM     31  C   UNL     1      -8.532  -3.675  -3.567  0.00  0.00    +0.003 A 
BRANCH  31  32
ATOM     32  C   UNL     1      -9.271  -4.029  -2.330  0.00  0.00    -0.016 A 
ATOM     33  C   UNL     1      -8.615  -4.034  -1.101  0.00  0.00    +0.008 A 
ATOM     34  C   UNL     1      -9.308  -4.359   0.048  0.00  0.00    +0.001 A 
ATOM     35  C   UNL     1     -10.649  -4.690  -0.022  0.00  0.00    +0.000 A 
ATOM     36  C   UNL     1     -11.305  -4.692  -1.241  0.00  0.00    +0.001 A 
ATOM     37  C   UNL     1     -10.622  -4.364  -2.394  0.00  0.00    +0.008 A 
ENDBRANCH  31  32
ENDBRANCH  24  26
ENDBRANCH  21  22
ENDBRANCH   6  21
TORSDOF 7
