REMARK  Name = ZINC20692934
REMARK  8 active torsions:
REMARK  status: ('A' for Active; 'I' for Inactive)
REMARK    1  A    between atoms: C_1  and  O_2
REMARK    2  A    between atoms: O_2  and  C_3
REMARK    3  A    between atoms: C_6  and  O_28
REMARK    4  A    between atoms: C_16  and  C_19
REMARK    5  A    between atoms: C_22  and  O_27
REMARK    6  A    between atoms: C_23  and  O_25
REMARK    7  A    between atoms: O_25  and  C_26
REMARK    8  A    between atoms: O_28  and  C_29
REMARK                            x       y       z     vdW  Elec       q    Type
REMARK                         _______ _______ _______ _____ _____    ______ ____
ROOT
ATOM      1  C   UNL     1      -1.507   3.725  -2.293  0.00  0.00    +0.126 A 
ATOM      2  C   UNL     1      -1.987   5.021  -2.209  0.00  0.00    +0.049 A 
ATOM      3  C   UNL     1      -2.025   5.666  -0.986  0.00  0.00    +0.051 A 
ATOM      4  C   UNL     1      -1.582   5.013   0.149  0.00  0.00    +0.141 A 
ATOM      5  C   UNL     1      -1.097   3.704   0.067  0.00  0.00    +0.077 A 
ATOM      6  C   UNL     1      -1.060   3.059  -1.152  0.00  0.00    +0.026 A 
ATOM      7  C   UNL     1      -0.554   1.650  -1.321  0.00  0.00    +0.052 C 
ATOM      8  C   UNL     1       0.680   1.697  -2.207  0.00  0.00    -0.022 C 
ATOM      9  C   UNL     1       1.768   1.709  -1.479  0.00  0.00    -0.030 C 
ATOM     10  C   UNL     1       1.420   1.672  -0.003  0.00  0.00    +0.033 C 
ATOM     11  C   UNL     1      -0.013   1.086   0.008  0.00  0.00    +0.029 C 
ATOM     12  C   UNL     1      -0.796   1.621   1.196  0.00  0.00    +0.105 C 
ATOM     13  N   UNL     1      -0.659   3.093   1.245  0.00  0.00    -0.334 N 
ATOM     14  H   UNL     1      -0.250   3.577   2.144  0.00  0.00    +0.147 HD
ENDROOT
BRANCH  12  15
ATOM     15  C   UNL     1      -0.271   0.995   2.463  0.00  0.00    -0.023 A 
ATOM     16  C   UNL     1       0.887   1.479   3.043  0.00  0.00    +0.009 A 
ATOM     17  C   UNL     1       1.369   0.911   4.208  0.00  0.00    +0.049 A 
ATOM     18  C   UNL     1       0.698  -0.151   4.791  0.00  0.00    +0.158 A 
ATOM     19  C   UNL     1      -0.465  -0.642   4.204  0.00  0.00    +0.162 A 
ATOM     20  C   UNL     1      -0.946  -0.065   3.039  0.00  0.00    +0.054 A 
BRANCH  19  21
ATOM     21  O   UNL     1      -1.127  -1.685   4.772  0.00  0.00    -0.491 OA
ATOM     22  C   UNL     1      -2.313  -2.135   4.114  0.00  0.00    +0.277 C 
ENDBRANCH  19  21
BRANCH  18  23
ATOM     23  O   UNL     1       1.173  -0.714   5.934  0.00  0.00    -0.503 OA
ATOM     24  H   UNL     1       0.639  -1.557   6.396  0.00  0.00    +0.292 HD
ENDBRANCH  18  23
ENDBRANCH  12  15
BRANCH   1  26
ATOM     25  C   UNL     1      -1.945   3.832  -4.628  0.00  0.00    +0.277 C 
ATOM     26  O   UNL     1      -1.472   3.096  -3.498  0.00  0.00    -0.495 OA
ENDBRANCH   1  26
BRANCH   4  27
ATOM     27  O   UNL     1      -1.620   5.647   1.353  0.00  0.00    -0.493 OA
ATOM     28  C   UNL     1      -2.127   6.982   1.367  0.00  0.00    +0.277 C 
ENDBRANCH   4  27
TORSDOF 5
