REMARK  Name = ZINC08926067
REMARK  8 active torsions:
REMARK  status: ('A' for Active; 'I' for Inactive)
REMARK    1  A    between atoms: C_1  and  C_2
REMARK    2  A    between atoms: C_2  and  C_37
REMARK    3  A    between atoms: C_3  and  N_22
REMARK    4  A    between atoms: N_5  and  C_12
REMARK    5  A    between atoms: N_8  and  C_9
REMARK    6  A    between atoms: C_9  and  C_10
REMARK    7  A    between atoms: N_22  and  O_36
REMARK    8  A    between atoms: N_25  and  C_26
REMARK                            x       y       z     vdW  Elec       q    Type
REMARK                         _______ _______ _______ _____ _____    ______ ____
ROOT
ATOM      1  C   UNL     1      -5.247  -4.674   1.328  0.00  0.00    +0.035 C 
ATOM      2  C   UNL     1      -4.821  -3.284   0.852  0.00  0.00    +0.071 C 
ATOM      3  C   UNL     1      -3.284  -3.162   0.849  0.00  0.00    +0.224 C 
ATOM      4  N   UNL     1      -2.955  -2.905  -0.561  0.00  0.00    -0.231 N 
ATOM      5  C   UNL     1      -4.085  -2.878  -1.280  0.00  0.00    +0.311 C 
ATOM      6  O   UNL     1      -4.103  -2.684  -2.480  0.00  0.00    -0.252 OA
ATOM      7  N   UNL     1      -5.193  -3.084  -0.556  0.00  0.00    -0.273 N 
ATOM      8  C   UNL     1      -5.444  -2.199   1.732  0.00  0.00    +0.035 C 
ENDROOT
BRANCH   4   9
ATOM      9  C   UNL     1      -1.668  -2.720  -1.071  0.00  0.00    +0.047 A 
ATOM     10  C   UNL     1      -0.791  -3.781  -1.147  0.00  0.00    +0.024 A 
ATOM     11  C   UNL     1       0.492  -3.608  -1.658  0.00  0.00    +0.002 A 
ATOM     12  C   UNL     1       0.920  -2.388  -2.085  0.00  0.00    +0.008 A 
ATOM     13  C   UNL     1       0.059  -1.279  -2.019  0.00  0.00    -0.016 A 
ATOM     14  C   UNL     1      -1.251  -1.444  -1.506  0.00  0.00    +0.004 A 
ATOM     15  C   UNL     1      -2.110  -0.336  -1.439  0.00  0.00    +0.010 A 
ATOM     16  C   UNL     1      -1.675   0.881  -1.868  0.00  0.00    +0.001 A 
ATOM     17  C   UNL     1      -0.386   1.044  -2.373  0.00  0.00    +0.001 A 
ATOM     18  C   UNL     1       0.474  -0.008  -2.452  0.00  0.00    +0.008 A 
ENDBRANCH   4   9
BRANCH   3  19
ATOM     19  N   UNL     1      -2.856  -2.041   1.689  0.00  0.00    -0.144 N 
ATOM     20  C   UNL     1      -3.352  -0.807   1.470  0.00  0.00    +0.331 C 
ATOM     21  O   UNL     1      -4.239  -0.644   0.655  0.00  0.00    -0.250 OA
ATOM     22  N   UNL     1      -2.864   0.247   2.155  0.00  0.00    -0.267 N 
ATOM     23  H   UNL     1      -2.102   0.131   2.744  0.00  0.00    +0.156 HD
BRANCH  22  24
ATOM     24  C   UNL     1      -3.454   1.504   2.015  0.00  0.00    +0.043 A 
ATOM     25  C   UNL     1      -4.765   1.615   1.604  0.00  0.00    +0.024 A 
ATOM     26  C   UNL     1      -5.364   2.864   1.466  0.00  0.00    +0.002 A 
ATOM     27  C   UNL     1      -4.673   4.008   1.728  0.00  0.00    +0.008 A 
ATOM     28  C   UNL     1      -3.333   3.938   2.144  0.00  0.00    -0.016 A 
ATOM     29  C   UNL     1      -2.712   2.673   2.288  0.00  0.00    +0.003 A 
ATOM     30  C   UNL     1      -1.373   2.606   2.705  0.00  0.00    +0.010 A 
ATOM     31  C   UNL     1      -0.690   3.754   2.965  0.00  0.00    +0.001 A 
ATOM     32  C   UNL     1      -1.299   4.999   2.823  0.00  0.00    +0.001 A 
ATOM     33  C   UNL     1      -2.596   5.103   2.421  0.00  0.00    +0.008 A 
ENDBRANCH  22  24
BRANCH  19  34
ATOM     34  O   UNL     1      -1.921  -2.254   2.731  0.00  0.00    -0.289 OA
ATOM     35  H   UNL     1      -1.681  -3.182   2.861  0.00  0.00    +0.242 HD
ENDBRANCH  19  34
ENDBRANCH   3  19
BRANCH   7  36
ATOM     36  C   UNL     1      -6.560  -3.107  -1.084  0.00  0.00    +0.136 C 
BRANCH  36  37
ATOM     37  C   UNL     1      -7.139  -1.716  -1.037  0.00  0.00    -0.016 C 
ATOM     38  C   UNL     1      -7.619  -1.169  -2.126  0.00  0.00    +0.005 C 
ENDBRANCH  36  37
ENDBRANCH   7  36
TORSDOF 6
