REMARK  Name = ZINC45313883
REMARK  10 active torsions:
REMARK  status: ('A' for Active; 'I' for Inactive)
REMARK    1  A    between atoms: C_1  and  C_2
REMARK    2  A    between atoms: C_2  and  C_3
REMARK    3  A    between atoms: C_6  and  C_9
REMARK    4  A    between atoms: C_9  and  C_11
REMARK    5  A    between atoms: C_9  and  N_12
REMARK    6  A    between atoms: N_12  and  C_13
REMARK    7  A    between atoms: C_13  and  C_15
REMARK    8  A    between atoms: C_13  and  C_16
REMARK    9  A    between atoms: N_18  and  C_19
REMARK   10  A    between atoms: C_22  and  N_25
REMARK                            x       y       z     vdW  Elec       q    Type
REMARK                         _______ _______ _______ _____ _____    ______ ____
ROOT
ATOM      1  C   UNL     1       4.321  -3.431  -5.595  0.00  0.00    +0.014 C 
ATOM      2  C   UNL     1       3.261  -4.215  -6.371  0.00  0.00    -0.004 C 
ENDROOT
BRANCH   1   3
ATOM      3  C   UNL     1       5.450  -4.353  -5.214  0.00  0.00    +0.203 C 
ATOM      4  O   UNL     1       5.727  -4.522  -4.045  0.00  0.00    -0.277 OA
ATOM      5  N   UNL     1       6.153  -4.989  -6.172  0.00  0.00    -0.287 N 
ATOM      6  H   UNL     1       5.891  -4.906  -7.102  0.00  0.00    +0.155 HD
BRANCH   5   7
ATOM      7  C   UNL     1       7.262  -5.769  -5.825  0.00  0.00    +0.033 A 
ATOM      8  C   UNL     1       8.367  -5.819  -6.664  0.00  0.00    +0.025 A 
ATOM      9  C   UNL     1       9.460  -6.590  -6.318  0.00  0.00    +0.034 A 
ATOM     10  C   UNL     1       9.455  -7.311  -5.138  0.00  0.00    +0.126 A 
ATOM     11  C   UNL     1       8.355  -7.263  -4.301  0.00  0.00    +0.034 A 
ATOM     12  C   UNL     1       7.262  -6.489  -4.638  0.00  0.00    +0.025 A 
BRANCH  10  13
ATOM     13  N   UNL     1      10.627  -8.135  -4.771  0.00  0.00    +0.056 N 
ATOM     14  O   UNL     1      11.589  -8.178  -5.503  0.00  0.00    -0.126 OA
ATOM     15  O   UNL     1      10.624  -8.766  -3.740  0.00  0.00    -0.126 OA
ENDBRANCH  10  13
ENDBRANCH   5   7
ENDBRANCH   1   3
BRANCH   1  16
ATOM     16  N   UNL     1       3.719  -2.866  -4.380  0.00  0.00    +0.391 N 
ATOM     17  H   UNL     1       4.434  -2.418  -3.827  0.00  0.00    -0.084 HD
ATOM     18  H   UNL     1       3.291  -3.604  -3.842  0.00  0.00    -0.084 HD
BRANCH  16  19
ATOM     19  C   UNL     1       2.699  -1.877  -4.753  0.00  0.00    -0.043 C 
ATOM     20  C   UNL     1       3.367  -0.696  -5.460  0.00  0.00    -0.009 C 
BRANCH  19  24
ATOM     21  C   UNL     1       0.707  -0.491  -1.237  0.00  0.00    -0.048 A 
ATOM     22  C   UNL     1      -0.014  -0.728  -2.392  0.00  0.00    +0.004 A 
ATOM     23  C   UNL     1       0.630  -1.176  -3.530  0.00  0.00    +0.002 A 
ATOM     24  C   UNL     1       1.996  -1.387  -3.513  0.00  0.00    -0.062 A 
ATOM     25  C   UNL     1       2.718  -1.149  -2.358  0.00  0.00    +0.002 A 
ATOM     26  C   UNL     1       2.074  -0.697  -1.222  0.00  0.00    +0.004 A 
BRANCH  21  28
ATOM     27  C   UNL     1      -0.023   1.528   0.004  0.00  0.00    +0.009 C 
ATOM     28  C   UNL     1       0.005  -0.002   0.003  0.00  0.00    +0.032 C 
ENDBRANCH  21  28
ENDBRANCH  19  24
ENDBRANCH  16  19
ENDBRANCH   1  16
TORSDOF 7
