REMARK  Name = ZINC21737880
REMARK  7 active torsions:
REMARK  status: ('A' for Active; 'I' for Inactive)
REMARK    1  A    between atoms: C_1  and  C_2
REMARK    2  A    between atoms: C_15  and  C_17
REMARK    3  A    between atoms: C_17  and  C_19
REMARK    4  A    between atoms: C_17  and  S_20
REMARK    5  A    between atoms: S_20  and  C_21
REMARK    6  A    between atoms: N_26  and  C_27
REMARK    7  A    between atoms: C_27  and  C_28
REMARK                            x       y       z     vdW  Elec       q    Type
REMARK                         _______ _______ _______ _____ _____    ______ ____
ROOT
ATOM      1  C   UNL     1      -0.019   1.526   0.010  0.00  0.00    +0.008 C 
ATOM      2  C   UNL     1       0.002  -0.004   0.002  0.00  0.00    -0.009 C 
ATOM      3  C   UNL     1       0.726  -0.501  -1.253  0.00  0.00    +0.008 C 
ATOM      4  C   UNL     1       0.536  -2.011  -1.397  0.00  0.00    +0.037 C 
ATOM      5  C   UNL     1       0.949  -2.688  -0.093  0.00  0.00    -0.023 A 
ATOM      6  C   UNL     1       1.031  -1.976   1.055  0.00  0.00    -0.004 A 
ATOM      7  S   UNL     1       1.537  -3.145   2.292  0.00  0.00    -0.073 S 
ATOM      8  C   UNL     1       1.637  -4.581   1.270  0.00  0.00    +0.116 A 
ATOM      9  C   UNL     1       1.271  -4.101  -0.007  0.00  0.00    +0.075 A 
ATOM     10  C   UNL     1       1.257  -5.054  -1.081  0.00  0.00    +0.260 A 
ATOM     11  O   UNL     1       0.955  -4.742  -2.220  0.00  0.00    -0.267 OA
ATOM     12  N   UNL     1       1.599  -6.321  -0.747  0.00  0.00    -0.309 N 
ATOM     13  H   UNL     1       1.603  -6.997  -1.443  0.00  0.00    +0.170 HD
ATOM     14  C   UNL     1       1.938  -6.688   0.512  0.00  0.00    +0.124 A 
ATOM     15  N   UNL     1       1.962  -5.845   1.522  0.00  0.00    -0.225 NA
ATOM     16  C   UNL     1       0.751  -0.516   1.241  0.00  0.00    +0.046 C 
ENDROOT
BRANCH  14  17
ATOM     17  C   UNL     1       2.301  -8.127   0.768  0.00  0.00    +0.116 C 
ATOM     18  C   UNL     1       1.067  -8.886   1.259  0.00  0.00    +0.027 C 
BRANCH  17  19
ATOM     19  S   UNL     1       3.602  -8.207   2.031  0.00  0.00    -0.086 S 
BRANCH  19  20
ATOM     20  C   UNL     1       4.016  -9.918   2.109  0.00  0.00    +0.161 A 
ATOM     21  N   UNL     1       3.522 -10.930   1.421  0.00  0.00    -0.133 NA
ATOM     22  N   UNL     1       3.994 -12.203   1.642  0.00  0.00    -0.125 NA
ATOM     23  C   UNL     1       4.939 -12.406   2.540  0.00  0.00    +0.182 A 
ATOM     24  S   UNL     1       5.221 -10.745   3.135  0.00  0.00    -0.025 S 
ATOM     25  N   UNL     1       5.553 -13.593   2.919  0.00  0.00    -0.320 N 
ATOM     26  H   UNL     1       6.240 -13.587   3.603  0.00  0.00    +0.148 HD
BRANCH  25  27
ATOM     27  C   UNL     1       5.163 -14.855   2.285  0.00  0.00    +0.135 C 
BRANCH  27  28
ATOM     28  C   UNL     1       5.985 -16.000   2.878  0.00  0.00    +0.135 C 
ATOM     29  C   UNL     1       5.668 -17.314   2.133  0.00  0.00    +0.035 C 
ATOM     30  C   UNL     1       5.656 -18.354   3.287  0.00  0.00    +0.031 C 
ATOM     31  C   UNL     1       5.081 -17.500   4.445  0.00  0.00    +0.160 C 
ATOM     32  O   UNL     1       5.636 -16.186   4.255  0.00  0.00    -0.375 OA
ENDBRANCH  27  28
ENDBRANCH  25  27
ENDBRANCH  19  20
ENDBRANCH  17  19
ENDBRANCH  14  17
TORSDOF 5
