REMARK  Name = ZINC36579971
REMARK  10 active torsions:
REMARK  status: ('A' for Active; 'I' for Inactive)
REMARK    1  A    between atoms: C_1  and  O_2
REMARK    2  A    between atoms: O_2  and  C_3
REMARK    3  A    between atoms: C_3  and  C_5
REMARK    4  A    between atoms: C_5  and  C_6
REMARK    5  A    between atoms: C_6  and  C_7
REMARK    6  A    between atoms: C_7  and  C_9
REMARK    7  A    between atoms: C_7  and  N_13
REMARK    8  A    between atoms: C_9  and  O_11
REMARK    9  A    between atoms: O_11  and  C_12
REMARK   10  A    between atoms: C_25  and  C_27
REMARK                            x       y       z     vdW  Elec       q    Type
REMARK                         _______ _______ _______ _____ _____    ______ ____
ROOT
ATOM      1  N   UNL     1       0.803  -6.641  -1.625  0.00  0.00    -0.286 N 
ATOM      2  C   UNL     1      -0.148  -5.867  -2.184  0.00  0.00    +0.304 C 
ATOM      3  O   UNL     1       0.102  -4.714  -2.479  0.00  0.00    -0.253 OA
ATOM      4  N   UNL     1      -1.376  -6.370  -2.416  0.00  0.00    -0.273 N 
ATOM      5  C   UNL     1      -2.398  -5.573  -3.111  0.00  0.00    +0.116 C 
ATOM      6  C   UNL     1      -3.564  -5.305  -2.152  0.00  0.00    +0.074 C 
ATOM      7  C   UNL     1      -3.909  -6.585  -1.437  0.00  0.00    +0.040 A 
ATOM      8  C   UNL     1      -3.100  -7.663  -1.352  0.00  0.00    +0.062 A 
ATOM      9  N   UNL     1      -3.733  -8.602  -0.644  0.00  0.00    -0.348 N 
ATOM     10  C   UNL     1      -4.907  -8.150  -0.287  0.00  0.00    +0.171 A 
ATOM     11  N   UNL     1      -5.054  -6.893  -0.766  0.00  0.00    -0.349 N 
ATOM     12  H   UNL     1      -5.827  -6.319  -0.652  0.00  0.00    +0.166 HD
ATOM     13  C   UNL     1      -1.726  -7.735  -1.984  0.00  0.00    +0.159 C 
ATOM     14  H   UNL     1       0.586  -7.539  -1.330  0.00  0.00    +0.151 HD
ATOM     15  H   UNL     1      -3.378  -9.478  -0.429  0.00  0.00    +0.167 HD
ENDROOT
BRANCH  13  16
ATOM     16  C   UNL     1      -1.753  -8.659  -3.175  0.00  0.00    +0.014 A 
ATOM     17  C   UNL     1      -2.832  -9.500  -3.373  0.00  0.00    +0.010 A 
ATOM     18  C   UNL     1      -2.857 -10.347  -4.465  0.00  0.00    +0.016 A 
ATOM     19  C   UNL     1      -1.803 -10.354  -5.361  0.00  0.00    +0.021 A 
ATOM     20  C   UNL     1      -0.723  -9.513  -5.164  0.00  0.00    +0.054 A 
ATOM     21  C   UNL     1      -0.700  -8.660  -4.074  0.00  0.00    +0.130 A 
ATOM     22  F   UNL     1       0.352  -7.834  -3.883  0.00  0.00    -0.205 F 
ATOM     23 BR   UNL     1      -1.838 -11.513  -6.854  0.00  0.00    -0.050 Br
ENDBRANCH  13  16
BRANCH   1  24
ATOM     24  C   UNL     1       2.165  -6.125  -1.461  0.00  0.00    +0.184 C 
BRANCH  24  25
ATOM     25  C   UNL     1       2.254  -5.340  -0.178  0.00  0.00    +0.327 C 
ATOM     26  O   UNL     1       1.280  -5.222   0.527  0.00  0.00    -0.249 OA
BRANCH  25  27
ATOM     27  O   UNL     1       3.415  -4.770   0.181  0.00  0.00    -0.467 OA
ATOM     28  C   UNL     1       3.427  -4.040   1.409  0.00  0.00    +0.280 C 
ENDBRANCH  25  27
ENDBRANCH  24  25
BRANCH  24  29
ATOM     29  C   UNL     1       3.150  -7.295  -1.412  0.00  0.00    +0.045 C 
BRANCH  29  30
ATOM     30  C   UNL     1       3.150  -8.018  -2.761  0.00  0.00    +0.123 C 
BRANCH  30  31
ATOM     31  C   UNL     1       4.121  -9.169  -2.713  0.00  0.00    +0.307 C 
ATOM     32  O   UNL     1       4.748  -9.389  -1.704  0.00  0.00    -0.251 OA
BRANCH  31  34
ATOM     33  C   UNL     1       5.225 -11.024  -3.675  0.00  0.00    +0.280 C 
ATOM     34  O   UNL     1       4.289  -9.951  -3.791  0.00  0.00    -0.468 OA
ENDBRANCH  31  34
ENDBRANCH  30  31
ENDBRANCH  29  30
ENDBRANCH  24  29
ENDBRANCH   1  24
TORSDOF 8
