REMARK  Name = ZINC43527266
REMARK  7 active torsions:
REMARK  status: ('A' for Active; 'I' for Inactive)
REMARK    1  A    between atoms: C_1  and  C_2
REMARK    2  A    between atoms: C_2  and  C_3
REMARK    3  A    between atoms: C_2  and  N_4
REMARK    4  A    between atoms: N_7  and  C_8
REMARK    5  A    between atoms: C_8  and  C_9
REMARK    6  A    between atoms: C_18  and  C_20
REMARK    7  A    between atoms: C_20  and  N_21
REMARK                            x       y       z     vdW  Elec       q    Type
REMARK                         _______ _______ _______ _____ _____    ______ ____
ROOT
ATOM      1  C   UNL     1       0.823  -1.787   5.796  0.00  0.00    -0.051 C 
ATOM      2  C   UNL     1       0.172  -2.010   7.163  0.00  0.00    -0.010 C 
ATOM      3  C   UNL     1       0.329  -3.486   7.552  0.00  0.00    -0.012 C 
ATOM      4  C   UNL     1      -0.358  -4.344   6.482  0.00  0.00    -0.015 C 
ATOM      5  C   UNL     1       0.289  -4.052   5.126  0.00  0.00    -0.078 C 
ATOM      6  N   UNL     1       1.384  -3.046   5.300  0.00  0.00    +0.383 N 
ATOM      7  C   UNL     1       2.422  -3.542   6.206  0.00  0.00    -0.073 C 
ATOM      8  C   UNL     1       1.826  -3.821   7.585  0.00  0.00    -0.011 C 
ATOM      9  H   UNL     1       1.809  -2.874   4.401  0.00  0.00    -0.081 HD
ENDROOT
BRANCH   1  10
ATOM     10  C   UNL     1      -0.228  -1.276   4.810  0.00  0.00    +0.090 C 
BRANCH  10  14
ATOM     11  N   UNL     1       0.166  -0.641   1.210  0.00  0.00    -0.297 N 
ATOM     12  C   UNL     1      -0.380  -0.737   2.438  0.00  0.00    +0.300 C 
ATOM     13  O   UNL     1      -1.545  -0.434   2.612  0.00  0.00    -0.253 OA
ATOM     14  N   UNL     1       0.365  -1.170   3.475  0.00  0.00    -0.301 N 
ATOM     15  H   UNL     1       1.095  -0.883   1.071  0.00  0.00    +0.150 HD
ATOM     16  H   UNL     1       1.294  -1.413   3.336  0.00  0.00    +0.150 HD
BRANCH  11  18
ATOM     17  C   UNL     1      -0.631   1.359   0.050  0.00  0.00    +0.027 C 
ATOM     18  C   UNL     1      -0.644  -0.170   0.084  0.00  0.00    +0.068 C 
ATOM     19  C   UNL     1      -0.065  -0.714  -1.224  0.00  0.00    +0.027 C 
ENDBRANCH  11  18
ENDBRANCH  10  14
ENDBRANCH   1  10
BRANCH   8  20
ATOM     20  C   UNL     1       2.013  -5.299   7.934  0.00  0.00    +0.086 C 
BRANCH  20  21
ATOM     21  N   UNL     1       3.444  -5.587   8.095  0.00  0.00    -0.301 NA
ATOM     22  C   UNL     1       3.717  -7.014   7.911  0.00  0.00    +0.095 C 
ATOM     23  C   UNL     1       5.208  -7.226   7.625  0.00  0.00    +0.084 C 
ATOM     24  S   UNL     1       6.156  -6.631   9.061  0.00  0.00    -0.158 S 
ATOM     25  C   UNL     1       5.470  -4.968   9.334  0.00  0.00    +0.084 C 
ATOM     26  C   UNL     1       3.941  -5.078   9.376  0.00  0.00    +0.095 C 
ENDBRANCH  20  21
ENDBRANCH   8  20
TORSDOF 5
