REMARK  Name = ZINC36500533
REMARK  11 active torsions:
REMARK  status: ('A' for Active; 'I' for Inactive)
REMARK    1  A    between atoms: C_1  and  C_2
REMARK    2  A    between atoms: C_2  and  C_4
REMARK    3  A    between atoms: C_2  and  C_10
REMARK    4  A    between atoms: C_10  and  C_12
REMARK    5  A    between atoms: C_10  and  N_21
REMARK    6  A    between atoms: N_14  and  C_15
REMARK    7  A    between atoms: N_21  and  C_22
REMARK    8  A    between atoms: C_22  and  C_23
REMARK    9  A    between atoms: C_28  and  C_30
REMARK   10  A    between atoms: C_31  and  O_37
REMARK   11  A    between atoms: C_35  and  O_36
REMARK                            x       y       z     vdW  Elec       q    Type
REMARK                         _______ _______ _______ _____ _____    ______ ____
ROOT
ATOM      1  C   UNL     1       0.718  -0.497  -1.257  0.00  0.00    +0.170 C 
ENDROOT
BRANCH   1   2
ATOM      2  C   UNL     1       0.739  -2.004  -1.265  0.00  0.00    +0.234 C 
ATOM      3  O   UNL     1       0.213  -2.613  -2.173  0.00  0.00    -0.274 OA
ATOM      4  N   UNL     1       1.341  -2.676  -0.264  0.00  0.00    -0.311 N 
ATOM      5  H   UNL     1       1.761  -2.189   0.463  0.00  0.00    +0.149 HD
BRANCH   4   6
ATOM      6  C   UNL     1       1.361  -4.141  -0.272  0.00  0.00    +0.073 C 
ATOM      7  C   UNL     1       0.066  -4.671   0.348  0.00  0.00    +0.022 C 
ATOM      8  C   UNL     1       0.087  -6.201   0.339  0.00  0.00    +0.002 C 
ATOM      9  C   UNL     1       1.283  -6.700   1.153  0.00  0.00    +0.000 C 
ATOM     10  C   UNL     1       2.578  -6.169   0.533  0.00  0.00    +0.002 C 
ATOM     11  C   UNL     1       2.557  -4.639   0.542  0.00  0.00    +0.022 C 
ENDBRANCH   4   6
ENDBRANCH   1   2
BRANCH   1  12
ATOM     12  N   UNL     1       0.010  -0.012  -2.444  0.00  0.00    -0.278 N 
ATOM     13  C   UNL     1       0.646   0.776  -3.333  0.00  0.00    +0.255 C 
ATOM     14  O   UNL     1       1.808   1.085  -3.150  0.00  0.00    -0.270 OA
BRANCH  13  15
ATOM     15  C   UNL     1      -0.067   1.264  -4.526  0.00  0.00    +0.119 A 
ATOM     16  C   UNL     1      -0.761   2.482  -4.485  0.00  0.00    +0.133 A 
ATOM     17  C   UNL     1      -1.427   2.932  -5.613  0.00  0.00    +0.046 A 
ATOM     18  C   UNL     1      -1.409   2.185  -6.776  0.00  0.00    +0.007 A 
ATOM     19  C   UNL     1      -0.729   0.983  -6.827  0.00  0.00    +0.046 A 
ATOM     20  C   UNL     1      -0.051   0.517  -5.712  0.00  0.00    +0.133 A 
BRANCH  20  21
ATOM     21  O   UNL     1       0.622  -0.660  -5.767  0.00  0.00    -0.506 OA
ATOM     22  H   UNL     1       0.088  -1.429  -5.523  0.00  0.00    +0.292 HD
ENDBRANCH  20  21
BRANCH  16  23
ATOM     23  O   UNL     1      -0.780   3.217  -3.345  0.00  0.00    -0.506 OA
ATOM     24  H   UNL     1      -0.056   3.854  -3.275  0.00  0.00    +0.292 HD
ENDBRANCH  16  23
ENDBRANCH  13  15
BRANCH  12  25
ATOM     25  C   UNL     1      -1.390  -0.384  -2.664  0.00  0.00    +0.183 C 
BRANCH  25  26
ATOM     26  C   UNL     1      -2.289   0.639  -2.019  0.00  0.00    +0.122 A 
ATOM     27  C   UNL     1      -2.770   1.748  -2.610  0.00  0.00    +0.046 A 
ATOM     28  C   UNL     1      -3.563   2.414  -1.647  0.00  0.00    +0.041 A 
ATOM     29  C   UNL     1      -3.519   1.673  -0.526  0.00  0.00    +0.195 A 
ATOM     30  O   UNL     1      -2.751   0.596  -0.759  0.00  0.00    -0.466 OA
ENDBRANCH  25  26
ENDBRANCH  12  25
ENDBRANCH   1  12
BRANCH   1  32
ATOM     31  C   UNL     1      -0.019   1.526   0.010  0.00  0.00    +0.015 C 
ATOM     32  C   UNL     1       0.002  -0.004   0.002  0.00  0.00    +0.045 C 
BRANCH  32  33
ATOM     33  C   UNL     1       0.731  -0.503   1.223  0.00  0.00    -0.042 A 
ATOM     34  C   UNL     1       2.050  -0.148   1.434  0.00  0.00    +0.004 A 
ATOM     35  C   UNL     1       2.719  -0.606   2.554  0.00  0.00    +0.000 A 
ATOM     36  C   UNL     1       2.068  -1.419   3.463  0.00  0.00    +0.000 A 
ATOM     37  C   UNL     1       0.749  -1.773   3.252  0.00  0.00    +0.000 A 
ATOM     38  C   UNL     1       0.079  -1.312   2.135  0.00  0.00    +0.004 A 
ENDBRANCH  32  33
ENDBRANCH   1  32
TORSDOF 10
