REMARK  Name = ZINC40445543
REMARK  7 active torsions:
REMARK  status: ('A' for Active; 'I' for Inactive)
REMARK    1  A    between atoms: C_1  and  C_2
REMARK    2  A    between atoms: C_9  and  N_11
REMARK    3  A    between atoms: N_11  and  C_12
REMARK    4  A    between atoms: C_12  and  C_14
REMARK    5  A    between atoms: C_12  and  C_15
REMARK    6  A    between atoms: C_16  and  C_21
REMARK    7  A    between atoms: C_18  and  C_20
REMARK                            x       y       z     vdW  Elec       q    Type
REMARK                         _______ _______ _______ _____ _____    ______ ____
ROOT
ATOM      1  N   UNL     1       0.050  -2.771   2.395  0.00  0.00    -0.322 N 
ATOM      2  H   UNL     1       0.064  -3.740   2.393  0.00  0.00    +0.148 HD
ENDROOT
BRANCH   1  11
ATOM      3  C   UNL     1      -0.018   1.503   0.010  0.00  0.00    +0.044 C 
ATOM      4  C   UNL     1       0.002  -0.004   0.002  0.00  0.00    -0.044 A 
ATOM      5  C   UNL     1       0.006  -0.683  -1.182  0.00  0.00    +0.051 A 
ATOM      6  C   UNL     1       0.025  -2.087  -1.172  0.00  0.00    +0.158 A 
ATOM      7  N   UNL     1       0.033  -2.998  -2.140  0.00  0.00    -0.215 NA
ATOM      8  C   UNL     1       0.052  -4.213  -1.609  0.00  0.00    +0.246 A 
ATOM      9  N   UNL     1       0.057  -4.123  -0.301  0.00  0.00    -0.152 NA
ATOM     10  N   UNL     1       0.040  -2.758   0.019  0.00  0.00    -0.199 N 
ATOM     11  C   UNL     1       0.035  -2.076   1.199  0.00  0.00    +0.123 A 
ATOM     12  C   UNL     1       0.023  -0.712   1.207  0.00  0.00    +0.047 A 
ENDBRANCH   1  11
BRANCH   1  13
ATOM     13  C   UNL     1       0.046  -2.041   3.666  0.00  0.00    +0.107 C 
ATOM     14  C   UNL     1      -1.394  -1.698   4.052  0.00  0.00    +0.033 C 
BRANCH  13  15
ATOM     15  C   UNL     1       0.663  -2.900   4.739  0.00  0.00    +0.032 A 
ATOM     16  C   UNL     1       1.570  -2.573   5.696  0.00  0.00    +0.051 A 
ATOM     17  N   UNL     1       1.943  -3.534   6.518  0.00  0.00    -0.249 NA
ATOM     18  C   UNL     1       1.459  -4.746   6.414  0.00  0.00    +0.076 A 
ATOM     19  S   UNL     1       0.399  -4.626   5.112  0.00  0.00    -0.075 S 
ATOM     20  C   UNL     1       1.771  -5.955   7.259  0.00  0.00    +0.073 C 
ATOM     21  C   UNL     1       2.125  -1.177   5.812  0.00  0.00    +0.066 C 
ENDBRANCH  13  15
ENDBRANCH   1  13
TORSDOF 3
