REMARK  Name = ZINC67272408
REMARK  6 active torsions:
REMARK  status: ('A' for Active; 'I' for Inactive)
REMARK    1  A    between atoms: C_1  and  C_2
REMARK    2  A    between atoms: N_5  and  C_8
REMARK    3  A    between atoms: C_8  and  C_10
REMARK    4  A    between atoms: C_8  and  C_11
REMARK    5  A    between atoms: C_11  and  N_12
REMARK    6  A    between atoms: C_13  and  C_15
REMARK                            x       y       z     vdW  Elec       q    Type
REMARK                         _______ _______ _______ _____ _____    ______ ____
ROOT
ATOM      1  N   UNL     1       1.401  -3.769   2.567  0.00  0.00    -0.313 N 
ATOM      2  C   UNL     1       2.344  -4.097   3.472  0.00  0.00    +0.244 C 
ATOM      3  O   UNL     1       2.099  -4.919   4.334  0.00  0.00    -0.270 OA
ATOM      4  H   UNL     1       1.597  -3.113   1.879  0.00  0.00    +0.149 HD
ENDROOT
BRANCH   2   5
ATOM      5  C   UNL     1       3.673  -3.459   3.418  0.00  0.00    +0.039 A 
ATOM      6  C   UNL     1       3.952  -2.509   2.430  0.00  0.00    +0.014 A 
ATOM      7  C   UNL     1       5.193  -1.912   2.376  0.00  0.00    +0.017 A 
ATOM      8  C   UNL     1       6.166  -2.255   3.306  0.00  0.00    +0.029 A 
ATOM      9  C   UNL     1       5.894  -3.201   4.297  0.00  0.00    +0.048 A 
ATOM     10  C   UNL     1       4.651  -3.799   4.358  0.00  0.00    +0.037 A 
ATOM     11  N   UNL     1       6.891  -3.529   5.229  0.00  0.00    -0.285 N 
ATOM     12  C   UNL     1       7.537  -2.565   5.895  0.00  0.00    +0.218 C 
ATOM     13  O   UNL     1       8.520  -2.849   6.547  0.00  0.00    -0.275 OA
ATOM     14  C   UNL     1       7.069  -1.140   5.851  0.00  0.00    +0.107 C 
ATOM     15  C   UNL     1       7.747  -0.387   4.694  0.00  0.00    +0.083 C 
ATOM     16  S   UNL     1       7.761  -1.504   3.250  0.00  0.00    -0.123 S 
ATOM     17  H   UNL     1       7.112  -4.460   5.391  0.00  0.00    +0.155 HD
ENDBRANCH   2   5
BRANCH   1  18
ATOM     18  C   UNL     1       0.082  -4.402   2.621  0.00  0.00    +0.089 C 
BRANCH  18  19
ATOM     19  C   UNL     1      -0.753  -3.945   1.423  0.00  0.00    -0.054 C 
ATOM     20  C   UNL     1      -2.159  -4.540   1.525  0.00  0.00    -0.012 C 
BRANCH  19  25
ATOM     21  C   UNL     1      -2.251   1.558   1.371  0.00  0.00    +0.007 C 
ATOM     22  C   UNL     1      -2.293   0.028   1.371  0.00  0.00    -0.018 C 
ATOM     23  C   UNL     1      -1.621  -0.503   2.641  0.00  0.00    -0.016 C 
ATOM     24  C   UNL     1      -1.596  -2.032   2.597  0.00  0.00    -0.078 C 
ATOM     25  N   UNL     1      -0.842  -2.478   1.420  0.00  0.00    +0.382 N 
ATOM     26  C   UNL     1      -1.519  -2.034   0.196  0.00  0.00    -0.078 C 
ATOM     27  C   UNL     1      -1.542  -0.504   0.148  0.00  0.00    -0.016 C 
ATOM     28  H   UNL     1       0.088  -2.088   1.449  0.00  0.00    -0.081 HD
ENDBRANCH  19  25
ENDBRANCH  18  19
ENDBRANCH   1  18
TORSDOF 4
