REMARK  Name = ZINC09281304
REMARK  6 active torsions:
REMARK  status: ('A' for Active; 'I' for Inactive)
REMARK    1  A    between atoms: C_1  and  C_2
REMARK    2  A    between atoms: C_14  and  C_35
REMARK    3  A    between atoms: N_16  and  C_17
REMARK    4  A    between atoms: C_17  and  C_19
REMARK    5  A    between atoms: N_27  and  C_28
REMARK    6  A    between atoms: C_28  and  C_29
REMARK                            x       y       z     vdW  Elec       q    Type
REMARK                         _______ _______ _______ _____ _____    ______ ____
ROOT
ATOM      1  C   UNL     1      -0.731   3.045  -0.258  0.00  0.00    +0.047 C 
ATOM      2  C   UNL     1      -1.114   1.636  -0.630  0.00  0.00    -0.007 A 
ATOM      3  C   UNL     1      -1.488   1.343  -1.907  0.00  0.00    +0.008 A 
ATOM      4  C   UNL     1      -1.841   0.028  -2.240  0.00  0.00    +0.019 A 
ATOM      5  C   UNL     1      -1.809  -0.941  -1.297  0.00  0.00    +0.096 A 
ATOM      6  N   UNL     1      -1.437  -0.657  -0.017  0.00  0.00    -0.267 N 
ATOM      7  C   UNL     1      -1.081   0.614   0.339  0.00  0.00    +0.145 A 
ATOM      8  N   UNL     1      -0.707   0.924   1.580  0.00  0.00    -0.211 NA
ATOM      9  C   UNL     1      -0.651   0.021   2.548  0.00  0.00    +0.150 A 
ATOM     10  C   UNL     1      -0.998  -1.321   2.261  0.00  0.00    +0.084 A 
ATOM     11  C   UNL     1      -1.417  -1.653   0.899  0.00  0.00    +0.268 A 
ATOM     12  O   UNL     1      -1.727  -2.791   0.596  0.00  0.00    -0.267 OA
ATOM     13  C   UNL     1      -0.947  -2.292   3.266  0.00  0.00    +0.039 A 
ATOM     14  C   UNL     1      -0.551  -1.917   4.548  0.00  0.00    +0.093 A 
ATOM     15  C   UNL     1      -0.209  -0.568   4.810  0.00  0.00    +0.146 A 
ATOM     16  N   UNL     1       0.170  -0.209   6.034  0.00  0.00    -0.158 NA
ATOM     17  N   UNL     1      -0.262   0.370   3.816  0.00  0.00    -0.308 N 
ENDROOT
BRANCH  16  18
ATOM     18  C   UNL     1      -0.108   1.016   6.488  0.00  0.00    +0.270 C 
ATOM     19  O   UNL     1      -1.264   1.401   6.535  0.00  0.00    -0.268 OA
BRANCH  18  20
ATOM     20  C   UNL     1       0.987   1.907   6.934  0.00  0.00    +0.057 A 
ATOM     21  C   UNL     1       2.308   1.458   6.913  0.00  0.00    +0.016 A 
ATOM     22  C   UNL     1       3.324   2.292   7.328  0.00  0.00    +0.021 A 
ATOM     23  C   UNL     1       3.037   3.575   7.766  0.00  0.00    +0.042 A 
ATOM     24  C   UNL     1       1.729   4.027   7.789  0.00  0.00    +0.040 A 
ATOM     25  C   UNL     1       0.703   3.203   7.370  0.00  0.00    +0.055 A 
ATOM     26 CL   UNL     1      -0.937   3.773   7.394  0.00  0.00    -0.083 Cl
ATOM     27 CL   UNL     1       4.322   4.618   8.288  0.00  0.00    -0.083 Cl
ENDBRANCH  18  20
ENDBRANCH  16  18
BRANCH  14  28
ATOM     28  C   UNL     1      -0.491  -2.892   5.596  0.00  0.00    +0.103 C 
ATOM     29  N   UNL     1      -0.443  -3.664   6.428  0.00  0.00    -0.191 NA
ENDBRANCH  14  28
BRANCH  17  30
ATOM     30  C   UNL     1       0.097   1.760   4.108  0.00  0.00    +0.156 C 
BRANCH  30  31
ATOM     31  C   UNL     1       1.620   1.909   4.085  0.00  0.00    +0.138 C 
ATOM     32  C   UNL     1       2.007   3.373   4.383  0.00  0.00    +0.035 C 
ATOM     33  C   UNL     1       3.195   3.605   3.410  0.00  0.00    +0.031 C 
ATOM     34  C   UNL     1       2.761   2.734   2.204  0.00  0.00    +0.160 C 
ATOM     35  O   UNL     1       2.120   1.583   2.783  0.00  0.00    -0.375 OA
ENDBRANCH  30  31
ENDBRANCH  17  30
TORSDOF 5
