REMARK  Name = ZINC05350659
REMARK  9 active torsions:
REMARK  status: ('A' for Active; 'I' for Inactive)
REMARK    1  A    between atoms: C_1  and  C_2
REMARK    2  A    between atoms: C_2  and  C_3
REMARK    3  A    between atoms: C_3  and  C_5
REMARK    4  A    between atoms: C_3  and  N_6
REMARK    5  A    between atoms: C_19  and  C_26
REMARK    6  A    between atoms: C_20  and  C_25
REMARK    7  A    between atoms: C_28  and  C_30
REMARK    8  A    between atoms: C_30  and  C_32
REMARK    9  A    between atoms: C_30  and  O_33
REMARK                            x       y       z     vdW  Elec       q    Type
REMARK                         _______ _______ _______ _____ _____    ______ ____
ROOT
ATOM      1  N   UNL     1       1.989  -0.050  -1.089  0.00  0.00    -0.239 N 
ATOM      2  C   UNL     1       2.852  -0.503  -0.172  0.00  0.00    +0.224 C 
ATOM      3  O   UNL     1       2.614  -1.362   0.650  0.00  0.00    -0.275 OA
ATOM      4  C   UNL     1       4.169   0.224  -0.320  0.00  0.00    +0.075 C 
ATOM      5  C   UNL     1       3.912   1.194  -1.507  0.00  0.00    +0.088 C 
ATOM      6  C   UNL     1       2.480   0.900  -1.893  0.00  0.00    +0.225 C 
ATOM      7  O   UNL     1       1.870   1.442  -2.789  0.00  0.00    -0.275 OA
ATOM      8  C   UNL     1       4.028   2.594  -0.894  0.00  0.00    +0.050 C 
ATOM      9  C   UNL     1       4.648   3.568  -1.856  0.00  0.00    -0.027 A 
ATOM     10  C   UNL     1       5.856   3.611  -2.514  0.00  0.00    +0.005 A 
ATOM     11  C   UNL     1       6.148   4.668  -3.358  0.00  0.00    +0.004 A 
ATOM     12  C   UNL     1       5.222   5.680  -3.538  0.00  0.00    -0.046 A 
ATOM     13  C   UNL     1       4.010   5.641  -2.882  0.00  0.00    -0.026 A 
ATOM     14  C   UNL     1       3.708   4.580  -2.031  0.00  0.00    +0.039 A 
ATOM     15  N   UNL     1       2.568   4.317  -1.268  0.00  0.00    -0.286 N 
ATOM     16  C   UNL     1       2.675   3.168  -0.573  0.00  0.00    +0.211 C 
ATOM     17  O   UNL     1       1.842   2.689   0.167  0.00  0.00    -0.277 OA
ATOM     18  C   UNL     1       3.009   6.748  -3.086  0.00  0.00    +0.046 C 
ATOM     19  C   UNL     1       5.540   6.832  -4.456  0.00  0.00    +0.044 C 
ATOM     20  N   UNL     1       4.847   2.437   0.322  0.00  0.00    +0.396 N 
ATOM     21  C   UNL     1       4.388   1.130   0.911  0.00  0.00    -0.028 C 
ATOM     22  H   UNL     1       1.790   4.895  -1.242  0.00  0.00    +0.155 HD
ATOM     23  H   UNL     1       5.827   2.396   0.085  0.00  0.00    -0.083 HD
ATOM     24  H   UNL     1       4.670   3.193   0.967  0.00  0.00    -0.083 HD
ENDROOT
BRANCH   1  25
ATOM     25  C   UNL     1       0.619  -0.557  -1.207  0.00  0.00    +0.081 C 
ATOM     26  C   UNL     1      -0.370   0.595  -1.018  0.00  0.00    +0.028 C 
BRANCH  25  28
ATOM     27  C   UNL     1       1.314  -2.412  -2.730  0.00  0.00    +0.006 C 
ATOM     28  C   UNL     1       0.422  -1.176  -2.592  0.00  0.00    +0.019 C 
ENDBRANCH  25  28
ENDBRANCH   1  25
BRANCH  21  29
ATOM     29  C   UNL     1       5.473   0.544   1.817  0.00  0.00    +0.098 C 
ATOM     30  C   UNL     1       5.674   1.456   3.028  0.00  0.00    +0.036 C 
BRANCH  29  31
ATOM     31  O   UNL     1       5.074  -0.755   2.259  0.00  0.00    -0.394 OA
ATOM     32  H   UNL     1       4.248  -0.763   2.762  0.00  0.00    +0.210 HD
ENDBRANCH  29  31
ENDBRANCH  21  29
TORSDOF 4
