REMARK  Name = ZINC07656698
REMARK  9 active torsions:
REMARK  status: ('A' for Active; 'I' for Inactive)
REMARK    1  A    between atoms: C_1  and  C_2
REMARK    2  A    between atoms: C_2  and  C_4
REMARK    3  A    between atoms: C_2  and  O_16
REMARK    4  A    between atoms: C_4  and  C_6
REMARK    5  A    between atoms: O_16  and  C_17
REMARK    6  A    between atoms: C_17  and  C_19
REMARK    7  A    between atoms: C_22  and  N_27
REMARK    8  A    between atoms: C_24  and  O_25
REMARK    9  A    between atoms: O_25  and  C_26
REMARK                            x       y       z     vdW  Elec       q    Type
REMARK                         _______ _______ _______ _____ _____    ______ ____
ROOT
ATOM      1  O   UNL     1      -0.016   1.344   0.009  0.00  0.00    -0.450 OA
ENDROOT
BRANCH   1   3
ATOM      2  C   UNL     1       1.733   2.251   1.440  0.00  0.00    +0.061 C 
ATOM      3  C   UNL     1       1.268   2.021   0.001  0.00  0.00    +0.244 C 
BRANCH   3   4
ATOM      4  C   UNL     1       1.133   3.347  -0.701  0.00  0.00    +0.205 C 
ATOM      5  O   UNL     1       0.039   3.858  -0.827  0.00  0.00    -0.288 OA
BRANCH   4   6
ATOM      6  C   UNL     1       2.282   3.998  -1.214  0.00  0.00    +0.046 A 
ATOM      7  C   UNL     1       3.585   3.554  -1.146  0.00  0.00    +0.095 A 
ATOM      8  N   UNL     1       4.399   4.442  -1.747  0.00  0.00    -0.360 N 
ATOM      9  H   UNL     1       5.361   4.344  -1.827  0.00  0.00    +0.165 HD
ATOM     10  C   UNL     1       3.677   5.515  -2.231  0.00  0.00    +0.047 A 
ATOM     11  C   UNL     1       2.326   5.292  -1.923  0.00  0.00    +0.010 A 
ATOM     12  C   UNL     1       1.361   6.223  -2.296  0.00  0.00    +0.011 A 
ATOM     13  C   UNL     1       1.739   7.365  -2.970  0.00  0.00    +0.001 A 
ATOM     14  C   UNL     1       3.073   7.588  -3.274  0.00  0.00    +0.002 A 
ATOM     15  C   UNL     1       4.039   6.674  -2.910  0.00  0.00    +0.026 A 
ENDBRANCH   4   6
ENDBRANCH   3   4
ENDBRANCH   1   3
BRANCH   1  16
ATOM     16  C   UNL     1       0.002  -0.004   0.002  0.00  0.00    +0.343 C 
ATOM     17  O   UNL     1       1.063  -0.597  -0.011  0.00  0.00    -0.245 OA
BRANCH  16  18
ATOM     18  C   UNL     1      -1.261  -0.757   0.010  0.00  0.00    +0.102 A 
ATOM     19  C   UNL     1      -2.485  -0.076   0.031  0.00  0.00    +0.040 A 
ATOM     20  C   UNL     1      -3.657  -0.775   0.034  0.00  0.00    +0.063 A 
ATOM     21  C   UNL     1      -3.646  -2.170   0.026  0.00  0.00    +0.047 A 
ATOM     22  C   UNL     1      -2.440  -2.860   0.011  0.00  0.00    +0.070 A 
ATOM     23  C   UNL     1      -1.245  -2.161   0.002  0.00  0.00    +0.136 A 
ATOM     24 CL   UNL     1      -5.170   0.076   0.054  0.00  0.00    -0.082 Cl
BRANCH  21  25
ATOM     25  N   UNL     1      -4.846  -2.873   0.035  0.00  0.00    -0.357 N 
ATOM     26  H   UNL     1      -4.840  -3.843   0.030  0.00  0.00    +0.142 HD
ATOM     27  H   UNL     1      -5.689  -2.393   0.046  0.00  0.00    +0.142 HD
ENDBRANCH  21  25
BRANCH  23  28
ATOM     28  O   UNL     1      -0.065  -2.829  -0.013  0.00  0.00    -0.494 OA
ATOM     29  C   UNL     1      -0.127  -4.256  -0.020  0.00  0.00    +0.277 C 
ENDBRANCH  23  28
ENDBRANCH  16  18
ENDBRANCH   1  16
TORSDOF 7
