REMARK  Name = ZINC11194127
REMARK  9 active torsions:
REMARK  status: ('A' for Active; 'I' for Inactive)
REMARK    1  A    between atoms: C_1  and  C_2
REMARK    2  A    between atoms: C_2  and  C_4
REMARK    3  A    between atoms: C_2  and  O_17
REMARK    4  A    between atoms: N_6  and  C_7
REMARK    5  A    between atoms: C_10  and  S_13
REMARK    6  A    between atoms: S_13  and  N_16
REMARK    7  A    between atoms: O_17  and  C_18
REMARK    8  A    between atoms: C_18  and  C_20
REMARK    9  A    between atoms: C_21  and  C_22
REMARK                            x       y       z     vdW  Elec       q    Type
REMARK                         _______ _______ _______ _____ _____    ______ ____
ROOT
ATOM      1  C   UNL     1       2.320   5.412   0.718  0.00  0.00    +0.258 C 
ATOM      2  O   UNL     1       1.253   5.753   1.183  0.00  0.00    -0.271 OA
ATOM      3  N   UNL     1       3.395   6.217   0.837  0.00  0.00    -0.282 N 
ATOM      4  H   UNL     1       4.263   5.917   0.524  0.00  0.00    +0.155 HD
ENDROOT
BRANCH   3   5
ATOM      5  C   UNL     1       3.258   7.486   1.411  0.00  0.00    +0.034 A 
ATOM      6  C   UNL     1       4.024   8.547   0.944  0.00  0.00    +0.025 A 
ATOM      7  C   UNL     1       3.883   9.799   1.509  0.00  0.00    +0.030 A 
ATOM      8  C   UNL     1       2.989   9.995   2.546  0.00  0.00    +0.105 A 
ATOM      9  C   UNL     1       2.230   8.939   3.017  0.00  0.00    +0.030 A 
ATOM     10  C   UNL     1       2.361   7.686   2.452  0.00  0.00    +0.025 A 
BRANCH   8  11
ATOM     11  S   UNL     1       2.817  11.593   3.269  0.00  0.00    +0.056 S 
ATOM     12  O   UNL     1       3.241  12.530   2.288  0.00  0.00    -0.153 OA
ATOM     13  O   UNL     1       1.523  11.636   3.854  0.00  0.00    -0.153 OA
BRANCH  11  14
ATOM     14  N   UNL     1       3.904  11.686   4.514  0.00  0.00    -0.204 NA
ATOM     15  H   UNL     1       4.479  10.931   4.714  0.00  0.00    +0.144 HD
ATOM     16  H   UNL     1       3.966  12.496   5.044  0.00  0.00    +0.144 HD
ENDBRANCH  11  14
ENDBRANCH   8  11
ENDBRANCH   3   5
BRANCH   1  18
ATOM     17  C   UNL     1       2.890   4.327  -1.438  0.00  0.00    +0.062 C 
ATOM     18  C   UNL     1       2.445   4.090   0.006  0.00  0.00    +0.259 C 
BRANCH  18  19
ATOM     19  O   UNL     1       1.179   3.425   0.011  0.00  0.00    -0.449 OA
BRANCH  19  20
ATOM     20  C   UNL     1       1.196   2.075   0.011  0.00  0.00    +0.333 C 
ATOM     21  O   UNL     1       2.258   1.480   0.006  0.00  0.00    -0.246 OA
BRANCH  20  22
ATOM     22  C   UNL     1      -0.018   1.354   0.016  0.00  0.00    +0.095 C 
ATOM     23  C   UNL     1      -0.001  -0.004   0.015  0.00  0.00    +0.053 C 
BRANCH  23  24
ATOM     24  C   UNL     1      -1.217  -0.726   0.020  0.00  0.00    +0.130 A 
ATOM     25  C   UNL     1      -1.347  -2.101   0.015  0.00  0.00    +0.050 A 
ATOM     26  C   UNL     1      -2.722  -2.372   0.026  0.00  0.00    +0.057 A 
ATOM     27  C   UNL     1      -3.365  -1.181   0.029  0.00  0.00    +0.171 A 
ATOM     28  O   UNL     1      -2.458  -0.195   0.025  0.00  0.00    -0.449 OA
ATOM     29 BR   UNL     1      -5.242  -0.947   0.037  0.00  0.00    -0.008 Br
ENDBRANCH  23  24
ENDBRANCH  20  22
ENDBRANCH  19  20
ENDBRANCH  18  19
ENDBRANCH   1  18
TORSDOF 8
