REMARK  Name = ZINC40729107
REMARK  15 active torsions:
REMARK  status: ('A' for Active; 'I' for Inactive)
REMARK    1  A    between atoms: C_1  and  C_2
REMARK    2  A    between atoms: C_2  and  O_3
REMARK    3  A    between atoms: O_3  and  C_4
REMARK    4  A    between atoms: C_6  and  C_15
REMARK    5  A    between atoms: C_9  and  O_10
REMARK    6  A    between atoms: O_10  and  C_11
REMARK    7  A    between atoms: C_11  and  C_12
REMARK    8  A    between atoms: C_11  and  C_13
REMARK    9  A    between atoms: C_15  and  N_16
REMARK   10  A    between atoms: N_16  and  C_17
REMARK   11  A    between atoms: C_17  and  C_18
REMARK   12  A    between atoms: C_18  and  C_19
REMARK   13  A    between atoms: C_19  and  S_20
REMARK   14  A    between atoms: S_20  and  C_21
REMARK   15  A    between atoms: N_25  and  C_26
REMARK                            x       y       z     vdW  Elec       q    Type
REMARK                         _______ _______ _______ _____ _____    ______ ____
ROOT
ATOM      1  N   UNL     1       0.785  -5.241  -1.571  0.00  0.00    +0.382 N 
ATOM      2  H   UNL     1       1.066  -4.376  -2.008  0.00  0.00    -0.085 HD
ATOM      3  H   UNL     1       1.589  -5.681  -1.149  0.00  0.00    -0.085 HD
ENDROOT
BRANCH   1   4
ATOM      4  C   UNL     1      -0.219  -4.963  -0.535  0.00  0.00    -0.047 C 
BRANCH   4   7
ATOM      5  C   UNL     1       0.802  -1.825   1.306  0.00  0.00    +0.163 A 
ATOM      6  C   UNL     1       0.260  -2.673   0.352  0.00  0.00    +0.051 A 
ATOM      7  C   UNL     1       0.371  -4.043   0.502  0.00  0.00    -0.060 A 
ATOM      8  C   UNL     1       1.022  -4.571   1.602  0.00  0.00    +0.021 A 
ATOM      9  C   UNL     1       1.565  -3.730   2.557  0.00  0.00    +0.063 A 
ATOM     10  C   UNL     1       1.462  -2.356   2.409  0.00  0.00    +0.176 A 
ATOM     11 BR   UNL     1       2.453  -4.456   4.061  0.00  0.00    -0.046 Br
BRANCH   5  12
ATOM     12  O   UNL     1       0.693  -0.477   1.160  0.00  0.00    -0.489 OA
BRANCH  12  14
ATOM     13  C   UNL     1      -0.019   1.526   0.010  0.00  0.00    +0.048 C 
ATOM     14  C   UNL     1       0.002  -0.004   0.002  0.00  0.00    +0.226 C 
ENDBRANCH  12  14
ENDBRANCH   5  12
BRANCH  10  15
ATOM     15  O   UNL     1       2.000  -1.528   3.345  0.00  0.00    -0.485 OA
BRANCH  15  16
ATOM     16  C   UNL     1       1.161  -1.151   4.438  0.00  0.00    +0.168 C 
ATOM     17  C   UNL     1       2.020  -0.903   5.679  0.00  0.00    +0.051 C 
ATOM     18  C   UNL     1       0.400   0.128   4.080  0.00  0.00    +0.051 C 
ENDBRANCH  15  16
ENDBRANCH  10  15
ENDBRANCH   4   7
ENDBRANCH   1   4
BRANCH   1  19
ATOM     19  C   UNL     1       0.210  -6.138  -2.582  0.00  0.00    -0.081 C 
BRANCH  19  20
ATOM     20  C   UNL     1       1.256  -6.428  -3.660  0.00  0.00    -0.008 C 
BRANCH  20  21
ATOM     21  C   UNL     1       0.656  -7.362  -4.714  0.00  0.00    +0.075 C 
BRANCH  21  22
ATOM     22  S   UNL     1       1.897  -7.706  -5.992  0.00  0.00    -0.084 S 
BRANCH  22  23
ATOM     23  C   UNL     1       1.065  -8.779  -7.115  0.00  0.00    +0.214 A 
ATOM     24  N   UNL     1      -0.176  -9.205  -7.017  0.00  0.00    -0.101 NA
ATOM     25  N   UNL     1      -0.469  -9.973  -8.003  0.00  0.00    -0.022 NA
ATOM     26  N   UNL     1       0.543 -10.095  -8.793  0.00  0.00    -0.038 NA
ATOM     27  N   UNL     1       1.581  -9.318  -8.249  0.00  0.00    -0.187 N 
BRANCH  27  28
ATOM     28  C   UNL     1       2.872  -9.139  -8.765  0.00  0.00    +0.070 A 
ATOM     29  C   UNL     1       3.518  -7.919  -8.618  0.00  0.00    +0.028 A 
ATOM     30  C   UNL     1       4.790  -7.747  -9.128  0.00  0.00    +0.002 A 
ATOM     31  C   UNL     1       5.420  -8.787  -9.784  0.00  0.00    +0.000 A 
ATOM     32  C   UNL     1       4.780 -10.004  -9.932  0.00  0.00    +0.002 A 
ATOM     33  C   UNL     1       3.510 -10.184  -9.420  0.00  0.00    +0.028 A 
ENDBRANCH  27  28
ENDBRANCH  22  23
ENDBRANCH  21  22
ENDBRANCH  20  21
ENDBRANCH  19  20
ENDBRANCH   1  19
TORSDOF 12
