REMARK  Name = ZINC39024401
REMARK  10 active torsions:
REMARK  status: ('A' for Active; 'I' for Inactive)
REMARK    1  A    between atoms: C_1  and  C_2
REMARK    2  A    between atoms: C_2  and  C_3
REMARK    3  A    between atoms: C_3  and  C_4
REMARK    4  A    between atoms: C_4  and  C_5
REMARK    5  A    between atoms: C_5  and  C_6
REMARK    6  A    between atoms: C_6  and  N_7
REMARK    7  A    between atoms: C_14  and  O_39
REMARK    8  A    between atoms: C_16  and  C_20
REMARK    9  A    between atoms: C_20  and  N_22
REMARK   10  A    between atoms: C_26  and  C_29
REMARK                            x       y       z     vdW  Elec       q    Type
REMARK                         _______ _______ _______ _____ _____    ______ ____
ROOT
ATOM      1  N   UNL     1       2.162  -4.523  -3.738  0.00  0.00    -0.270 N 
ATOM      2  C   UNL     1       1.431  -4.753  -4.907  0.00  0.00    +0.042 A 
ATOM      3  C   UNL     1       0.052  -4.912  -4.850  0.00  0.00    +0.024 A 
ATOM      4  C   UNL     1      -0.663  -5.139  -6.009  0.00  0.00    +0.002 A 
ATOM      5  C   UNL     1      -0.009  -5.207  -7.226  0.00  0.00    +0.000 A 
ATOM      6  C   UNL     1       1.363  -5.048  -7.286  0.00  0.00    +0.008 A 
ATOM      7  C   UNL     1       2.084  -4.821  -6.131  0.00  0.00    +0.003 A 
ATOM      8  C   UNL     1       3.580  -4.648  -6.192  0.00  0.00    +0.167 C 
ATOM      9  C   UNL     1       4.215  -5.235  -4.931  0.00  0.00    +0.196 C 
ATOM     10  C   UNL     1       3.491  -4.728  -3.713  0.00  0.00    +0.235 C 
ATOM     11  O   UNL     1       4.113  -4.505  -2.696  0.00  0.00    -0.274 OA
ENDROOT
BRANCH   9  12
ATOM     12  C   UNL     1       4.127  -6.739  -4.980  0.00  0.00    +0.253 C 
ATOM     13  O   UNL     1       3.605  -7.287  -5.932  0.00  0.00    -0.273 OA
BRANCH  12  14
ATOM     14  N   UNL     1       4.617  -7.464  -3.983  0.00  0.00    -0.156 NA
ATOM     15  C   UNL     1       4.539  -8.796  -4.026  0.00  0.00    +0.163 A 
ATOM     16  N   UNL     1       4.003  -9.580  -5.000  0.00  0.00    -0.339 N 
ATOM     17  H   UNL     1       3.610  -9.183  -5.793  0.00  0.00    +0.167 HD
ATOM     18  C   UNL     1       4.029 -10.931  -4.842  0.00  0.00    +0.031 A 
ATOM     19  C   UNL     1       4.587 -11.408  -3.724  0.00  0.00    +0.070 A 
ATOM     20  S   UNL     1       5.086  -9.911  -2.893  0.00  0.00    -0.060 S 
BRANCH  18  21
ATOM     21  C   UNL     1       3.451 -11.852  -5.885  0.00  0.00    +0.012 C 
ATOM     22  C   UNL     1       1.962 -11.548  -6.066  0.00  0.00    +0.016 C 
ATOM     23  C   UNL     1       1.375 -12.484  -7.125  0.00  0.00    -0.010 C 
ATOM     24  C   UNL     1       1.548 -13.936  -6.674  0.00  0.00    +0.007 C 
ATOM     25  C   UNL     1       3.037 -14.240  -6.493  0.00  0.00    -0.010 C 
ATOM     26  C   UNL     1       3.623 -13.304  -5.435  0.00  0.00    +0.016 C 
ATOM     27  C   UNL     1       3.766 -14.028  -7.822  0.00  0.00    +0.007 C 
ATOM     28  C   UNL     1       3.593 -12.576  -8.272  0.00  0.00    -0.010 C 
ATOM     29  C   UNL     1       2.104 -12.272  -8.453  0.00  0.00    +0.007 C 
ATOM     30  C   UNL     1       4.180 -11.640  -7.213  0.00  0.00    +0.016 C 
ENDBRANCH  18  21
ENDBRANCH  12  14
ENDBRANCH   9  12
BRANCH   8  31
ATOM     31  O   UNL     1       3.894  -3.257  -6.281  0.00  0.00    -0.386 OA
ATOM     32  H   UNL     1       3.524  -2.818  -7.059  0.00  0.00    +0.210 HD
ENDBRANCH   8  31
BRANCH   1  33
ATOM     33  C   UNL     1       1.476  -4.051  -2.532  0.00  0.00    +0.114 C 
BRANCH  33  34
ATOM     34  C   UNL     1       1.455  -2.521  -2.524  0.00  0.00    +0.019 C 
BRANCH  34  35
ATOM     35  C   UNL     1       0.739  -2.027  -1.265  0.00  0.00    +0.002 C 
BRANCH  35  36
ATOM     36  C   UNL     1       0.718  -0.497  -1.257  0.00  0.00    -0.000 C 
BRANCH  36  38
ATOM     37  C   UNL     1      -0.019   1.526   0.010  0.00  0.00    +0.004 C 
ATOM     38  C   UNL     1       0.002  -0.004   0.002  0.00  0.00    -0.003 C 
ENDBRANCH  36  38
ENDBRANCH  35  36
ENDBRANCH  34  35
ENDBRANCH  33  34
ENDBRANCH   1  33
TORSDOF 9
