REMARK  Name = ZINC00530369
REMARK  5 active torsions:
REMARK  status: ('A' for Active; 'I' for Inactive)
REMARK    1  A    between atoms: C_10  and  C_11
REMARK    2  A    between atoms: C_11  and  S_12
REMARK    3  A    between atoms: S_12  and  C_13
REMARK    4  A    between atoms: C_16  and  C_19
REMARK    5  A    between atoms: N_17  and  N_18
REMARK                            x       y       z     vdW  Elec       q    Type
REMARK                         _______ _______ _______ _____ _____    ______ ____
ROOT
ATOM      1  C   UNL     1      -4.702   4.914  -1.344  0.00  0.00    +0.209 A 
ATOM      2  N   UNL     1      -5.217   5.187  -0.165  0.00  0.00    -0.120 NA
ATOM      3  N   UNL     1      -6.345   5.786  -0.304  0.00  0.00    -0.125 NA
ATOM      4  C   UNL     1      -6.620   5.931  -1.580  0.00  0.00    +0.200 A 
ATOM      5  N   UNL     1      -5.574   5.381  -2.284  0.00  0.00    -0.223 N 
ENDROOT
BRANCH   4   6
ATOM      6  C   UNL     1      -7.824   6.570  -2.151  0.00  0.00    +0.109 A 
ATOM      7  C   UNL     1      -8.805   7.084  -1.301  0.00  0.00    +0.031 A 
ATOM      8  C   UNL     1      -9.923   7.683  -1.852  0.00  0.00    +0.004 A 
ATOM      9  C   UNL     1     -10.032   7.741  -3.235  0.00  0.00    +0.020 A 
ATOM     10  C   UNL     1      -9.025   7.207  -4.018  0.00  0.00    +0.111 A 
ATOM     11  N   UNL     1      -7.967   6.645  -3.470  0.00  0.00    -0.252 NA
ENDBRANCH   4   6
BRANCH   5  12
ATOM     12  N   UNL     1      -5.437   5.315  -3.642  0.00  0.00    -0.295 N 
ATOM     13  H   UNL     1      -5.843   4.466  -4.005  0.00  0.00    +0.163 HD
ATOM     14  H   UNL     1      -5.839   6.127  -4.086  0.00  0.00    +0.163 HD
ENDBRANCH   5  12
BRANCH   1  15
ATOM     15  S   UNL     1      -3.169   4.101  -1.653  0.00  0.00    -0.080 S 
BRANCH  15  16
ATOM     16  C   UNL     1      -2.620   3.811   0.048  0.00  0.00    +0.113 C 
BRANCH  16  26
ATOM     17  C   UNL     1       2.287   5.270   0.008  0.00  0.00    +0.001 A 
ATOM     18  C   UNL     1       1.064   5.940   0.023  0.00  0.00    +0.001 A 
ATOM     19  C   UNL     1      -0.111   5.254   0.031  0.00  0.00    +0.009 A 
ATOM     20  C   UNL     1      -0.095   3.848   0.024  0.00  0.00    -0.014 A 
ATOM     21  C   UNL     1       1.147   3.167   0.008  0.00  0.00    -0.018 A 
ATOM     22  C   UNL     1       2.340   3.910   0.000  0.00  0.00    +0.008 A 
ATOM     23  C   UNL     1       1.163   1.762   0.000  0.00  0.00    +0.008 A 
ATOM     24  C   UNL     1      -0.013   1.076   0.008  0.00  0.00    +0.001 A 
ATOM     25  C   UNL     1      -1.234   1.746   0.017  0.00  0.00    +0.005 A 
ATOM     26  C   UNL     1      -1.288   3.106   0.032  0.00  0.00    -0.029 A 
ENDBRANCH  16  26
ENDBRANCH  15  16
ENDBRANCH   1  15
TORSDOF 5
