REMARK  Name = ZINC01171739
REMARK  8 active torsions:
REMARK  status: ('A' for Active; 'I' for Inactive)
REMARK    1  A    between atoms: C_1  and  C_2
REMARK    2  A    between atoms: C_3  and  C_20
REMARK    3  A    between atoms: C_4  and  C_10
REMARK    4  A    between atoms: C_20  and  O_22
REMARK    5  A    between atoms: O_22  and  C_23
REMARK    6  A    between atoms: C_23  and  C_24
REMARK    7  A    between atoms: C_23  and  C_25
REMARK    8  A    between atoms: C_23  and  C_26
REMARK                            x       y       z     vdW  Elec       q    Type
REMARK                         _______ _______ _______ _____ _____    ______ ____
ROOT
ATOM      1  C   UNL     1       3.550   2.500  -0.001  0.00  0.00    +0.061 C 
ATOM      2  C   UNL     1       2.433   1.489  -0.034  0.00  0.00    +0.019 C 
ATOM      3  C   UNL     1       2.708   0.205  -0.353  0.00  0.00    +0.078 C 
ATOM      4  C   UNL     1       1.556  -0.779  -0.375  0.00  0.00    +0.142 C 
ATOM      5  N   UNL     1       0.222  -0.251  -0.044  0.00  0.00    -0.315 N 
ATOM      6  C   UNL     1       0.106   1.058   0.255  0.00  0.00    +0.135 C 
ATOM      7  S   UNL     1      -1.440   1.688   0.635  0.00  0.00    -0.019 S 
ATOM      8  N   UNL     1       1.160   1.884   0.259  0.00  0.00    -0.300 N 
ATOM      9  H   UNL     1      -0.555  -0.831  -0.040  0.00  0.00    +0.149 HD
ATOM     10  H   UNL     1       1.010   2.816   0.483  0.00  0.00    +0.154 HD
ENDROOT
BRANCH   4  11
ATOM     11  C   UNL     1       1.487  -1.383  -1.754  0.00  0.00    -0.015 A 
ATOM     12  C   UNL     1       1.977  -0.702  -2.825  0.00  0.00    +0.006 A 
ATOM     13  C   UNL     1       1.923  -1.245  -4.107  0.00  0.00    +0.001 A 
ATOM     14  C   UNL     1       1.377  -2.473  -4.325  0.00  0.00    +0.008 A 
ATOM     15  C   UNL     1       0.861  -3.206  -3.244  0.00  0.00    -0.018 A 
ATOM     16  C   UNL     1       0.921  -2.656  -1.939  0.00  0.00    -0.013 A 
ATOM     17  C   UNL     1       0.410  -3.392  -0.857  0.00  0.00    +0.009 A 
ATOM     18  C   UNL     1      -0.130  -4.622  -1.074  0.00  0.00    +0.001 A 
ATOM     19  C   UNL     1      -0.185  -5.166  -2.357  0.00  0.00    +0.001 A 
ATOM     20  C   UNL     1       0.291  -4.478  -3.430  0.00  0.00    +0.008 A 
ENDBRANCH   4  11
BRANCH   3  21
ATOM     21  C   UNL     1       4.027  -0.206  -0.657  0.00  0.00    +0.339 C 
ATOM     22  O   UNL     1       4.942   0.594  -0.600  0.00  0.00    -0.245 OA
BRANCH  21  23
ATOM     23  O   UNL     1       4.270  -1.486  -1.009  0.00  0.00    -0.456 OA
BRANCH  23  24
ATOM     24  C   UNL     1       5.602  -1.805  -1.415  0.00  0.00    +0.106 C 
ATOM     25  C   UNL     1       6.561  -1.575  -0.245  0.00  0.00    +0.055 C 
ATOM     26  C   UNL     1       5.667  -3.272  -1.847  0.00  0.00    +0.055 C 
ATOM     27  C   UNL     1       6.006  -0.910  -2.588  0.00  0.00    +0.055 C 
ENDBRANCH  23  24
ENDBRANCH  21  23
ENDBRANCH   3  21
TORSDOF 4
