REMARK  Name = ZINC36545162
REMARK  13 active torsions:
REMARK  status: ('A' for Active; 'I' for Inactive)
REMARK    1  A    between atoms: C_1  and  C_2
REMARK    2  A    between atoms: C_5  and  C_9
REMARK    3  A    between atoms: C_6  and  C_8
REMARK    4  A    between atoms: C_9  and  C_11
REMARK    5  A    between atoms: C_9  and  N_18
REMARK    6  A    between atoms: N_13  and  C_14
REMARK    7  A    between atoms: C_14  and  C_15
REMARK    8  A    between atoms: C_14  and  C_16
REMARK    9  A    between atoms: C_14  and  C_17
REMARK   10  A    between atoms: N_18  and  C_19
REMARK   11  A    between atoms: C_26  and  C_28
REMARK   12  A    between atoms: C_29  and  O_35
REMARK   13  A    between atoms: C_33  and  O_34
REMARK                            x       y       z     vdW  Elec       q    Type
REMARK                         _______ _______ _______ _____ _____    ______ ____
ROOT
ATOM      1  N   UNL     1       0.620  -4.978  -1.461  0.00  0.00    -0.250 N 
ATOM      2  C   UNL     1       1.538  -5.956  -1.332  0.00  0.00    +0.259 C 
ATOM      3  O   UNL     1       2.076  -6.147  -0.258  0.00  0.00    -0.269 OA
ENDROOT
BRANCH   1   4
ATOM      4  C   UNL     1      -0.075  -4.825  -2.666  0.00  0.00    +0.056 A 
ATOM      5  C   UNL     1      -1.262  -5.513  -2.877  0.00  0.00    +0.025 A 
ATOM      6  C   UNL     1      -1.946  -5.360  -4.067  0.00  0.00    +0.002 A 
ATOM      7  C   UNL     1      -1.449  -4.522  -5.049  0.00  0.00    +0.002 A 
ATOM      8  C   UNL     1      -0.267  -3.835  -4.843  0.00  0.00    +0.022 A 
ATOM      9  C   UNL     1       0.419  -3.979  -3.652  0.00  0.00    +0.062 A 
ATOM     10 CL   UNL     1       1.900  -3.111  -3.391  0.00  0.00    -0.082 Cl
ENDBRANCH   1   4
BRANCH   2  11
ATOM     11  C   UNL     1       1.889  -6.794  -2.490  0.00  0.00    +0.120 A 
ATOM     12  C   UNL     1       2.947  -6.425  -3.334  0.00  0.00    +0.133 A 
ATOM     13  C   UNL     1       3.268  -7.221  -4.422  0.00  0.00    +0.046 A 
ATOM     14  C   UNL     1       2.551  -8.374  -4.677  0.00  0.00    +0.007 A 
ATOM     15  C   UNL     1       1.506  -8.748  -3.852  0.00  0.00    +0.046 A 
ATOM     16  C   UNL     1       1.171  -7.970  -2.755  0.00  0.00    +0.133 A 
BRANCH  16  17
ATOM     17  O   UNL     1       0.150  -8.341  -1.943  0.00  0.00    -0.506 OA
ATOM     18  H   UNL     1      -0.723  -8.067  -2.259  0.00  0.00    +0.292 HD
ENDBRANCH  16  17
BRANCH  12  19
ATOM     19  O   UNL     1       3.652  -5.293  -3.087  0.00  0.00    -0.506 OA
ATOM     20  H   UNL     1       4.418  -5.425  -2.512  0.00  0.00    +0.292 HD
ENDBRANCH  12  19
ENDBRANCH   2  11
BRANCH   1  21
ATOM     21  C   UNL     1       0.349  -4.075  -0.340  0.00  0.00    +0.198 C 
BRANCH  21  26
ATOM     22  C   UNL     1       0.899   1.402  -2.099  0.00  0.00    +0.044 C 
ATOM     23  C   UNL     1       0.756  -0.026  -1.641  0.00  0.00    -0.050 A 
ATOM     24  C   UNL     1      -0.492  -0.621  -1.611  0.00  0.00    +0.004 A 
ATOM     25  C   UNL     1      -0.624  -1.931  -1.190  0.00  0.00    +0.006 A 
ATOM     26  C   UNL     1       0.493  -2.647  -0.799  0.00  0.00    -0.015 A 
ATOM     27  C   UNL     1       1.740  -2.052  -0.830  0.00  0.00    -0.045 A 
ATOM     28  C   UNL     1       1.873  -0.743  -1.255  0.00  0.00    +0.007 A 
ATOM     29  C   UNL     1       2.957  -2.833  -0.404  0.00  0.00    +0.044 C 
ENDBRANCH  21  26
BRANCH  21  30
ATOM     30  C   UNL     1      -1.053  -4.302   0.162  0.00  0.00    +0.239 C 
ATOM     31  O   UNL     1      -1.769  -5.114  -0.386  0.00  0.00    -0.273 OA
ATOM     32  N   UNL     1      -1.513  -3.604   1.219  0.00  0.00    -0.309 N 
ATOM     33  H   UNL     1      -0.968  -2.904   1.612  0.00  0.00    +0.149 HD
BRANCH  32  34
ATOM     34  C   UNL     1      -2.835  -3.901   1.774  0.00  0.00    +0.026 C 
ATOM     35  C   UNL     1      -2.875  -5.355   2.247  0.00  0.00    +0.031 C 
ATOM     36  C   UNL     1      -3.112  -2.972   2.958  0.00  0.00    +0.031 C 
ATOM     37  C   UNL     1      -3.901  -3.685   0.697  0.00  0.00    +0.031 C 
ENDBRANCH  32  34
ENDBRANCH  21  30
ENDBRANCH   1  21
TORSDOF 8
