REMARK  Name = ZINC59891109
REMARK  9 active torsions:
REMARK  status: ('A' for Active; 'I' for Inactive)
REMARK    1  A    between atoms: C_1  and  C_2
REMARK    2  A    between atoms: C_4  and  C_14
REMARK    3  A    between atoms: C_6  and  C_11
REMARK    4  A    between atoms: N_16  and  C_17
REMARK    5  A    between atoms: C_17  and  C_18
REMARK    6  A    between atoms: C_18  and  N_26
REMARK    7  A    between atoms: C_22  and  C_25
REMARK    8  A    between atoms: N_26  and  C_27
REMARK    9  A    between atoms: N_26  and  C_28
REMARK                            x       y       z     vdW  Elec       q    Type
REMARK                         _______ _______ _______ _____ _____    ______ ____
ROOT
ATOM      1  C   UNL     1       1.417   3.229  -3.365  0.00  0.00    +0.245 C 
ATOM      2  O   UNL     1       0.535   2.921  -2.588  0.00  0.00    -0.270 OA
ATOM      3  N   UNL     1       1.357   2.821  -4.649  0.00  0.00    -0.313 N 
ATOM      4  H   UNL     1       2.061   3.068  -5.269  0.00  0.00    +0.149 HD
ENDROOT
BRANCH   1   8
ATOM      5  C   UNL     1       1.773   1.889  -0.480  0.00  0.00    +0.070 C 
ATOM      6  C   UNL     1       2.849   2.945  -0.521  0.00  0.00    +0.091 A 
ATOM      7  C   UNL     1       3.125   3.857  -1.629  0.00  0.00    +0.076 A 
ATOM      8  C   UNL     1       2.556   4.053  -2.903  0.00  0.00    +0.053 A 
ATOM      9  C   UNL     1       3.101   5.048  -3.713  0.00  0.00    +0.037 A 
ATOM     10  C   UNL     1       4.168   5.796  -3.240  0.00  0.00    +0.049 A 
ATOM     11  N   UNL     1       4.680   5.590  -2.046  0.00  0.00    -0.215 NA
ATOM     12  C   UNL     1       4.206   4.661  -1.229  0.00  0.00    +0.259 A 
ATOM     13  O   UNL     1       4.549   4.265   0.013  0.00  0.00    -0.334 OA
ATOM     14  N   UNL     1       3.696   3.215   0.424  0.00  0.00    -0.080 NA
BRANCH  10  15
ATOM     15  C   UNL     1       4.758   6.871  -4.117  0.00  0.00    +0.038 C 
ATOM     16  C   UNL     1       4.414   6.834  -5.607  0.00  0.00    +0.010 C 
ATOM     17  C   UNL     1       5.818   6.449  -5.136  0.00  0.00    +0.010 C 
ENDBRANCH  10  15
ENDBRANCH   1   8
BRANCH   3  18
ATOM     18  C   UNL     1       0.230   2.006  -5.107  0.00  0.00    +0.092 C 
BRANCH  18  19
ATOM     19  C   UNL     1       0.468   1.574  -6.555  0.00  0.00    -0.050 C 
ATOM     20  C   UNL     1       1.780   0.791  -6.644  0.00  0.00    -0.010 C 
ATOM     21  C   UNL     1       2.018   0.359  -8.092  0.00  0.00    -0.001 C 
ATOM     22  C   UNL     1       2.101   1.597  -8.987  0.00  0.00    +0.003 C 
ATOM     23  C   UNL     1       0.789   2.379  -8.898  0.00  0.00    -0.015 C 
ATOM     24  C   UNL     1       0.551   2.812  -7.450  0.00  0.00    -0.007 C 
ATOM     25  C   UNL     1       0.872   3.617  -9.793  0.00  0.00    +0.007 C 
BRANCH  19  26
ATOM     26  N   UNL     1      -0.642   0.721  -7.000  0.00  0.00    +0.381 N 
ATOM     27  C   UNL     1      -0.745  -0.450  -6.119  0.00  0.00    -0.096 C 
ATOM     28  C   UNL     1      -1.897   1.484  -6.949  0.00  0.00    -0.096 C 
ATOM     29  H   UNL     1      -0.473   0.415  -7.947  0.00  0.00    -0.082 HD
ENDBRANCH  19  26
ENDBRANCH  18  19
ENDBRANCH   3  18
TORSDOF 5
