REMARK  Name = ZINC63294864
REMARK  4 active torsions:
REMARK  status: ('A' for Active; 'I' for Inactive)
REMARK    1  A    between atoms: C_1  and  C_2
REMARK    2  A    between atoms: N_22  and  C_23
REMARK    3  A    between atoms: C_23  and  C_24
REMARK    4  A    between atoms: C_24  and  C_25
REMARK                            x       y       z     vdW  Elec       q    Type
REMARK                         _______ _______ _______ _____ _____    ______ ____
ROOT
ATOM      1  C   UNL     1      -0.019   1.526   0.010  0.00  0.00    +0.033 C 
ATOM      2  C   UNL     1       0.002  -0.004   0.002  0.00  0.00    +0.111 C 
ATOM      3  C   UNL     1      -1.409  -0.538   0.041  0.00  0.00    +0.064 A 
ATOM      4  C   UNL     1      -2.011  -0.919   1.246  0.00  0.00    +0.071 A 
ATOM      5  N   UNL     1      -3.280  -1.339   0.957  0.00  0.00    -0.288 N 
ATOM      6  H   UNL     1      -3.939  -1.653   1.597  0.00  0.00    +0.187 HD
ATOM      7  N   UNL     1      -3.458  -1.235  -0.433  0.00  0.00    -0.194 N 
ATOM      8  C   UNL     1      -2.321  -0.747  -0.977  0.00  0.00    +0.279 A 
ATOM      9  O   UNL     1      -2.132  -0.529  -2.162  0.00  0.00    -0.265 OA
ATOM     10  C   UNL     1      -4.605  -1.574  -1.128  0.00  0.00    +0.196 A 
ATOM     11  N   UNL     1      -4.835  -1.508  -2.419  0.00  0.00    -0.221 NA
ATOM     12  C   UNL     1      -6.014  -1.877  -2.965  0.00  0.00    +0.081 A 
ATOM     13  C   UNL     1      -6.389  -1.855  -4.329  0.00  0.00    +0.029 A 
ATOM     14  C   UNL     1      -7.637  -2.267  -4.718  0.00  0.00    +0.002 A 
ATOM     15  C   UNL     1      -8.571  -2.718  -3.798  0.00  0.00    +0.001 A 
ATOM     16  C   UNL     1      -8.238  -2.754  -2.456  0.00  0.00    +0.017 A 
ATOM     17  C   UNL     1      -6.991  -2.343  -2.057  0.00  0.00    +0.041 A 
ATOM     18  S   UNL     1      -6.147  -2.223  -0.498  0.00  0.00    -0.048 S 
ATOM     19  C   UNL     1      -1.313  -0.847   2.467  0.00  0.00    +0.095 C 
ATOM     20  C   UNL     1       0.031  -0.599   2.406  0.00  0.00    +0.242 C 
ATOM     21  N   UNL     1       0.689  -0.503   1.205  0.00  0.00    -0.291 N 
ATOM     22  O   UNL     1       0.727  -0.444   3.553  0.00  0.00    -0.271 OA
ENDROOT
BRANCH  21  23
ATOM     23  C   UNL     1       2.095  -0.905   1.117  0.00  0.00    +0.113 C 
BRANCH  23  24
ATOM     24  C   UNL     1       2.989   0.300   1.413  0.00  0.00    +0.052 C 
BRANCH  24  25
ATOM     25  C   UNL     1       4.436  -0.113   1.322  0.00  0.00    -0.040 C 
ATOM     26  C   UNL     1       5.250   0.009   0.250  0.00  0.00    +0.002 A 
ATOM     27  C   UNL     1       5.041   0.543  -1.101  0.00  0.00    +0.048 A 
ATOM     28  C   UNL     1       6.072   0.530  -1.979  0.00  0.00    +0.124 A 
ATOM     29  C   UNL     1       7.333   0.020  -1.629  0.00  0.00    +0.040 A 
ATOM     30  C   UNL     1       7.599  -0.487  -0.407  0.00  0.00    +0.029 A 
ATOM     31  C   UNL     1       6.589  -0.522   0.594  0.00  0.00    +0.043 A 
ATOM     32  N   UNL     1       6.601  -0.956   1.831  0.00  0.00    -0.380 N 
ATOM     33  C   UNL     1       5.272  -0.743   2.414  0.00  0.00    +0.144 C 
ATOM     34  F   UNL     1       5.883   1.020  -3.224  0.00  0.00    -0.205 F 
ATOM     35  H   UNL     1       7.362  -1.349   2.285  0.00  0.00    +0.160 HD
ENDBRANCH  24  25
ENDBRANCH  23  24
ENDBRANCH  21  23
TORSDOF 3
