REMARK  Name = ZINC35382099
REMARK  5 active torsions:
REMARK  status: ('A' for Active; 'I' for Inactive)
REMARK    1  A    between atoms: C_1  and  C_2
REMARK    2  A    between atoms: C_4  and  C_8
REMARK    3  A    between atoms: C_5  and  C_7
REMARK    4  A    between atoms: C_8  and  C_10
REMARK    5  A    between atoms: C_8  and  N_22
REMARK                            x       y       z     vdW  Elec       q    Type
REMARK                         _______ _______ _______ _____ _____    ______ ____
ROOT
ATOM      1  C   UNL     1      -1.435  -3.387  -0.009  0.00  0.00    -0.009 C 
ENDROOT
BRANCH   1   2
ATOM      2  C   UNL     1      -1.618  -3.866  -1.426  0.00  0.00    -0.040 A 
ATOM      3  C   UNL     1      -2.693  -3.417  -2.172  0.00  0.00    +0.052 A 
ATOM      4  C   UNL     1      -2.857  -3.859  -3.474  0.00  0.00    +0.162 A 
ATOM      5  C   UNL     1      -1.947  -4.748  -4.027  0.00  0.00    +0.163 A 
ATOM      6  C   UNL     1      -0.872  -5.196  -3.278  0.00  0.00    +0.065 A 
ATOM      7  C   UNL     1      -0.707  -4.748  -1.978  0.00  0.00    +0.023 A 
ATOM      8 BR   UNL     1       0.763  -5.349  -0.953  0.00  0.00    -0.050 Br
ATOM      9  O   UNL     1      -2.118  -5.177  -5.311  0.00  0.00    -0.488 OA
ATOM     10  C   UNL     1      -3.245  -6.024  -5.543  0.00  0.00    +0.232 C 
ATOM     11  C   UNL     1      -4.502  -5.198  -5.769  0.00  0.00    +0.082 C 
ATOM     12  C   UNL     1      -4.903  -4.404  -4.536  0.00  0.00    +0.232 C 
ATOM     13  O   UNL     1      -3.913  -3.423  -4.221  0.00  0.00    -0.488 OA
ENDBRANCH   1   2
BRANCH   1  17
ATOM     14  C   UNL     1       1.335   0.629  -1.474  0.00  0.00    +0.086 C 
ATOM     15  C   UNL     1       0.691  -0.453  -0.647  0.00  0.00    +0.102 A 
ATOM     16  C   UNL     1      -0.149  -1.398  -1.104  0.00  0.00    +0.047 A 
ATOM     17  C   UNL     1      -0.510  -2.198   0.005  0.00  0.00    -0.017 A 
ATOM     18  C   UNL     1       0.132  -1.693   1.074  0.00  0.00    +0.104 A 
ATOM     19  O   UNL     1       0.862  -0.640   0.672  0.00  0.00    -0.465 OA
ATOM     20  C   UNL     1       0.050  -2.223   2.482  0.00  0.00    +0.086 C 
ENDBRANCH   1  17
BRANCH   1  21
ATOM     21  N   UNL     1      -2.738  -3.000   0.549  0.00  0.00    +0.385 N 
ATOM     22  H   UNL     1      -3.135  -2.258  -0.008  0.00  0.00    -0.089 HD
ATOM     23  H   UNL     1      -3.358  -3.796   0.540  0.00  0.00    -0.089 HD
ATOM     24  H   UNL     1      -2.616  -2.679   1.498  0.00  0.00    -0.089 HD
ENDBRANCH   1  21
TORSDOF 3
