REMARK  Name = ZINC35564243
REMARK  4 active torsions:
REMARK  status: ('A' for Active; 'I' for Inactive)
REMARK    1  A    between atoms: C_5  and  N_7
REMARK    2  A    between atoms: N_10  and  C_13
REMARK    3  A    between atoms: C_13  and  C_14
REMARK    4  A    between atoms: C_28  and  C_30
REMARK                            x       y       z     vdW  Elec       q    Type
REMARK                         _______ _______ _______ _____ _____    ______ ____
ROOT
ATOM      1  C   UNL     1       0.113  -6.422  -1.304  0.00  0.00    +0.034 A 
ATOM      2  C   UNL     1       0.611  -7.676  -1.098  0.00  0.00    +0.091 A 
ATOM      3  C   UNL     1       0.843  -8.506  -2.209  0.00  0.00    +0.253 A 
ATOM      4  O   UNL     1       1.287  -9.633  -2.061  0.00  0.00    -0.268 OA
ATOM      5  N   UNL     1       0.566  -8.032  -3.442  0.00  0.00    -0.295 N 
ATOM      6  H   UNL     1       0.718  -8.588  -4.223  0.00  0.00    +0.172 HD
ATOM      7  C   UNL     1       0.071  -6.773  -3.586  0.00  0.00    +0.198 A 
ATOM      8  N   UNL     1      -0.149  -6.003  -2.539  0.00  0.00    -0.223 NA
ATOM      9  N   UNL     1      -0.208  -6.300  -4.840  0.00  0.00    -0.298 N 
ATOM     10  C   UNL     1       0.131  -7.091  -6.031  0.00  0.00    +0.127 C 
ATOM     11  C   UNL     1      -1.137  -7.281  -6.872  0.00  0.00    +0.127 C 
ATOM     12  N   UNL     1      -1.783  -5.973  -7.051  0.00  0.00    -0.295 N 
ATOM     13  C   UNL     1      -2.122  -5.181  -5.859  0.00  0.00    +0.127 C 
ATOM     14  C   UNL     1      -0.858  -4.994  -5.019  0.00  0.00    +0.127 C 
ATOM     15  C   UNL     1      -2.057  -5.506  -8.285  0.00  0.00    +0.247 C 
ATOM     16  O   UNL     1      -2.500  -4.383  -8.426  0.00  0.00    -0.270 OA
ENDROOT
BRANCH  15  17
ATOM     17  C   UNL     1      -1.821  -6.361  -9.467  0.00  0.00    +0.037 A 
ATOM     18  C   UNL     1      -2.155  -7.716  -9.431  0.00  0.00    +0.014 A 
ATOM     19  C   UNL     1      -1.933  -8.508 -10.537  0.00  0.00    +0.021 A 
ATOM     20  C   UNL     1      -1.377  -7.962 -11.683  0.00  0.00    +0.041 A 
ATOM     21  C   UNL     1      -1.043  -6.619 -11.725  0.00  0.00    +0.021 A 
ATOM     22  C   UNL     1      -1.266  -5.815 -10.627  0.00  0.00    +0.014 A 
ATOM     23 CL   UNL     1      -1.098  -8.966 -13.071  0.00  0.00    -0.084 Cl
ENDBRANCH  15  17
BRANCH   1  24
ATOM     24  C   UNL     1      -0.145  -5.513  -0.130  0.00  0.00    -0.022 C 
BRANCH  24  28
ATOM     25  N   UNL     1       1.427  -1.639  -0.292  0.00  0.00    -0.331 N 
ATOM     26  C   UNL     1       1.588  -2.373   0.972  0.00  0.00    +0.086 C 
ATOM     27  C   UNL     1       0.578  -3.525   0.997  0.00  0.00    -0.059 C 
ATOM     28  N   UNL     1       0.746  -4.348  -0.207  0.00  0.00    +0.385 N 
ATOM     29  C   UNL     1       0.417  -3.560  -1.401  0.00  0.00    -0.059 C 
ATOM     30  C   UNL     1       1.413  -2.411  -1.545  0.00  0.00    +0.086 C 
ATOM     31  H   UNL     1       1.703  -4.664  -0.267  0.00  0.00    -0.081 HD
BRANCH  25  36
ATOM     32  C   UNL     1      -0.115   1.698  -0.233  0.00  0.00    +0.002 A 
ATOM     33  C   UNL     1       1.003   2.506  -0.326  0.00  0.00    +0.003 A 
ATOM     34  C   UNL     1       2.263   1.942  -0.407  0.00  0.00    +0.040 A 
ATOM     35  C   UNL     1       2.408   0.567  -0.396  0.00  0.00    +0.144 A 
ATOM     36  C   UNL     1       1.285  -0.248  -0.303  0.00  0.00    +0.065 A 
ATOM     37  C   UNL     1       0.022   0.323  -0.222  0.00  0.00    +0.026 A 
ATOM     38  F   UNL     1       3.639   0.016  -0.476  0.00  0.00    -0.204 F 
ENDBRANCH  25  36
ENDBRANCH  24  28
ENDBRANCH   1  24
TORSDOF 4
