REMARK  Name = ZINC21248219
REMARK  13 active torsions:
REMARK  status: ('A' for Active; 'I' for Inactive)
REMARK    1  A    between atoms: C_1  and  C_2
REMARK    2  A    between atoms: C_2  and  C_3
REMARK    3  A    between atoms: C_3  and  C_5
REMARK    4  A    between atoms: C_3  and  O_6
REMARK    5  A    between atoms: O_6  and  C_7
REMARK    6  A    between atoms: C_12  and  C_13
REMARK    7  A    between atoms: C_18  and  C_23
REMARK    8  A    between atoms: C_26  and  O_31
REMARK    9  A    between atoms: C_27  and  O_29
REMARK   10  A    between atoms: O_29  and  C_30
REMARK   11  A    between atoms: O_31  and  C_32
REMARK   12  A    between atoms: C_32  and  C_33
REMARK   13  A    between atoms: C_32  and  C_34
REMARK                            x       y       z     vdW  Elec       q    Type
REMARK                         _______ _______ _______ _____ _____    ______ ____
ROOT
ATOM      1  C   UNL     1      -2.247  -0.510   1.750  0.00  0.00    +0.139 C 
ATOM      2  C   UNL     1      -2.787   0.857   2.091  0.00  0.00    +0.037 C 
ATOM      3  C   UNL     1      -2.456   2.010   1.485  0.00  0.00    +0.017 C 
ATOM      4  C   UNL     1      -3.062   3.325   1.945  0.00  0.00    +0.059 C 
ATOM      5  C   UNL     1      -4.481   3.093   2.462  0.00  0.00    +0.032 C 
ATOM      6  C   UNL     1      -4.397   2.105   3.631  0.00  0.00    +0.088 C 
ATOM      7  C   UNL     1      -3.724   0.854   3.151  0.00  0.00    +0.163 C 
ATOM      8  O   UNL     1      -3.993  -0.200   3.693  0.00  0.00    -0.292 OA
ATOM      9  N   UNL     1      -1.583   2.117   0.453  0.00  0.00    -0.316 N 
ATOM     10  C   UNL     1      -0.336   1.507   0.404  0.00  0.00    +0.052 A 
ATOM     11  C   UNL     1       0.841   2.236   0.356  0.00  0.00    +0.025 A 
ATOM     12  C   UNL     1       2.047   1.570   0.222  0.00  0.00    +0.002 A 
ATOM     13  C   UNL     1       2.077   0.190   0.137  0.00  0.00    +0.002 A 
ATOM     14  C   UNL     1       0.903  -0.541   0.202  0.00  0.00    +0.025 A 
ATOM     15  C   UNL     1      -0.304   0.122   0.353  0.00  0.00    +0.049 A 
ATOM     16  N   UNL     1      -1.504  -0.571   0.509  0.00  0.00    -0.331 N 
ATOM     17  H   UNL     1      -1.845   2.721  -0.428  0.00  0.00    +0.152 HD
ATOM     18  H   UNL     1      -1.883  -1.172  -0.331  0.00  0.00    +0.147 HD
ENDROOT
BRANCH   1  24
ATOM     19  C   UNL     1      -1.084  -2.306   3.058  0.00  0.00    +0.126 A 
ATOM     20  C   UNL     1      -0.248  -2.713   4.088  0.00  0.00    +0.046 A 
ATOM     21  C   UNL     1       0.316  -1.774   4.929  0.00  0.00    +0.004 A 
ATOM     22  C   UNL     1       0.052  -0.430   4.743  0.00  0.00    +0.001 A 
ATOM     23  C   UNL     1      -0.776  -0.021   3.715  0.00  0.00    +0.009 A 
ATOM     24  C   UNL     1      -1.343  -0.956   2.870  0.00  0.00    +0.019 A 
BRANCH  19  25
ATOM     25  O   UNL     1      -1.645  -3.228   2.232  0.00  0.00    -0.489 OA
BRANCH  25  26
ATOM     26  C   UNL     1      -1.432  -4.604   2.554  0.00  0.00    +0.170 C 
ATOM     27  C   UNL     1      -0.096  -5.064   1.967  0.00  0.00    +0.052 C 
BRANCH  26  29
ATOM     28  C   UNL     1      -3.888  -5.054   2.627  0.00  0.00    +0.007 C 
ATOM     29  C   UNL     1      -2.565  -5.447   1.967  0.00  0.00    +0.041 C 
ENDBRANCH  26  29
ENDBRANCH  25  26
ENDBRANCH  19  25
ENDBRANCH   1  24
BRANCH   5  30
ATOM     30  C   UNL     1      -5.072   4.396   2.935  0.00  0.00    -0.040 A 
ATOM     31  C   UNL     1      -4.464   5.097   3.960  0.00  0.00    +0.008 A 
ATOM     32  C   UNL     1      -4.998   6.296   4.394  0.00  0.00    +0.050 A 
ATOM     33  C   UNL     1      -6.153   6.791   3.810  0.00  0.00    +0.162 A 
ATOM     34  C   UNL     1      -6.769   6.083   2.783  0.00  0.00    +0.162 A 
ATOM     35  C   UNL     1      -6.224   4.885   2.348  0.00  0.00    +0.053 A 
BRANCH  34  36
ATOM     36  O   UNL     1      -7.902   6.565   2.206  0.00  0.00    -0.491 OA
ATOM     37  C   UNL     1      -8.479   5.784   1.158  0.00  0.00    +0.277 C 
ENDBRANCH  34  36
BRANCH  33  38
ATOM     38  O   UNL     1      -6.684   7.967   4.240  0.00  0.00    -0.486 OA
BRANCH  38  39
ATOM     39  C   UNL     1      -5.934   8.700   5.211  0.00  0.00    +0.167 C 
ATOM     40  C   UNL     1      -6.299  10.184   5.123  0.00  0.00    +0.051 C 
ATOM     41  C   UNL     1      -6.263   8.177   6.611  0.00  0.00    +0.051 C 
ENDBRANCH  38  39
ENDBRANCH  33  38
ENDBRANCH   5  30
TORSDOF 8
