REMARK  Name = ZINC33121056
REMARK  10 active torsions:
REMARK  status: ('A' for Active; 'I' for Inactive)
REMARK    1  A    between atoms: C_1  and  C_2
REMARK    2  A    between atoms: C_2  and  C_3
REMARK    3  A    between atoms: C_3  and  C_5
REMARK    4  A    between atoms: C_3  and  N_6
REMARK    5  A    between atoms: C_7  and  C_9
REMARK    6  A    between atoms: C_11  and  N_21
REMARK    7  A    between atoms: C_14  and  N_15
REMARK    8  A    between atoms: N_21  and  S_22
REMARK    9  A    between atoms: S_22  and  C_25
REMARK   10  A    between atoms: C_28  and  C_31
REMARK                            x       y       z     vdW  Elec       q    Type
REMARK                         _______ _______ _______ _____ _____    ______ ____
ROOT
ATOM      1  C   UNL     1       1.519  -0.790  -0.390  0.00  0.00    +0.059 A 
ATOM      2  C   UNL     1       2.642   0.033  -0.270  0.00  0.00    +0.039 A 
ATOM      3  C   UNL     1       2.482   1.398  -0.110  0.00  0.00    +0.049 A 
ATOM      4  C   UNL     1       1.207   1.953  -0.067  0.00  0.00    +0.026 A 
ATOM      5  C   UNL     1       0.092   1.148  -0.185  0.00  0.00    +0.026 A 
ATOM      6  C   UNL     1       0.236  -0.224  -0.346  0.00  0.00    +0.042 A 
ENDROOT
BRANCH   6   7
ATOM      7  N   UNL     1      -0.888  -1.034  -0.465  0.00  0.00    -0.333 N 
ATOM      8  C   UNL     1      -1.754  -0.911   0.717  0.00  0.00    +0.086 C 
ATOM      9  C   UNL     1      -2.935  -1.875   0.583  0.00  0.00    -0.063 C 
ATOM     10  N   UNL     1      -3.679  -1.566  -0.646  0.00  0.00    +0.381 N 
ATOM     11  C   UNL     1      -2.814  -1.690  -1.827  0.00  0.00    -0.063 C 
ATOM     12  C   UNL     1      -1.633  -0.726  -1.694  0.00  0.00    +0.086 C 
ATOM     13  H   UNL     1      -4.522  -2.265  -0.750  0.00  0.00    -0.086 HD
ATOM     14  H   UNL     1      -4.062  -0.536  -0.594  0.00  0.00    -0.086 HD
ENDBRANCH   6   7
BRANCH   1  16
ATOM     15  N   UNL     1       2.909  -2.798  -0.496  0.00  0.00    -0.309 N 
ATOM     16  C   UNL     1       1.682  -2.245  -0.560  0.00  0.00    +0.246 C 
ATOM     17  O   UNL     1       0.708  -2.946  -0.759  0.00  0.00    -0.270 OA
ATOM     18  H   UNL     1       3.789  -2.164  -0.316  0.00  0.00    +0.149 HD
BRANCH  15  19
ATOM     19  C   UNL     1       3.071  -4.245  -0.666  0.00  0.00    +0.070 C 
ATOM     20  C   UNL     1       2.845  -4.944   0.677  0.00  0.00    +0.028 C 
BRANCH  19  22
ATOM     21  C   UNL     1       4.668  -3.950  -2.564  0.00  0.00    +0.005 C 
ATOM     22  C   UNL     1       4.485  -4.545  -1.166  0.00  0.00    +0.018 C 
ENDBRANCH  19  22
ENDBRANCH  15  19
ENDBRANCH   1  16
BRANCH   3  23
ATOM     23  N   UNL     1       3.607   2.224   0.010  0.00  0.00    -0.216 N 
ATOM     24  H   UNL     1       4.436   1.931   0.671  0.00  0.00    +0.174 HD
BRANCH  23  25
ATOM     25  S   UNL     1       3.688   3.641  -0.842  0.00  0.00    +0.072 S 
ATOM     26  O   UNL     1       2.481   4.343  -0.580  0.00  0.00    -0.150 OA
ATOM     27  O   UNL     1       4.967   4.200  -0.579  0.00  0.00    -0.150 OA
BRANCH  25  28
ATOM     28  C   UNL     1       3.665   3.222  -2.554  0.00  0.00    +0.109 A 
ATOM     29  C   UNL     1       4.840   2.886  -3.199  0.00  0.00    +0.029 A 
ATOM     30  C   UNL     1       4.821   2.552  -4.540  0.00  0.00    +0.006 A 
ATOM     31  C   UNL     1       3.628   2.565  -5.239  0.00  0.00    -0.044 A 
ATOM     32  C   UNL     1       2.454   2.905  -4.594  0.00  0.00    +0.006 A 
ATOM     33  C   UNL     1       2.472   3.234  -3.252  0.00  0.00    +0.029 A 
BRANCH  31  34
ATOM     34  C   UNL     1       3.608   2.207  -6.702  0.00  0.00    +0.019 C 
ATOM     35  C   UNL     1       4.130   0.780  -6.886  0.00  0.00    +0.008 C 
ATOM     36  C   UNL     1       4.109   0.416  -8.372  0.00  0.00    +0.001 C 
ATOM     37  C   UNL     1       5.001   1.389  -9.147  0.00  0.00    +0.000 C 
ATOM     38  C   UNL     1       4.480   2.815  -8.963  0.00  0.00    +0.001 C 
ATOM     39  C   UNL     1       4.500   3.179  -7.478  0.00  0.00    +0.008 C 
ENDBRANCH  31  34
ENDBRANCH  25  28
ENDBRANCH  23  25
ENDBRANCH   3  23
TORSDOF 8
