REMARK  Name = ZINC12754863
REMARK  6 active torsions:
REMARK  status: ('A' for Active; 'I' for Inactive)
REMARK    1  A    between atoms: C_4  and  C_7
REMARK    2  A    between atoms: C_7  and  C_9
REMARK    3  A    between atoms: C_7  and  N_19
REMARK    4  A    between atoms: C_20  and  C_22
REMARK    5  A    between atoms: C_22  and  C_23
REMARK    6  A    between atoms: C_23  and  C_24
REMARK                            x       y       z     vdW  Elec       q    Type
REMARK                         _______ _______ _______ _____ _____    ______ ____
ROOT
ATOM      1  N   UNL     1       3.630  -1.873   0.845  0.00  0.00    -0.304 N 
ATOM      2  C   UNL     1       3.871  -1.738   2.164  0.00  0.00    +0.214 C 
ATOM      3  O   UNL     1       4.155  -0.651   2.621  0.00  0.00    -0.276 OA
ATOM      4  H   UNL     1       3.403  -2.743   0.480  0.00  0.00    +0.150 HD
ENDROOT
BRANCH   1   5
ATOM      5  C   UNL     1       3.711  -0.707  -0.038  0.00  0.00    +0.134 C 
BRANCH   5   6
ATOM      6  C   UNL     1       4.014  -1.161  -1.442  0.00  0.00    -0.021 A 
ATOM      7  C   UNL     1       3.402  -2.299  -1.946  0.00  0.00    +0.008 A 
ATOM      8  C   UNL     1       3.663  -2.727  -3.217  0.00  0.00    +0.030 A 
ATOM      9  C   UNL     1       4.556  -2.014  -4.022  0.00  0.00    +0.089 A 
ATOM     10  C   UNL     1       5.176  -0.861  -3.512  0.00  0.00    +0.066 A 
ATOM     11  C   UNL     1       4.894  -0.438  -2.220  0.00  0.00    +0.033 A 
ATOM     12  N   UNL     1       5.986  -0.385  -4.524  0.00  0.00    -0.344 N 
ATOM     13  H   UNL     1       6.551   0.403  -4.486  0.00  0.00    +0.167 HD
ATOM     14  C   UNL     1       5.846  -1.227  -5.583  0.00  0.00    +0.197 A 
ATOM     15  N   UNL     1       5.010  -2.179  -5.291  0.00  0.00    -0.236 NA
ENDBRANCH   5   6
BRANCH   5  19
ATOM     16  C   UNL     1      -0.017   1.378   0.010  0.00  0.00    +0.000 A 
ATOM     17  C   UNL     1       1.171   2.086   0.002  0.00  0.00    +0.000 A 
ATOM     18  C   UNL     1       2.377   1.411  -0.013  0.00  0.00    +0.006 A 
ATOM     19  C   UNL     1       2.396   0.029  -0.020  0.00  0.00    -0.023 A 
ATOM     20  C   UNL     1       1.208  -0.679  -0.012  0.00  0.00    +0.006 A 
ATOM     21  C   UNL     1       0.002  -0.004   0.002  0.00  0.00    +0.000 A 
ENDBRANCH   5  19
ENDBRANCH   1   5
BRANCH   2  22
ATOM     22  C   UNL     1       3.788  -2.938   3.073  0.00  0.00    +0.096 C 
BRANCH  22  23
ATOM     23  C   UNL     1       4.103  -2.513   4.508  0.00  0.00    +0.022 C 
BRANCH  23  24
ATOM     24  C   UNL     1       4.018  -3.731   5.431  0.00  0.00    +0.080 C 
ATOM     25  C   UNL     1       4.207  -3.285   6.881  0.00  0.00    +0.049 C 
ATOM     26  C   UNL     1       5.646  -2.902   7.110  0.00  0.00    -0.025 A 
ATOM     27  C   UNL     1       5.957  -1.887   7.995  0.00  0.00    +0.005 A 
ATOM     28  C   UNL     1       7.278  -1.542   8.216  0.00  0.00    +0.000 A 
ATOM     29  C   UNL     1       8.291  -2.212   7.554  0.00  0.00    +0.002 A 
ATOM     30  C   UNL     1       7.986  -3.224   6.666  0.00  0.00    +0.023 A 
ATOM     31  C   UNL     1       6.659  -3.568   6.436  0.00  0.00    +0.037 A 
ATOM     32  N   UNL     1       6.348  -4.569   5.511  0.00  0.00    -0.285 N 
ATOM     33  C   UNL     1       5.093  -4.717   5.057  0.00  0.00    +0.221 C 
ATOM     34  O   UNL     1       4.824  -5.656   4.339  0.00  0.00    -0.275 OA
ATOM     35  H   UNL     1       7.047  -5.163   5.193  0.00  0.00    +0.155 HD
ENDBRANCH  23  24
ENDBRANCH  22  23
ENDBRANCH   2  22
TORSDOF 6
