REMARK  Name = ZINC02444207
REMARK  6 active torsions:
REMARK  status: ('A' for Active; 'I' for Inactive)
REMARK    1  A    between atoms: C_1  and  C_2
REMARK    2  A    between atoms: C_2  and  C_25
REMARK    3  A    between atoms: C_9  and  N_21
REMARK    4  A    between atoms: N_13  and  C_14
REMARK    5  A    between atoms: C_14  and  C_15
REMARK    6  A    between atoms: N_21  and  N_22
REMARK                            x       y       z     vdW  Elec       q    Type
REMARK                         _______ _______ _______ _____ _____    ______ ____
ROOT
ATOM      1  C   UNL     1      11.762  -1.709  -3.245  0.00  0.00    +0.041 C 
ATOM      2  C   UNL     1      11.366  -3.164  -3.504  0.00  0.00    +0.068 C 
ATOM      3  C   UNL     1       9.851  -3.249  -3.713  0.00  0.00    +0.071 C 
ATOM      4  C   UNL     1       9.173  -2.971  -2.373  0.00  0.00    -0.020 A 
ATOM      5  C   UNL     1       9.887  -3.066  -1.232  0.00  0.00    +0.021 A 
ATOM      6  S   UNL     1       8.746  -2.671   0.062  0.00  0.00    -0.071 S 
ATOM      7  C   UNL     1       7.305  -2.380  -0.933  0.00  0.00    +0.116 A 
ATOM      8  C   UNL     1       7.764  -2.600  -2.248  0.00  0.00    +0.052 A 
ATOM      9  C   UNL     1       6.792  -2.430  -3.273  0.00  0.00    +0.146 A 
ATOM     10  N   UNL     1       5.558  -2.088  -2.943  0.00  0.00    -0.198 NA
ATOM     11  C   UNL     1       5.192  -1.895  -1.682  0.00  0.00    +0.218 A 
ATOM     12  N   UNL     1       6.057  -2.034  -0.686  0.00  0.00    -0.207 NA
ATOM     13  N   UNL     1       3.884  -1.537  -1.400  0.00  0.00    -0.309 N 
ATOM     14  C   UNL     1      11.336  -3.430  -1.122  0.00  0.00    +0.203 C 
ATOM     15  O   UNL     1      11.754  -3.968  -2.386  0.00  0.00    -0.368 OA
ATOM     16  C   UNL     1      12.078  -3.667  -4.762  0.00  0.00    +0.041 C 
ATOM     17  H   UNL     1       3.245  -1.428  -2.122  0.00  0.00    +0.149 HD
ENDROOT
BRANCH   9  18
ATOM     18  N   UNL     1       7.133  -2.623  -4.599  0.00  0.00    -0.267 N 
ATOM     19  H   UNL     1       7.989  -3.017  -4.827  0.00  0.00    +0.167 HD
BRANCH  18  20
ATOM     20  N   UNL     1       6.264  -2.256  -5.588  0.00  0.00    -0.255 NA
ATOM     21  H   UNL     1       6.648  -2.456  -6.499  0.00  0.00    +0.140 HD
ATOM     22  H   UNL     1       5.369  -2.705  -5.467  0.00  0.00    +0.140 HD
ENDBRANCH  18  20
ENDBRANCH   9  18
BRANCH  13  23
ATOM     23  C   UNL     1       3.466  -1.321  -0.013  0.00  0.00    +0.139 C 
BRANCH  23  24
ATOM     24  C   UNL     1       2.007  -0.943   0.019  0.00  0.00    -0.030 A 
ATOM     25  C   UNL     1       1.041  -1.926   0.124  0.00  0.00    +0.005 A 
ATOM     26  C   UNL     1      -0.297  -1.579   0.153  0.00  0.00    +0.000 A 
ATOM     27  C   UNL     1      -0.668  -0.250   0.077  0.00  0.00    +0.000 A 
ATOM     28  C   UNL     1       0.298   0.733  -0.027  0.00  0.00    +0.000 A 
ATOM     29  C   UNL     1       1.636   0.387  -0.056  0.00  0.00    +0.005 A 
ENDBRANCH  23  24
ENDBRANCH  13  23
TORSDOF 4
