REMARK  Name = ZINC53002608
REMARK  6 active torsions:
REMARK  status: ('A' for Active; 'I' for Inactive)
REMARK    1  A    between atoms: C_1  and  C_2
REMARK    2  A    between atoms: C_2  and  S_3
REMARK    3  A    between atoms: S_3  and  C_6
REMARK    4  A    between atoms: C_6  and  C_7
REMARK    5  A    between atoms: N_9  and  N_10
REMARK    6  A    between atoms: C_11  and  C_13
REMARK                            x       y       z     vdW  Elec       q    Type
REMARK                         _______ _______ _______ _____ _____    ______ ____
ROOT
ATOM      1  N   UNL     1      -4.127  -5.095   0.014  0.00  0.00    -0.230 N 
ATOM      2  C   UNL     1      -4.198  -6.441   0.008  0.00  0.00    +0.267 C 
ATOM      3  O   UNL     1      -3.178  -7.104  -0.006  0.00  0.00    -0.268 OA
ATOM      4  H   UNL     1      -4.940  -4.566   0.025  0.00  0.00    +0.173 HD
ENDROOT
BRANCH   2   5
ATOM      5  C   UNL     1      -5.505  -7.105   0.017  0.00  0.00    +0.076 A 
ATOM      6  C   UNL     1      -5.798  -8.451   0.018  0.00  0.00    +0.024 A 
ATOM      7  C   UNL     1      -7.150  -8.807   0.000  0.00  0.00    -0.036 A 
ATOM      8  C   UNL     1      -8.044  -7.802  -0.057  0.00  0.00    -0.006 A 
ATOM      9  S   UNL     1      -7.133  -6.387   0.036  0.00  0.00    -0.088 S 
ATOM     10  C   UNL     1      -9.540  -7.779  -0.249  0.00  0.00    +0.043 C 
ATOM     11  C   UNL     1     -10.125  -9.181  -0.425  0.00  0.00    +0.005 C 
ATOM     12  C   UNL     1     -10.277  -9.879   0.916  0.00  0.00    +0.000 C 
ATOM     13  C   UNL     1      -9.135  -9.582   1.868  0.00  0.00    +0.000 C 
ATOM     14  C   UNL     1      -8.007 -10.561   1.526  0.00  0.00    +0.005 C 
ATOM     15  C   UNL     1      -7.521 -10.279   0.105  0.00  0.00    +0.036 C 
ENDBRANCH   2   5
BRANCH   1  18
ATOM     16  C   UNL     1      -2.807  -3.114   0.012  0.00  0.00    +0.250 C 
ATOM     17  O   UNL     1      -3.823  -2.452   0.025  0.00  0.00    -0.273 OA
ATOM     18  N   UNL     1      -2.878  -4.460   0.006  0.00  0.00    -0.233 N 
ATOM     19  H   UNL     1      -2.065  -4.988  -0.005  0.00  0.00    +0.173 HD
BRANCH  16  20
ATOM     20  C   UNL     1      -1.463  -2.430   0.003  0.00  0.00    +0.262 C 
BRANCH  20  21
ATOM     21  S   UNL     1      -1.700  -0.632   0.015  0.00  0.00    -0.023 S 
ATOM     22  O   UNL     1      -2.304  -0.266   1.248  0.00  0.00    -0.174 OA
ATOM     23  O   UNL     1      -2.328  -0.253  -1.202  0.00  0.00    -0.174 OA
BRANCH  21  25
ATOM     24  C   UNL     1      -0.019   1.526   0.010  0.00  0.00    +0.028 C 
ATOM     25  C   UNL     1       0.002  -0.004   0.002  0.00  0.00    +0.163 C 
ENDBRANCH  21  25
ENDBRANCH  20  21
ENDBRANCH  16  20
ENDBRANCH   1  18
TORSDOF 5
