REMARK  Name = ZINC21722384
REMARK  3 active torsions:
REMARK  status: ('A' for Active; 'I' for Inactive)
REMARK    1  A    between atoms: C_10  and  C_23
REMARK    2  A    between atoms: N_15  and  C_16
REMARK    3  A    between atoms: C_16  and  C_17
REMARK                            x       y       z     vdW  Elec       q    Type
REMARK                         _______ _______ _______ _____ _____    ______ ____
ROOT
ATOM      1  C   UNL     1      -5.403   2.650   0.460  0.00  0.00    +0.002 A 
ATOM      2  C   UNL     1      -4.630   2.546   1.602  0.00  0.00    +0.002 A 
ATOM      3  C   UNL     1      -3.554   3.393   1.799  0.00  0.00    +0.025 A 
ATOM      4  C   UNL     1      -3.258   4.351   0.843  0.00  0.00    +0.060 A 
ATOM      5  C   UNL     1      -4.059   4.481  -0.281  0.00  0.00    +0.053 A 
ATOM      6  C   UNL     1      -5.121   3.618  -0.489  0.00  0.00    +0.025 A 
ATOM      7  N   UNL     1      -3.790   5.545  -1.132  0.00  0.00    -0.316 N 
ATOM      8  C   UNL     1      -2.653   5.693  -1.860  0.00  0.00    +0.017 C 
ATOM      9  C   UNL     1      -1.413   5.520  -1.377  0.00  0.00    +0.038 C 
ATOM     10  C   UNL     1      -1.054   5.133   0.037  0.00  0.00    +0.155 C 
ATOM     11  N   UNL     1      -2.155   5.197   0.974  0.00  0.00    -0.242 N 
ATOM     12  C   UNL     1      -2.115   6.085   1.987  0.00  0.00    +0.307 C 
ATOM     13  O   UNL     1      -1.158   6.825   2.110  0.00  0.00    -0.252 OA
ATOM     14  N   UNL     1      -3.136   6.152   2.865  0.00  0.00    -0.296 N 
ATOM     15  C   UNL     1      -0.288   5.704  -2.221  0.00  0.00    +0.163 C 
ATOM     16  O   UNL     1       0.825   5.560  -1.755  0.00  0.00    -0.292 OA
ATOM     17  C   UNL     1      -0.425   6.067  -3.669  0.00  0.00    +0.080 C 
ATOM     18  C   UNL     1      -1.762   5.521  -4.184  0.00  0.00    +0.014 C 
ATOM     19  C   UNL     1      -2.870   6.100  -3.307  0.00  0.00    +0.051 C 
ATOM     20  H   UNL     1      -4.528   6.352  -1.255  0.00  0.00    +0.152 HD
ATOM     21  H   UNL     1      -4.001   5.482   2.755  0.00  0.00    +0.150 HD
ENDROOT
BRANCH  10  22
ATOM     22  C   UNL     1      -0.518   3.725   0.025  0.00  0.00    +0.015 A 
ATOM     23  C   UNL     1       0.770   3.301   0.012  0.00  0.00    +0.013 A 
ATOM     24  C   UNL     1       1.029   1.944   0.003  0.00  0.00    +0.008 A 
ATOM     25  C   UNL     1      -0.013   1.076   0.008  0.00  0.00    +0.045 A 
ATOM     26  S   UNL     1      -1.415   2.181   0.019  0.00  0.00    -0.099 S 
ENDBRANCH  10  22
BRANCH  14  27
ATOM     27  C   UNL     1      -3.092   7.117   3.966  0.00  0.00    +0.137 C 
BRANCH  27  28
ATOM     28  C   UNL     1      -4.363   6.988   4.809  0.00  0.00    +0.135 C 
ATOM     29  C   UNL     1      -4.370   8.049   5.938  0.00  0.00    +0.035 C 
ATOM     30  C   UNL     1      -5.894   8.182   6.206  0.00  0.00    +0.031 C 
ATOM     31  C   UNL     1      -6.494   7.977   4.799  0.00  0.00    +0.160 C 
ATOM     32  O   UNL     1      -5.522   7.280   4.011  0.00  0.00    -0.375 OA
ENDBRANCH  27  28
ENDBRANCH  14  27
TORSDOF 3
