REMARK  Name = ZINC39468473
REMARK  5 active torsions:
REMARK  status: ('A' for Active; 'I' for Inactive)
REMARK    1  A    between atoms: C_1  and  S_2
REMARK    2  A    between atoms: S_2  and  P_3
REMARK    3  A    between atoms: C_11  and  C_22
REMARK    4  A    between atoms: C_12  and  O_21
REMARK    5  A    between atoms: C_27  and  O_28
REMARK                            x       y       z     vdW  Elec       q    Type
REMARK                         _______ _______ _______ _____ _____    ______ ____
ROOT
ATOM      1  P   UNL     1       1.054  -0.512   1.771  0.00  0.00    +0.314 P 
ATOM      2  O   UNL     1       0.324  -0.021   2.961  0.00  0.00    -0.262 OA
ATOM      3  N   UNL     1       1.268  -2.147   1.860  0.00  0.00    -0.283 NA
ATOM      4  N   UNL     1       2.268  -2.620   2.682  0.00  0.00    +0.398 N 
ATOM      5  C   UNL     1       2.306  -4.078   2.480  0.00  0.00    -0.046 C 
ATOM      6  C   UNL     1       3.370  -4.723   3.357  0.00  0.00    +0.005 C 
ATOM      7  C   UNL     1       3.080  -4.465   4.812  0.00  0.00    -0.013 C 
ATOM      8  C   UNL     1       4.080  -4.538   5.706  0.00  0.00    +0.023 C 
ATOM      9  C   UNL     1       5.443  -4.884   5.240  0.00  0.00    +0.121 C 
ATOM     10  C   UNL     1       5.770  -4.697   3.961  0.00  0.00    +0.023 C 
ATOM     11  C   UNL     1       4.741  -4.133   3.011  0.00  0.00    +0.019 C 
ATOM     12  C   UNL     1       4.676  -2.615   3.184  0.00  0.00    -0.002 C 
ATOM     13  C   UNL     1       3.556  -2.022   2.321  0.00  0.00    -0.020 C 
ATOM     14  C   UNL     1       3.558  -0.506   2.560  0.00  0.00    +0.157 C 
ATOM     15  O   UNL     1       2.557   0.112   1.733  0.00  0.00    -0.312 OA
ATOM     16  H   UNL     1       0.708  -2.754   1.351  0.00  0.00    +0.112 HD
ATOM     17  H   UNL     1       2.050  -2.404   3.643  0.00  0.00    -0.055 HD
ENDROOT
BRANCH   8  18
ATOM     18  C   UNL     1       3.822  -4.277   7.143  0.00  0.00    +0.027 A 
ATOM     19  C   UNL     1       3.175  -5.232   7.923  0.00  0.00    +0.012 A 
ATOM     20  C   UNL     1       2.937  -4.983   9.260  0.00  0.00    +0.001 A 
ATOM     21  C   UNL     1       3.339  -3.787   9.829  0.00  0.00    +0.004 A 
ATOM     22  C   UNL     1       3.982  -2.833   9.063  0.00  0.00    +0.046 A 
ATOM     23  C   UNL     1       4.233  -3.072   7.722  0.00  0.00    +0.125 A 
BRANCH  23  24
ATOM     24  O   UNL     1       4.870  -2.137   6.970  0.00  0.00    -0.506 OA
ATOM     25  H   UNL     1       4.277  -1.502   6.546  0.00  0.00    +0.292 HD
ENDBRANCH  23  24
ENDBRANCH   8  18
BRANCH   1  27
ATOM     26  C   UNL     1      -0.022   1.810   0.012  0.00  0.00    +0.096 C 
ATOM     27  S   UNL     1       0.002  -0.004   0.002  0.00  0.00    -0.059 S 
ENDBRANCH   1  27
BRANCH   9  28
ATOM     28  O   UNL     1       6.356  -5.388   6.111  0.00  0.00    -0.506 OA
ATOM     29  H   UNL     1       7.215  -5.582   5.712  0.00  0.00    +0.292 HD
ENDBRANCH   9  28
TORSDOF 4
