REMARK  Name = ZINC64538910
REMARK  11 active torsions:
REMARK  status: ('A' for Active; 'I' for Inactive)
REMARK    1  A    between atoms: C_1  and  C_2
REMARK    2  A    between atoms: C_8  and  C_11
REMARK    3  A    between atoms: C_11  and  C_12
REMARK    4  A    between atoms: C_12  and  N_13
REMARK    5  A    between atoms: C_14  and  C_16
REMARK    6  A    between atoms: C_16  and  C_17
REMARK    7  A    between atoms: C_17  and  C_18
REMARK    8  A    between atoms: C_18  and  C_19
REMARK    9  A    between atoms: C_23  and  C_26
REMARK   10  A    between atoms: N_28  and  C_29
REMARK   11  A    between atoms: C_34  and  C_35
REMARK                            x       y       z     vdW  Elec       q    Type
REMARK                         _______ _______ _______ _____ _____    ______ ____
ROOT
ATOM      1  C   UNL     1      -2.542  -2.299   7.784  0.00  0.00    +0.096 C 
ENDROOT
BRANCH   1   3
ATOM      2  N   UNL     1      -1.381  -2.557   5.614  0.00  0.00    -0.315 N 
ATOM      3  C   UNL     1      -2.542  -2.563   6.300  0.00  0.00    +0.213 C 
ATOM      4  O   UNL     1      -3.586  -2.781   5.723  0.00  0.00    -0.276 OA
ATOM      5  H   UNL     1      -0.546  -2.382   6.076  0.00  0.00    +0.149 HD
BRANCH   2   6
ATOM      6  C   UNL     1      -1.381  -2.814   4.172  0.00  0.00    +0.108 C 
BRANCH   6   7
ATOM      7  C   UNL     1       0.053  -2.749   3.643  0.00  0.00    +0.052 C 
BRANCH   7  15
ATOM      8  C   UNL     1      -0.052   1.544   0.003  0.00  0.00    +0.044 C 
ATOM      9  C   UNL     1      -0.020   0.038  -0.002  0.00  0.00    -0.050 A 
ATOM     10  C   UNL     1      -0.011  -0.641  -1.228  0.00  0.00    +0.005 A 
ATOM     11  C   UNL     1       0.017  -1.987  -1.317  0.00  0.00    +0.026 A 
ATOM     12  C   UNL     1       0.039  -2.784  -0.139  0.00  0.00    +0.043 A 
ATOM     13  N   UNL     1       0.067  -4.083   0.035  0.00  0.00    -0.380 N 
ATOM     14  C   UNL     1       0.078  -4.362   1.476  0.00  0.00    +0.144 C 
ATOM     15  C   UNL     1       0.053  -3.013   2.159  0.00  0.00    -0.040 C 
ATOM     16  C   UNL     1       0.030  -2.092   1.169  0.00  0.00    -0.001 A 
ATOM     17  C   UNL     1       0.005  -0.624   1.177  0.00  0.00    +0.013 A 
ATOM     18  H   UNL     1       0.077  -4.749  -0.670  0.00  0.00    +0.160 HD
ENDBRANCH   7  15
ENDBRANCH   6   7
ENDBRANCH   2   6
ENDBRANCH   1   3
BRANCH   1  19
ATOM     19  C   UNL     1      -3.976  -2.364   8.313  0.00  0.00    +0.012 C 
BRANCH  19  20
ATOM     20  C   UNL     1      -3.976  -2.096   9.819  0.00  0.00    +0.040 C 
BRANCH  20  21
ATOM     21  C   UNL     1      -5.410  -2.160  10.348  0.00  0.00    +0.187 C 
ATOM     22  N   UNL     1      -5.457  -1.918  11.809  0.00  0.00    -0.177 NA
ATOM     23  N   UNL     1      -6.081  -2.661  12.541  0.00  0.00    -0.167 NA
ATOM     24  C   UNL     1      -6.810  -3.827  11.991  0.00  0.00    +0.272 C 
ATOM     25  S   UNL     1      -6.070  -3.886  10.296  0.00  0.00    -0.095 S 
BRANCH  24  26
ATOM     26  C   UNL     1      -8.294  -3.570  11.934  0.00  0.00    +0.254 C 
ATOM     27  O   UNL     1      -8.839  -3.401  10.864  0.00  0.00    -0.272 OA
ATOM     28  N   UNL     1      -9.015  -3.529  13.072  0.00  0.00    -0.283 N 
ATOM     29  H   UNL     1      -8.596  -3.743  13.919  0.00  0.00    +0.155 HD
BRANCH  28  30
ATOM     30  C   UNL     1     -10.368  -3.177  13.030  0.00  0.00    +0.036 A 
ATOM     31  C   UNL     1     -10.852  -2.396  11.988  0.00  0.00    +0.023 A 
ATOM     32  C   UNL     1     -12.189  -2.050  11.949  0.00  0.00    +0.002 A 
ATOM     33  C   UNL     1     -13.045  -2.479  12.947  0.00  0.00    +0.000 A 
ATOM     34  C   UNL     1     -12.566  -3.256  13.986  0.00  0.00    +0.005 A 
ATOM     35  C   UNL     1     -11.232  -3.611  14.027  0.00  0.00    -0.029 A 
ATOM     36  C   UNL     1     -10.712  -4.464  15.155  0.00  0.00    +0.045 C 
ENDBRANCH  28  30
ENDBRANCH  24  26
ENDBRANCH  20  21
ENDBRANCH  19  20
ENDBRANCH   1  19
TORSDOF 9
