REMARK  Name = ZINC66392771
REMARK  7 active torsions:
REMARK  status: ('A' for Active; 'I' for Inactive)
REMARK    1  A    between atoms: C_1  and  C_2
REMARK    2  A    between atoms: N_4  and  C_5
REMARK    3  A    between atoms: C_5  and  C_6
REMARK    4  A    between atoms: C_9  and  C_11
REMARK    5  A    between atoms: N_13  and  C_14
REMARK    6  A    between atoms: C_14  and  C_16
REMARK    7  A    between atoms: C_14  and  C_18
REMARK                            x       y       z     vdW  Elec       q    Type
REMARK                         _______ _______ _______ _____ _____    ______ ____
ROOT
ATOM      1  C   UNL     1      -5.571  -3.802   1.645  0.00  0.00    +0.281 C 
ATOM      2  O   UNL     1      -6.632  -4.192   1.193  0.00  0.00    -0.267 OA
ATOM      3  N   UNL     1      -5.389  -3.741   2.979  0.00  0.00    -0.290 N 
ATOM      4  H   UNL     1      -4.544  -3.430   3.340  0.00  0.00    +0.151 HD
ENDROOT
BRANCH   1   8
ATOM      5  C   UNL     1      -2.550  -2.680   0.012  0.00  0.00    +0.123 A 
ATOM      6  C   UNL     1      -3.297  -2.952  -1.081  0.00  0.00    +0.047 A 
ATOM      7  C   UNL     1      -4.542  -3.414  -0.626  0.00  0.00    +0.055 A 
ATOM      8  C   UNL     1      -4.491  -3.400   0.738  0.00  0.00    +0.190 A 
ATOM      9  O   UNL     1      -3.271  -2.957   1.106  0.00  0.00    -0.453 OA
BRANCH   5  10
ATOM     10  C   UNL     1      -1.136  -2.159   0.001  0.00  0.00    +0.178 C 
BRANCH  10  14
ATOM     11  C   UNL     1      -0.018   1.503   0.010  0.00  0.00    +0.109 C 
ATOM     12  C   UNL     1       0.002  -0.004   0.002  0.00  0.00    +0.210 C 
ATOM     13  O   UNL     1       1.060  -0.596  -0.011  0.00  0.00    -0.276 OA
ATOM     14  N   UNL     1      -1.156  -0.694   0.009  0.00  0.00    -0.308 N 
ATOM     15  H   UNL     1      -2.002  -0.220   0.020  0.00  0.00    +0.149 HD
ENDBRANCH  10  14
ENDBRANCH   5  10
ENDBRANCH   1   8
BRANCH   3  16
ATOM     16  C   UNL     1      -6.468  -4.142   3.885  0.00  0.00    +0.208 C 
BRANCH  16  17
ATOM     17  C   UNL     1      -5.882  -4.572   5.205  0.00  0.00    +0.006 A 
ATOM     18  C   UNL     1      -4.654  -4.082   5.608  0.00  0.00    +0.008 A 
ATOM     19  C   UNL     1      -4.115  -4.475   6.819  0.00  0.00    +0.002 A 
ATOM     20  C   UNL     1      -4.805  -5.359   7.628  0.00  0.00    +0.021 A 
ATOM     21  C   UNL     1      -6.034  -5.849   7.227  0.00  0.00    +0.060 A 
ATOM     22  C   UNL     1      -6.577  -5.450   6.017  0.00  0.00    +0.065 A 
ATOM     23 CL   UNL     1      -8.123  -6.059   5.515  0.00  0.00    -0.082 Cl
ATOM     24 CL   UNL     1      -6.901  -6.958   8.243  0.00  0.00    -0.082 Cl
ENDBRANCH  16  17
BRANCH  16  25
ATOM     25  C   UNL     1      -7.378  -3.005   4.098  0.00  0.00    +0.090 C 
ATOM     26  N   UNL     1      -8.081  -2.128   4.263  0.00  0.00    -0.194 NA
ENDBRANCH  16  25
ENDBRANCH   3  16
TORSDOF 6
