REMARK  Name = ZINC40319828
REMARK  12 active torsions:
REMARK  status: ('A' for Active; 'I' for Inactive)
REMARK    1  A    between atoms: C_1  and  C_2
REMARK    2  A    between atoms: C_2  and  C_4
REMARK    3  A    between atoms: C_9  and  O_10
REMARK    4  A    between atoms: O_10  and  C_11
REMARK    5  A    between atoms: C_11  and  C_12
REMARK    6  A    between atoms: C_12  and  C_14
REMARK    7  A    between atoms: C_12  and  O_37
REMARK    8  A    between atoms: C_14  and  N_15
REMARK    9  A    between atoms: N_15  and  C_16
REMARK   10  A    between atoms: N_15  and  C_29
REMARK   11  A    between atoms: C_16  and  C_17
REMARK   12  A    between atoms: C_20  and  C_22
REMARK                            x       y       z     vdW  Elec       q    Type
REMARK                         _______ _______ _______ _____ _____    ______ ____
ROOT
ATOM      1  N   UNL     1       2.355  -7.005   0.406  0.00  0.00    +0.389 N 
ATOM      2  H   UNL     1       2.746  -7.138   1.326  0.00  0.00    -0.081 HD
ENDROOT
BRANCH   1   3
ATOM      3  C   UNL     1       3.095  -5.945  -0.292  0.00  0.00    -0.045 C 
ATOM      4  C   UNL     1       4.603  -6.244  -0.239  0.00  0.00    +0.009 C 
ATOM      5  C   UNL     1       5.404  -4.994  -0.679  0.00  0.00    +0.164 C 
ATOM      6  S   UNL     1       4.284  -3.612  -0.213  0.00  0.00    -0.033 S 
ATOM      7  O   UNL     1       3.895  -2.916  -1.390  0.00  0.00    -0.174 OA
ATOM      8  O   UNL     1       4.863  -2.892   0.866  0.00  0.00    -0.174 OA
ATOM      9  C   UNL     1       2.847  -4.581   0.413  0.00  0.00    +0.151 C 
ENDBRANCH   1   3
BRANCH   1  10
ATOM     10  C   UNL     1       0.943  -6.619   0.525  0.00  0.00    -0.043 C 
BRANCH  10  11
ATOM     11  C   UNL     1       0.590  -6.422   2.001  0.00  0.00    +0.135 C 
BRANCH  11  12
ATOM     12  O   UNL     1       0.686  -7.673   2.684  0.00  0.00    -0.390 OA
ATOM     13  H   UNL     1       0.096  -8.357   2.339  0.00  0.00    +0.210 HD
ENDBRANCH  11  12
BRANCH  11  14
ATOM     14  C   UNL     1      -0.838  -5.886   2.117  0.00  0.00    +0.258 C 
BRANCH  14  15
ATOM     15  O   UNL     1      -1.126  -5.592   3.485  0.00  0.00    -0.489 OA
BRANCH  15  21
ATOM     16  C   UNL     1      -2.715  -4.792   5.085  0.00  0.00    +0.059 A 
ATOM     17  C   UNL     1      -3.991  -4.283   5.357  0.00  0.00    +0.015 A 
ATOM     18  C   UNL     1      -4.888  -4.097   4.329  0.00  0.00    +0.001 A 
ATOM     19  C   UNL     1      -4.535  -4.412   3.026  0.00  0.00    +0.004 A 
ATOM     20  C   UNL     1      -3.281  -4.915   2.743  0.00  0.00    +0.046 A 
ATOM     21  C   UNL     1      -2.361  -5.103   3.763  0.00  0.00    +0.131 A 
BRANCH  16  23
ATOM     22  C   UNL     1      -2.138  -4.656   7.593  0.00  0.00    +0.092 C 
ATOM     23  C   UNL     1      -1.752  -4.992   6.175  0.00  0.00    +0.164 C 
ATOM     24  O   UNL     1      -0.646  -5.429   5.935  0.00  0.00    -0.292 OA
ENDBRANCH  16  23
ENDBRANCH  15  21
ENDBRANCH  14  15
ENDBRANCH  11  14
ENDBRANCH  10  11
ENDBRANCH   1  10
BRANCH   1  25
ATOM     25  C   UNL     1       2.458  -8.257  -0.356  0.00  0.00    -0.003 C 
BRANCH  25  26
ATOM     26  C   UNL     1       3.889  -8.731  -0.351  0.00  0.00    +0.089 A 
ATOM     27  C   UNL     1       4.580  -9.130   0.734  0.00  0.00    +0.043 A 
ATOM     28  C   UNL     1       5.870  -9.489   0.292  0.00  0.00    +0.050 A 
ATOM     29  C   UNL     1       5.894  -9.287  -1.052  0.00  0.00    +0.135 A 
ATOM     30  O   UNL     1       4.684  -8.832  -1.429  0.00  0.00    -0.462 OA
BRANCH  29  31
ATOM     31  C   UNL     1       7.046  -9.529  -1.945  0.00  0.00    +0.019 A 
ATOM     32  C   UNL     1       8.247 -10.014  -1.423  0.00  0.00    +0.011 A 
ATOM     33  C   UNL     1       9.320 -10.238  -2.262  0.00  0.00    +0.002 A 
ATOM     34  C   UNL     1       9.208  -9.983  -3.617  0.00  0.00    +0.020 A 
ATOM     35  C   UNL     1       8.020  -9.502  -4.141  0.00  0.00    +0.042 A 
ATOM     36  C   UNL     1       6.937  -9.279  -3.313  0.00  0.00    +0.031 A 
ATOM     37 CL   UNL     1       7.890  -9.184  -5.843  0.00  0.00    -0.084 Cl
ENDBRANCH  29  31
ENDBRANCH  25  26
ENDBRANCH   1  25
TORSDOF 11
