REMARK  Name = ZINC35745585
REMARK  15 active torsions:
REMARK  status: ('A' for Active; 'I' for Inactive)
REMARK    1  A    between atoms: C_1  and  C_2
REMARK    2  A    between atoms: C_5  and  C_9
REMARK    3  A    between atoms: C_7  and  C_8
REMARK    4  A    between atoms: C_18  and  C_20
REMARK    5  A    between atoms: C_20  and  N_21
REMARK    6  A    between atoms: N_21  and  C_22
REMARK    7  A    between atoms: N_21  and  C_27
REMARK    8  A    between atoms: C_22  and  C_23
REMARK    9  A    between atoms: C_23  and  C_24
REMARK   10  A    between atoms: C_24  and  O_25
REMARK   11  A    between atoms: O_25  and  C_26
REMARK   12  A    between atoms: C_27  and  C_28
REMARK   13  A    between atoms: C_28  and  C_30
REMARK   14  A    between atoms: C_28  and  O_37
REMARK   15  A    between atoms: C_30  and  C_31
REMARK                            x       y       z     vdW  Elec       q    Type
REMARK                         _______ _______ _______ _____ _____    ______ ____
ROOT
ATOM      1  C   UNL     1       1.204  -5.078  -0.429  0.00  0.00    +0.004 A 
ATOM      2  C   UNL     1       2.011  -5.931   0.245  0.00  0.00    +0.056 A 
ATOM      3  S   UNL     1       1.281  -7.527  -0.069  0.00  0.00    -0.076 S 
ATOM      4  C   UNL     1      -0.079  -7.016  -1.089  0.00  0.00    +0.116 A 
ATOM      5  C   UNL     1       0.062  -5.620  -1.157  0.00  0.00    +0.080 A 
ATOM      6  C   UNL     1      -0.928  -4.934  -1.931  0.00  0.00    +0.260 A 
ATOM      7  O   UNL     1      -0.887  -3.722  -2.053  0.00  0.00    -0.267 OA
ATOM      8  N   UNL     1      -1.903  -5.649  -2.522  0.00  0.00    -0.312 N 
ATOM      9  H   UNL     1      -2.577  -5.189  -3.047  0.00  0.00    +0.170 HD
ATOM     10  C   UNL     1      -1.964  -6.999  -2.397  0.00  0.00    +0.094 A 
ATOM     11  N   UNL     1      -1.069  -7.654  -1.706  0.00  0.00    -0.229 NA
ENDROOT
BRANCH   1  16
ATOM     12  C   UNL     1       2.243   0.585  -0.405  0.00  0.00    +0.044 C 
ATOM     13  C   UNL     1       1.971  -0.897  -0.412  0.00  0.00    -0.048 A 
ATOM     14  C   UNL     1       1.750  -1.552  -1.610  0.00  0.00    +0.004 A 
ATOM     15  C   UNL     1       1.501  -2.909  -1.622  0.00  0.00    +0.009 A 
ATOM     16  C   UNL     1       1.472  -3.620  -0.423  0.00  0.00    -0.016 A 
ATOM     17  C   UNL     1       1.695  -2.955   0.781  0.00  0.00    +0.012 A 
ATOM     18  C   UNL     1       1.949  -1.598   0.780  0.00  0.00    -0.047 A 
ATOM     19  C   UNL     1       2.197  -0.879   2.081  0.00  0.00    +0.044 C 
ENDBRANCH   1  16
BRANCH  10  20
ATOM     20  C   UNL     1      -3.075  -7.757  -3.077  0.00  0.00    -0.003 C 
BRANCH  20  21
ATOM     21  N   UNL     1      -2.930  -9.192  -2.800  0.00  0.00    +0.386 N 
ATOM     22  H   UNL     1      -2.008  -9.497  -3.075  0.00  0.00    -0.081 HD
BRANCH  21  23
ATOM     23  C   UNL     1      -3.117  -9.434  -1.363  0.00  0.00    -0.076 C 
BRANCH  23  24
ATOM     24  C   UNL     1      -4.545  -9.056  -0.964  0.00  0.00    +0.009 C 
BRANCH  24  25
ATOM     25  C   UNL     1      -4.717  -9.234   0.546  0.00  0.00    +0.157 C 
BRANCH  25  26
ATOM     26  O   UNL     1      -6.051  -8.881   0.918  0.00  0.00    -0.383 OA
ATOM     27  C   UNL     1      -6.318  -9.013   2.316  0.00  0.00    +0.193 C 
ENDBRANCH  25  26
ENDBRANCH  24  25
ENDBRANCH  23  24
ENDBRANCH  21  23
BRANCH  21  28
ATOM     28  C   UNL     1      -3.940  -9.942  -3.558  0.00  0.00    -0.046 C 
BRANCH  28  29
ATOM     29  C   UNL     1      -3.713 -11.443  -3.364  0.00  0.00    +0.102 C 
BRANCH  29  30
ATOM     30  O   UNL     1      -2.406 -11.791  -3.825  0.00  0.00    -0.393 OA
ATOM     31  H   UNL     1      -2.255 -11.598  -4.761  0.00  0.00    +0.210 HD
ENDBRANCH  29  30
BRANCH  29  32
ATOM     32  C   UNL     1      -4.760 -12.224  -4.162  0.00  0.00    +0.064 C 
BRANCH  32  33
ATOM     33  C   UNL     1      -4.614 -13.696  -3.874  0.00  0.00    -0.045 A 
ATOM     34  C   UNL     1      -3.773 -14.472  -4.649  0.00  0.00    +0.004 A 
ATOM     35  C   UNL     1      -3.640 -15.822  -4.386  0.00  0.00    +0.000 A 
ATOM     36  C   UNL     1      -4.347 -16.397  -3.346  0.00  0.00    +0.000 A 
ATOM     37  C   UNL     1      -5.188 -15.620  -2.570  0.00  0.00    +0.000 A 
ATOM     38  C   UNL     1      -5.318 -14.269  -2.831  0.00  0.00    +0.004 A 
ENDBRANCH  32  33
ENDBRANCH  29  32
ENDBRANCH  28  29
ENDBRANCH  21  28
ENDBRANCH  20  21
ENDBRANCH  10  20
TORSDOF 12
