REMARK  Name = ZINC20072649
REMARK  8 active torsions:
REMARK  status: ('A' for Active; 'I' for Inactive)
REMARK    1  A    between atoms: C_9  and  O_29
REMARK    2  A    between atoms: C_10  and  C_11
REMARK    3  A    between atoms: N_12  and  N_13
REMARK    4  A    between atoms: C_14  and  C_16
REMARK    5  A    between atoms: C_16  and  C_17
REMARK    6  A    between atoms: C_17  and  C_18
REMARK    7  A    between atoms: C_18  and  C_19
REMARK    8  A    between atoms: N_21  and  C_22
REMARK                            x       y       z     vdW  Elec       q    Type
REMARK                         _______ _______ _______ _____ _____    ______ ____
ROOT
ATOM      1  N   UNL     1       6.104  -1.948  -0.311  0.00  0.00    -0.207 N 
ATOM      2  C   UNL     1       7.264  -2.597  -0.537  0.00  0.00    +0.232 C 
ATOM      3  O   UNL     1       8.311  -1.984  -0.542  0.00  0.00    -0.274 OA
ATOM      4  H   UNL     1       5.267  -2.438  -0.307  0.00  0.00    +0.177 HD
ENDROOT
BRANCH   1   6
ATOM      5  C   UNL     1       4.984   0.074   0.045  0.00  0.00    +0.142 C 
ATOM      6  N   UNL     1       6.108  -0.566  -0.082  0.00  0.00    -0.188 NA
BRANCH   5  16
ATOM      7  C   UNL     1       3.035  -3.712   2.952  0.00  0.00    +0.001 A 
ATOM      8  C   UNL     1       4.250  -3.031   2.937  0.00  0.00    +0.001 A 
ATOM      9  C   UNL     1       4.490  -2.047   2.025  0.00  0.00    +0.009 A 
ATOM     10  C   UNL     1       3.502  -1.716   1.089  0.00  0.00    -0.006 A 
ATOM     11  C   UNL     1       2.266  -2.406   1.101  0.00  0.00    -0.017 A 
ATOM     12  C   UNL     1       2.054  -3.415   2.057  0.00  0.00    +0.008 A 
ATOM     13  C   UNL     1       1.276  -2.073   0.161  0.00  0.00    +0.012 A 
ATOM     14  C   UNL     1       1.492  -1.096  -0.760  0.00  0.00    +0.046 A 
ATOM     15  C   UNL     1       2.692  -0.388  -0.811  0.00  0.00    +0.126 A 
ATOM     16  C   UNL     1       3.717  -0.668   0.093  0.00  0.00    +0.044 A 
BRANCH  15  17
ATOM     17  O   UNL     1       2.865   0.580  -1.748  0.00  0.00    -0.506 OA
ATOM     18  H   UNL     1       2.516   1.444  -1.490  0.00  0.00    +0.292 HD
ENDBRANCH  15  17
ENDBRANCH   5  16
ENDBRANCH   1   6
BRANCH   2  19
ATOM     19  C   UNL     1       7.260  -4.084  -0.783  0.00  0.00    +0.098 C 
BRANCH  19  20
ATOM     20  C   UNL     1       8.694  -4.567  -1.010  0.00  0.00    +0.018 C 
BRANCH  20  21
ATOM     21  C   UNL     1       8.690  -6.076  -1.260  0.00  0.00    +0.096 C 
BRANCH  21  22
ATOM     22  C   UNL     1      10.103  -6.552  -1.483  0.00  0.00    +0.217 C 
ATOM     23  O   UNL     1      11.022  -5.762  -1.445  0.00  0.00    -0.275 OA
ATOM     24  N   UNL     1      10.344  -7.856  -1.724  0.00  0.00    -0.285 N 
ATOM     25  H   UNL     1       9.605  -8.475  -1.832  0.00  0.00    +0.155 HD
BRANCH  24  26
ATOM     26  C   UNL     1      11.662  -8.318  -1.819  0.00  0.00    +0.033 A 
ATOM     27  C   UNL     1      11.979  -9.339  -2.704  0.00  0.00    +0.024 A 
ATOM     28  C   UNL     1      13.281  -9.793  -2.796  0.00  0.00    +0.017 A 
ATOM     29  C   UNL     1      14.268  -9.230  -2.007  0.00  0.00    +0.018 A 
ATOM     30  C   UNL     1      13.955  -8.212  -1.124  0.00  0.00    +0.017 A 
ATOM     31  C   UNL     1      12.656  -7.751  -1.032  0.00  0.00    +0.024 A 
ATOM     32 BR   UNL     1      16.049  -9.854  -2.135  0.00  0.00    -0.050 Br
ENDBRANCH  24  26
ENDBRANCH  21  22
ENDBRANCH  20  21
ENDBRANCH  19  20
ENDBRANCH   2  19
TORSDOF 8
