REMARK  Name = ZINC59022362
REMARK  11 active torsions:
REMARK  status: ('A' for Active; 'I' for Inactive)
REMARK    1  A    between atoms: C_1  and  C_2
REMARK    2  A    between atoms: C_2  and  C_3
REMARK    3  A    between atoms: C_3  and  C_4
REMARK    4  A    between atoms: C_4  and  S_5
REMARK    5  A    between atoms: S_5  and  C_6
REMARK    6  A    between atoms: C_12  and  C_14
REMARK    7  A    between atoms: C_14  and  S_15
REMARK    8  A    between atoms: S_15  and  C_16
REMARK    9  A    between atoms: N_21  and  N_22
REMARK   10  A    between atoms: C_23  and  C_24
REMARK   11  A    between atoms: C_23  and  C_25
REMARK                            x       y       z     vdW  Elec       q    Type
REMARK                         _______ _______ _______ _____ _____    ______ ____
ROOT
ATOM      1  C   UNL     1      -0.640 -14.012  -2.906  0.00  0.00    +0.211 A 
ATOM      2  N   UNL     1       0.030 -14.900  -2.164  0.00  0.00    -0.186 NA
ATOM      3  C   UNL     1      -0.760 -15.908  -1.859  0.00  0.00    +0.232 A 
ATOM      4  N   UNL     1      -1.969 -15.672  -2.412  0.00  0.00    -0.245 N 
ATOM      5  N   UNL     1      -1.868 -14.441  -3.079  0.00  0.00    -0.144 NA
ATOM      6  N   UNL     1      -0.413 -17.013  -1.104  0.00  0.00    -0.205 N 
ATOM      7  H   UNL     1      -1.067 -17.708  -0.932  0.00  0.00    +0.177 HD
ATOM      8  H   UNL     1      -2.753 -16.241  -2.357  0.00  0.00    +0.192 HD
ENDROOT
BRANCH   6   9
ATOM      9  N   UNL     1       0.884 -17.130  -0.588  0.00  0.00    -0.184 NA
ATOM     10  C   UNL     1       1.246 -18.218   0.021  0.00  0.00    +0.063 C 
ATOM     11  C   UNL     1       2.571 -18.277   0.736  0.00  0.00    +0.068 C 
BRANCH  10  12
ATOM     12  C   UNL     1       0.359 -19.395   0.015  0.00  0.00    -0.002 A 
ATOM     13  C   UNL     1      -0.390 -19.699  -1.137  0.00  0.00    +0.010 A 
ATOM     14  C   UNL     1      -1.214 -20.777  -1.167  0.00  0.00    +0.009 A 
ATOM     15  C   UNL     1      -1.327 -21.609  -0.037  0.00  0.00    -0.018 A 
ATOM     16  C   UNL     1      -2.172 -22.731  -0.046  0.00  0.00    +0.008 A 
ATOM     17  C   UNL     1      -2.261 -23.517   1.062  0.00  0.00    +0.001 A 
ATOM     18  C   UNL     1      -1.525 -23.227   2.209  0.00  0.00    +0.001 A 
ATOM     19  C   UNL     1      -0.696 -22.149   2.255  0.00  0.00    +0.008 A 
ATOM     20  C   UNL     1      -0.577 -21.314   1.130  0.00  0.00    -0.017 A 
ATOM     21  C   UNL     1       0.273 -20.198   1.141  0.00  0.00    +0.018 A 
ENDBRANCH  10  12
ENDBRANCH   6   9
BRANCH   1  22
ATOM     22  S   UNL     1       0.017 -12.506  -3.543  0.00  0.00    -0.075 S 
BRANCH  22  23
ATOM     23  C   UNL     1      -1.374 -11.765  -4.441  0.00  0.00    +0.173 C 
BRANCH  23  30
ATOM     24  C   UNL     1      -1.000  -6.166  -7.515  0.00  0.00    +0.160 A 
ATOM     25  N   UNL     1      -0.046  -6.786  -6.836  0.00  0.00    -0.133 NA
ATOM     26  N   UNL     1      -0.244  -7.895  -6.269  0.00  0.00    -0.125 NA
ATOM     27  C   UNL     1      -1.416  -8.508  -6.317  0.00  0.00    +0.189 A 
ATOM     28  S   UNL     1      -2.343  -7.330  -7.296  0.00  0.00    -0.024 S 
ATOM     29  N   UNL     1      -1.816  -9.720  -5.760  0.00  0.00    -0.263 N 
ATOM     30  C   UNL     1      -0.942 -10.453  -5.043  0.00  0.00    +0.229 C 
ATOM     31  O   UNL     1       0.194 -10.057  -4.883  0.00  0.00    -0.275 OA
ATOM     32  H   UNL     1      -2.724 -10.036  -5.888  0.00  0.00    +0.157 HD
BRANCH  24  33
ATOM     33  S   UNL     1      -0.960  -4.631  -8.379  0.00  0.00    -0.097 S 
BRANCH  33  34
ATOM     34  C   UNL     1       0.740  -4.042  -8.150  0.00  0.00    +0.076 C 
BRANCH  34  35
ATOM     35  C   UNL     1       0.915  -2.698  -8.860  0.00  0.00    +0.011 C 
BRANCH  35  37
ATOM     36  C   UNL     1       2.523  -0.858  -9.377  0.00  0.00    +0.004 C 
ATOM     37  C   UNL     1       2.349  -2.202  -8.667  0.00  0.00    -0.003 C 
ENDBRANCH  35  37
ENDBRANCH  34  35
ENDBRANCH  33  34
ENDBRANCH  24  33
ENDBRANCH  23  30
ENDBRANCH  22  23
ENDBRANCH   1  22
TORSDOF 9
