REMARK  Name = ZINC64131762
REMARK  7 active torsions:
REMARK  status: ('A' for Active; 'I' for Inactive)
REMARK    1  A    between atoms: C_1  and  N_2
REMARK    2  A    between atoms: N_2  and  C_3
REMARK    3  A    between atoms: C_3  and  C_4
REMARK    4  A    between atoms: C_15  and  C_17
REMARK    5  A    between atoms: C_17  and  C_18
REMARK    6  A    between atoms: N_25  and  C_26
REMARK    7  A    between atoms: C_26  and  C_27
REMARK                            x       y       z     vdW  Elec       q    Type
REMARK                         _______ _______ _______ _____ _____    ______ ____
ROOT
ATOM      1  C   UNL     1      -0.037   0.115  -2.474  0.00  0.00    +0.124 C 
ENDROOT
BRANCH   1   2
ATOM      2  C   UNL     1       0.098  -0.879  -3.630  0.00  0.00    +0.152 C 
ATOM      3  C   UNL     1      -1.159  -1.694  -3.735  0.00  0.00    +0.231 C 
ATOM      4  O   UNL     1      -1.671  -2.107  -2.716  0.00  0.00    -0.274 OA
ATOM      5  N   UNL     1      -1.738  -1.984  -4.905  0.00  0.00    -0.313 N 
ATOM      6  C   UNL     1      -1.224  -1.505  -6.185  0.00  0.00    +0.119 C 
ATOM      7  C   UNL     1       0.231  -1.058  -6.031  0.00  0.00    +0.104 C 
ATOM      8  N   UNL     1       0.324  -0.144  -4.881  0.00  0.00    -0.285 NA
ATOM      9  H   UNL     1      -2.535  -2.536  -4.904  0.00  0.00    +0.149 HD
BRANCH   8  10
ATOM     10  C   UNL     1       1.621   0.544  -4.862  0.00  0.00    +0.123 C 
BRANCH  10  11
ATOM     11  C   UNL     1       1.659   1.577  -5.958  0.00  0.00    +0.005 A 
ATOM     12  C   UNL     1       2.302   1.297  -7.150  0.00  0.00    +0.008 A 
ATOM     13  C   UNL     1       2.337   2.244  -8.156  0.00  0.00    +0.003 A 
ATOM     14  C   UNL     1       1.730   3.472  -7.974  0.00  0.00    +0.041 A 
ATOM     15  C   UNL     1       1.085   3.755  -6.782  0.00  0.00    +0.159 A 
ATOM     16  C   UNL     1       1.045   2.803  -5.774  0.00  0.00    +0.163 A 
ATOM     17  F   UNL     1       0.412   3.075  -4.612  0.00  0.00    -0.202 F 
ATOM     18  F   UNL     1       0.492   4.955  -6.603  0.00  0.00    -0.202 F 
ENDBRANCH  10  11
ENDBRANCH   8  10
ENDBRANCH   1   2
BRANCH   1  21
ATOM     19  C   UNL     1      -0.559   1.475  -0.044  0.00  0.00    +0.132 C 
ATOM     20  N   UNL     1      -0.348   0.026  -0.022  0.00  0.00    -0.301 N 
ATOM     21  C   UNL     1      -0.098  -0.636  -1.170  0.00  0.00    +0.217 C 
ATOM     22  O   UNL     1       0.076  -1.836  -1.152  0.00  0.00    -0.276 OA
BRANCH  20  23
ATOM     23  C   UNL     1      -0.408  -0.705   1.246  0.00  0.00    +0.154 C 
BRANCH  23  24
ATOM     24  C   UNL     1      -1.844  -1.168   1.501  0.00  0.00    +0.192 C 
ATOM     25  N   UNL     1      -2.307  -2.008   0.389  0.00  0.00    -0.362 N 
ATOM     26  C   UNL     1      -3.340  -1.421  -0.141  0.00  0.00    +0.060 A 
ATOM     27  C   UNL     1      -4.219  -1.771  -1.266  0.00  0.00    +0.030 A 
ATOM     28  C   UNL     1      -5.236  -0.951  -1.596  0.00  0.00    +0.040 A 
ATOM     29  C   UNL     1      -5.500   0.247  -0.902  0.00  0.00    +0.125 A 
ATOM     30  C   UNL     1      -4.753   0.660   0.145  0.00  0.00    +0.065 A 
ATOM     31  C   UNL     1      -3.619  -0.156   0.592  0.00  0.00    +0.063 A 
ATOM     32  N   UNL     1      -2.746  -0.010   1.550  0.00  0.00    -0.362 N 
ATOM     33  F   UNL     1      -6.540   1.012  -1.300  0.00  0.00    -0.205 F 
ATOM     34  H   UNL     1      -1.914  -2.847   0.102  0.00  0.00    +0.162 HD
ATOM     35  H   UNL     1      -2.700   0.727   2.179  0.00  0.00    +0.162 HD
ENDBRANCH  23  24
ENDBRANCH  20  23
ENDBRANCH   1  21
TORSDOF 6
