REMARK  Name = ZINC36596793
REMARK  17 active torsions:
REMARK  status: ('A' for Active; 'I' for Inactive)
REMARK    1  A    between atoms: C_1  and  C_2
REMARK    2  A    between atoms: C_5  and  C_7
REMARK    3  A    between atoms: C_7  and  N_8
REMARK    4  A    between atoms: N_8  and  C_9
REMARK    5  A    between atoms: C_9  and  C_11
REMARK    6  A    between atoms: C_9  and  C_18
REMARK    7  A    between atoms: C_15  and  O_17
REMARK    8  A    between atoms: N_20  and  C_21
REMARK    9  A    between atoms: C_21  and  C_22
REMARK   10  A    between atoms: C_21  and  C_23
REMARK   11  A    between atoms: C_21  and  C_24
REMARK   12  A    between atoms: C_24  and  C_25
REMARK   13  A    between atoms: C_25  and  C_26
REMARK   14  A    between atoms: C_25  and  C_27
REMARK   15  A    between atoms: C_25  and  C_28
REMARK   16  A    between atoms: C_29  and  C_31
REMARK   17  A    between atoms: C_32  and  C_33
REMARK                            x       y       z     vdW  Elec       q    Type
REMARK                         _______ _______ _______ _____ _____    ______ ____
ROOT
ATOM      1  C   UNL     1       2.601  -1.577  -1.947  0.00  0.00    +0.194 C 
ENDROOT
BRANCH   1   2
ATOM      2  C   UNL     1       3.583  -1.870  -0.842  0.00  0.00    -0.015 A 
ATOM      3  C   UNL     1       3.465  -1.227   0.376  0.00  0.00    +0.006 A 
ATOM      4  C   UNL     1       4.364  -1.494   1.392  0.00  0.00    +0.004 A 
ATOM      5  C   UNL     1       5.384  -2.405   1.191  0.00  0.00    +0.045 A 
ATOM      6  C   UNL     1       5.505  -3.052  -0.030  0.00  0.00    +0.117 A 
ATOM      7  C   UNL     1       4.597  -2.786  -1.046  0.00  0.00    +0.051 A 
BRANCH   6   8
ATOM      8  O   UNL     1       6.506  -3.948  -0.230  0.00  0.00    -0.507 OA
ATOM      9  H   UNL     1       6.274  -4.857   0.005  0.00  0.00    +0.292 HD
ENDBRANCH   6   8
ENDBRANCH   1   2
BRANCH   1  10
ATOM     10  C   UNL     1       2.913  -0.232  -2.551  0.00  0.00    +0.239 C 
ATOM     11  O   UNL     1       2.106   0.670  -2.471  0.00  0.00    -0.273 OA
ATOM     12  N   UNL     1       4.087  -0.031  -3.180  0.00  0.00    -0.308 N 
ATOM     13  H   UNL     1       4.733  -0.753  -3.244  0.00  0.00    +0.149 HD
BRANCH  12  14
ATOM     14  C   UNL     1       4.390   1.276  -3.768  0.00  0.00    +0.030 C 
ATOM     15  C   UNL     1       3.443   1.540  -4.941  0.00  0.00    +0.031 C 
ATOM     16  C   UNL     1       4.206   2.366  -2.710  0.00  0.00    +0.031 C 
BRANCH  14  17
ATOM     17  C   UNL     1       5.836   1.289  -4.267  0.00  0.00    +0.031 C 
BRANCH  17  18
ATOM     18  C   UNL     1       6.719   0.506  -3.292  0.00  0.00    -0.036 C 
ATOM     19  C   UNL     1       6.685  -0.980  -3.654  0.00  0.00    +0.010 C 
ATOM     20  C   UNL     1       8.157   1.020  -3.382  0.00  0.00    +0.010 C 
ATOM     21  C   UNL     1       6.197   0.697  -1.867  0.00  0.00    +0.010 C 
ENDBRANCH  17  18
ENDBRANCH  14  17
ENDBRANCH  12  14
ENDBRANCH   1  10
BRANCH   1  22
ATOM     22  N   UNL     1       1.242  -1.564  -1.401  0.00  0.00    -0.268 N 
ATOM     23  C   UNL     1       0.671  -2.713  -0.987  0.00  0.00    +0.293 C 
ATOM     24  O   UNL     1       1.285  -3.760  -1.067  0.00  0.00    -0.260 OA
BRANCH  23  25
ATOM     25  C   UNL     1      -0.658  -2.700  -0.454  0.00  0.00    -0.003 C 
ATOM     26  C   UNL     1      -1.747  -2.690  -0.017  0.00  0.00    -0.057 C 
BRANCH  26  27
ATOM     27  C   UNL     1      -3.076  -2.678   0.517  0.00  0.00    +0.025 A 
ATOM     28  C   UNL     1      -3.787  -1.477   0.604  0.00  0.00    +0.017 A 
ATOM     29  C   UNL     1      -5.066  -1.473   1.119  0.00  0.00    +0.001 A 
ATOM     30  C   UNL     1      -5.647  -2.654   1.548  0.00  0.00    +0.000 A 
ATOM     31  C   UNL     1      -4.950  -3.847   1.465  0.00  0.00    +0.001 A 
ATOM     32  C   UNL     1      -3.672  -3.868   0.947  0.00  0.00    +0.017 A 
ENDBRANCH  26  27
ENDBRANCH  23  25
BRANCH  22  33
ATOM     33  C   UNL     1       0.503  -0.303  -1.306  0.00  0.00    +0.184 C 
BRANCH  33  38
ATOM     34  C   UNL     1      -0.584   1.454  -5.907  0.00  0.00    +0.086 C 
ATOM     35  C   UNL     1      -0.701   0.714  -4.599  0.00  0.00    +0.102 A 
ATOM     36  C   UNL     1      -1.735  -0.060  -4.224  0.00  0.00    +0.045 A 
ATOM     37  C   UNL     1      -1.430  -0.553  -2.934  0.00  0.00    +0.046 A 
ATOM     38  C   UNL     1      -0.229  -0.050  -2.599  0.00  0.00    +0.122 A 
ATOM     39  O   UNL     1       0.210   0.712  -3.613  0.00  0.00    -0.463 OA
ENDBRANCH  33  38
ENDBRANCH  22  33
ENDBRANCH   1  22
TORSDOF 11
