REMARK  Name = ZINC21221650
REMARK  7 active torsions:
REMARK  status: ('A' for Active; 'I' for Inactive)
REMARK    1  A    between atoms: C_1  and  C_2
REMARK    2  A    between atoms: C_2  and  O_3
REMARK    3  A    between atoms: O_3  and  C_4
REMARK    4  A    between atoms: C_6  and  C_14
REMARK    5  A    between atoms: C_8  and  N_11
REMARK    6  A    between atoms: C_9  and  O_10
REMARK    7  A    between atoms: C_19  and  C_24
REMARK                            x       y       z     vdW  Elec       q    Type
REMARK                         _______ _______ _______ _____ _____    ______ ____
ROOT
ATOM      1  C   UNL     1       2.535  -0.194  -2.991  0.00  0.00    +0.136 C 
ATOM      2  C   UNL     1       1.771   0.319  -1.793  0.00  0.00    +0.036 C 
ATOM      3  C   UNL     1       0.749  -0.304  -1.185  0.00  0.00    +0.017 C 
ATOM      4  C   UNL     1       0.084   0.318   0.032  0.00  0.00    +0.059 C 
ATOM      5  C   UNL     1       0.104   1.841  -0.088  0.00  0.00    +0.032 C 
ATOM      6  C   UNL     1       1.569   2.283  -0.173  0.00  0.00    +0.088 C 
ATOM      7  C   UNL     1       2.216   1.579  -1.328  0.00  0.00    +0.163 C 
ATOM      8  O   UNL     1       3.157   2.110  -1.885  0.00  0.00    -0.292 OA
ATOM      9  N   UNL     1       0.226  -1.497  -1.569  0.00  0.00    -0.316 N 
ATOM     10  C   UNL     1       0.975  -2.626  -1.881  0.00  0.00    +0.052 A 
ATOM     11  C   UNL     1       0.911  -3.787  -1.129  0.00  0.00    +0.025 A 
ATOM     12  C   UNL     1       1.649  -4.890  -1.522  0.00  0.00    +0.002 A 
ATOM     13  C   UNL     1       2.439  -4.834  -2.656  0.00  0.00    +0.002 A 
ATOM     14  C   UNL     1       2.517  -3.669  -3.398  0.00  0.00    +0.025 A 
ATOM     15  C   UNL     1       1.796  -2.556  -2.996  0.00  0.00    +0.049 A 
ATOM     16  N   UNL     1       1.926  -1.331  -3.648  0.00  0.00    -0.331 N 
ATOM     17  H   UNL     1      -0.864  -1.619  -1.650  0.00  0.00    +0.152 HD
ATOM     18  H   UNL     1       1.556  -1.236  -4.680  0.00  0.00    +0.147 HD
ENDROOT
BRANCH   5  19
ATOM     19  C   UNL     1      -0.546   2.457   1.124  0.00  0.00    -0.043 A 
ATOM     20  C   UNL     1      -0.029   2.215   2.384  0.00  0.00    +0.005 A 
ATOM     21  C   UNL     1      -0.621   2.784   3.495  0.00  0.00    +0.020 A 
ATOM     22  C   UNL     1      -1.738   3.588   3.348  0.00  0.00    +0.041 A 
ATOM     23  C   UNL     1      -2.258   3.825   2.088  0.00  0.00    +0.020 A 
ATOM     24  C   UNL     1      -1.662   3.260   0.977  0.00  0.00    +0.005 A 
ATOM     25 CL   UNL     1      -2.486   4.298   4.744  0.00  0.00    -0.084 Cl
ENDBRANCH   5  19
BRANCH   1  28
ATOM     26  C   UNL     1       6.292  -0.259  -2.596  0.00  0.00    +0.164 A 
ATOM     27  C   UNL     1       5.020   0.102  -3.010  0.00  0.00    +0.055 A 
ATOM     28  C   UNL     1       3.918  -0.588  -2.539  0.00  0.00    -0.017 A 
ATOM     29  C   UNL     1       4.081  -1.634  -1.650  0.00  0.00    +0.042 A 
ATOM     30  C   UNL     1       5.348  -2.002  -1.237  0.00  0.00    +0.171 A 
ATOM     31  C   UNL     1       6.457  -1.316  -1.706  0.00  0.00    +0.189 A 
BRANCH  30  32
ATOM     32  N   UNL     1       5.520  -3.127  -0.291  0.00  0.00    +0.060 N 
ATOM     33  O   UNL     1       4.545  -3.731   0.121  0.00  0.00    -0.126 OA
ATOM     34  O   UNL     1       6.636  -3.449   0.077  0.00  0.00    -0.126 OA
ENDBRANCH  30  32
BRANCH  31  35
ATOM     35  O   UNL     1       7.703  -1.674  -1.297  0.00  0.00    -0.502 OA
ATOM     36  H   UNL     1       7.832  -2.509  -0.593  0.00  0.00    +0.292 HD
ENDBRANCH  31  35
BRANCH  26  37
ATOM     37  O   UNL     1       7.377   0.418  -3.058  0.00  0.00    -0.488 OA
BRANCH  37  39
ATOM     38  C   UNL     1       8.462   2.129  -4.376  0.00  0.00    +0.048 C 
ATOM     39  C   UNL     1       7.132   1.492  -3.969  0.00  0.00    +0.226 C 
ENDBRANCH  37  39
ENDBRANCH  26  37
ENDBRANCH   1  28
TORSDOF 6
