REMARK  Name = ZINC01434735
REMARK  10 active torsions:
REMARK  status: ('A' for Active; 'I' for Inactive)
REMARK    1  A    between atoms: C_1  and  C_2
REMARK    2  A    between atoms: C_3  and  C_27
REMARK    3  A    between atoms: C_4  and  C_20
REMARK    4  A    between atoms: C_10  and  C_15
REMARK    5  A    between atoms: C_24  and  O_26
REMARK    6  A    between atoms: C_27  and  O_29
REMARK    7  A    between atoms: O_29  and  C_30
REMARK    8  A    between atoms: C_30  and  C_31
REMARK    9  A    between atoms: C_34  and  O_37
REMARK   10  A    between atoms: O_37  and  C_38
REMARK                            x       y       z     vdW  Elec       q    Type
REMARK                         _______ _______ _______ _____ _____    ______ ____
ROOT
ATOM      1  C   UNL     1       5.739   7.202   3.756  0.00  0.00    +0.061 C 
ATOM      2  C   UNL     1       4.996   7.115   2.448  0.00  0.00    +0.016 C 
ATOM      3  C   UNL     1       5.540   7.638   1.335  0.00  0.00    +0.065 C 
ATOM      4  C   UNL     1       4.826   7.575   0.017  0.00  0.00    +0.092 C 
ATOM      5  C   UNL     1       3.735   6.534   0.041  0.00  0.00    +0.024 C 
ATOM      6  C   UNL     1       3.260   6.061   1.212  0.00  0.00    +0.016 C 
ATOM      7  N   UNL     1       3.773   6.505   2.401  0.00  0.00    -0.321 N 
ATOM      8  C   UNL     1       2.156   5.032   1.244  0.00  0.00    +0.060 C 
ATOM      9  C   UNL     1       2.248   4.142   0.003  0.00  0.00    +0.039 C 
ATOM     10  C   UNL     1       2.146   5.031  -1.242  0.00  0.00    +0.088 C 
ATOM     11  C   UNL     1       3.227   6.075  -1.187  0.00  0.00    +0.162 C 
ATOM     12  O   UNL     1       3.669   6.530  -2.223  0.00  0.00    -0.292 OA
ATOM     13  H   UNL     1       3.192   6.367   3.324  0.00  0.00    +0.152 HD
ENDROOT
BRANCH   4  14
ATOM     14  C   UNL     1       4.218   8.922  -0.281  0.00  0.00    -0.032 A 
ATOM     15  C   UNL     1       3.259   9.449   0.565  0.00  0.00    +0.005 A 
ATOM     16  C   UNL     1       2.704  10.687   0.298  0.00  0.00    +0.004 A 
ATOM     17  C   UNL     1       3.099  11.395  -0.821  0.00  0.00    +0.045 A 
ATOM     18  C   UNL     1       4.056  10.866  -1.674  0.00  0.00    +0.117 A 
ATOM     19  C   UNL     1       4.616   9.626  -1.400  0.00  0.00    +0.050 A 
BRANCH  18  20
ATOM     20  O   UNL     1       4.446  11.561  -2.775  0.00  0.00    -0.507 OA
ATOM     21  H   UNL     1       5.205  11.140  -3.450  0.00  0.00    +0.292 HD
ENDBRANCH  18  20
ENDBRANCH   4  14
BRANCH   9  22
ATOM     22  C   UNL     1       1.115   3.148   0.008  0.00  0.00    -0.006 A 
ATOM     23  C   UNL     1       1.169   1.793   0.001  0.00  0.00    +0.011 A 
ATOM     24  C   UNL     1      -0.013   1.076   0.008  0.00  0.00    +0.008 A 
ATOM     25  C   UNL     1      -1.190   1.748   0.017  0.00  0.00    +0.045 A 
ATOM     26  S   UNL     1      -0.644   3.448   0.027  0.00  0.00    -0.101 S 
ENDBRANCH   9  22
BRANCH   3  27
ATOM     27  C   UNL     1       6.809   8.257   1.408  0.00  0.00    +0.338 C 
ATOM     28  O   UNL     1       7.398   8.314   2.471  0.00  0.00    -0.245 OA
BRANCH  27  29
ATOM     29  O   UNL     1       7.367   8.786   0.299  0.00  0.00    -0.457 OA
BRANCH  29  30
ATOM     30  C   UNL     1       8.650   9.397   0.446  0.00  0.00    +0.268 C 
BRANCH  30  31
ATOM     31  C   UNL     1       9.110   9.927  -0.888  0.00  0.00    -0.010 A 
ATOM     32  C   UNL     1       9.852   9.121  -1.732  0.00  0.00    +0.010 A 
ATOM     33  C   UNL     1      10.270   9.603  -2.957  0.00  0.00    +0.046 A 
ATOM     34  C   UNL     1       9.954  10.900  -3.336  0.00  0.00    +0.120 A 
ATOM     35  C   UNL     1       9.215  11.708  -2.484  0.00  0.00    +0.046 A 
ATOM     36  C   UNL     1       8.794  11.220  -1.262  0.00  0.00    +0.010 A 
BRANCH  34  37
ATOM     37  O   UNL     1      10.369  11.378  -4.538  0.00  0.00    -0.495 OA
ATOM     38  C   UNL     1      11.126  10.490  -5.363  0.00  0.00    +0.277 C 
ENDBRANCH  34  37
ENDBRANCH  30  31
ENDBRANCH  29  30
ENDBRANCH  27  29
ENDBRANCH   3  27
TORSDOF 8
