REMARK  Name = ZINC10752720
REMARK  4 active torsions:
REMARK  status: ('A' for Active; 'I' for Inactive)
REMARK    1  A    between atoms: C_3  and  S_6
REMARK    2  A    between atoms: S_6  and  N_9
REMARK    3  A    between atoms: C_13  and  C_16
REMARK    4  A    between atoms: C_21  and  C_24
REMARK                            x       y       z     vdW  Elec       q    Type
REMARK                         _______ _______ _______ _____ _____    ______ ____
ROOT
ATOM      1  C   UNL     1      -1.083   6.259   4.446  0.00  0.00    +0.223 C 
ATOM      2  O   UNL     1      -1.188   7.396   4.039  0.00  0.00    -0.275 OA
ATOM      3  N   UNL     1      -0.475   6.018   5.625  0.00  0.00    -0.264 N 
ATOM      4  C   UNL     1       0.032   7.073   6.373  0.00  0.00    +0.165 A 
ATOM      5  N   UNL     1       0.649   7.048   7.540  0.00  0.00    -0.225 NA
ATOM      6  C   UNL     1       1.075   8.162   8.116  0.00  0.00    +0.080 A 
ATOM      7  C   UNL     1       0.863   9.362   7.496  0.00  0.00    +0.076 A 
ATOM      8  S   UNL     1       0.016   8.824   6.016  0.00  0.00    -0.060 S 
ATOM      9  H   UNL     1      -0.392   5.108   5.950  0.00  0.00    +0.157 HD
ENDROOT
BRANCH   6  10
ATOM     10  C   UNL     1       1.771   8.109   9.425  0.00  0.00    +0.001 A 
ATOM     11  C   UNL     1       2.218   9.284  10.027  0.00  0.00    +0.011 A 
ATOM     12  C   UNL     1       2.860   9.230  11.248  0.00  0.00    +0.016 A 
ATOM     13  C   UNL     1       3.070   8.010  11.868  0.00  0.00    +0.018 A 
ATOM     14  C   UNL     1       2.634   6.840  11.271  0.00  0.00    +0.016 A 
ATOM     15  C   UNL     1       1.986   6.884  10.054  0.00  0.00    +0.011 A 
ATOM     16 BR   UNL     1       3.957   7.943  13.537  0.00  0.00    -0.050 Br
ENDBRANCH   6  10
BRANCH   1  21
ATOM     17  N   UNL     1      -2.913   4.548   1.635  0.00  0.00    -0.175 NA
ATOM     18  C   UNL     1      -3.889   3.717   2.353  0.00  0.00    +0.109 C 
ATOM     19  C   UNL     1      -3.233   3.192   3.639  0.00  0.00    +0.018 C 
ATOM     20  C   UNL     1      -2.696   4.374   4.450  0.00  0.00    +0.015 C 
ATOM     21  C   UNL     1      -1.634   5.115   3.635  0.00  0.00    +0.091 C 
ATOM     22  C   UNL     1      -2.268   5.658   2.350  0.00  0.00    +0.122 C 
BRANCH  17  23
ATOM     23  S   UNL     1      -2.551   4.243   0.049  0.00  0.00    +0.067 S 
ATOM     24  O   UNL     1      -2.072   5.463  -0.500  0.00  0.00    -0.152 OA
ATOM     25  O   UNL     1      -3.664   3.547  -0.496  0.00  0.00    -0.152 OA
BRANCH  23  28
ATOM     26  C   UNL     1      -0.013   1.076   0.008  0.00  0.00    +0.010 A 
ATOM     27  C   UNL     1      -1.213   1.761   0.017  0.00  0.00    +0.036 A 
ATOM     28  C   UNL     1      -1.196   3.116   0.030  0.00  0.00    +0.143 A 
ATOM     29  S   UNL     1       0.555   3.464   0.015  0.00  0.00    -0.077 S 
ATOM     30  C   UNL     1       1.146   1.780   0.001  0.00  0.00    +0.047 A 
ENDBRANCH  23  28
ENDBRANCH  17  23
ENDBRANCH   1  21
TORSDOF 4
