REMARK  Name = ZINC35729892
REMARK  5 active torsions:
REMARK  status: ('A' for Active; 'I' for Inactive)
REMARK    1  A    between atoms: C_1  and  O_2
REMARK    2  A    between atoms: O_2  and  C_3
REMARK    3  A    between atoms: C_7  and  C_11
REMARK    4  A    between atoms: C_8  and  O_9
REMARK    5  A    between atoms: O_9  and  C_10
REMARK                            x       y       z     vdW  Elec       q    Type
REMARK                         _______ _______ _______ _____ _____    ______ ____
ROOT
ATOM      1  C   UNL     1      -2.549  -4.175   0.017  0.00  0.00    +0.069 C 
ATOM      2  C   UNL     1      -3.297  -4.662   1.265  0.00  0.00    +0.095 C 
ATOM      3  N   UNL     1      -3.591  -6.097   1.135  0.00  0.00    -0.301 NA
ATOM      4  C   UNL     1      -4.614  -6.344   0.112  0.00  0.00    +0.086 C 
ATOM      5  C   UNL     1      -5.983  -5.836   0.609  0.00  0.00    +0.038 C 
ATOM      6  C   UNL     1      -6.614  -7.111   1.216  0.00  0.00    +0.038 C 
ATOM      7  C   UNL     1      -5.948  -8.256   0.508  0.00  0.00    -0.042 A 
ATOM      8  C   UNL     1      -4.791  -7.811  -0.129  0.00  0.00    -0.018 A 
ATOM      9  C   UNL     1      -3.992  -8.680  -0.857  0.00  0.00    +0.006 A 
ATOM     10  C   UNL     1      -4.394 -10.008  -0.922  0.00  0.00    +0.000 A 
ATOM     11  C   UNL     1      -5.538 -10.448  -0.292  0.00  0.00    +0.000 A 
ATOM     12  C   UNL     1      -6.343  -9.583   0.439  0.00  0.00    +0.004 A 
ATOM     13  C   UNL     1      -4.236  -5.631  -1.159  0.00  0.00    +0.046 A 
ATOM     14  C   UNL     1      -3.302  -4.652  -1.200  0.00  0.00    -0.008 A 
ATOM     15  C   UNL     1      -3.207  -4.207  -2.572  0.00  0.00    +0.004 A 
ATOM     16  C   UNL     1      -2.427  -3.233  -3.205  0.00  0.00    +0.010 A 
ATOM     17  C   UNL     1      -2.605  -3.076  -4.557  0.00  0.00    +0.001 A 
ATOM     18  C   UNL     1      -3.513  -3.840  -5.273  0.00  0.00    +0.002 A 
ATOM     19  C   UNL     1      -4.297  -4.809  -4.674  0.00  0.00    +0.026 A 
ATOM     20  C   UNL     1      -4.138  -4.991  -3.302  0.00  0.00    +0.047 A 
ATOM     21  N   UNL     1      -4.740  -5.840  -2.414  0.00  0.00    -0.356 N 
ATOM     22  H   UNL     1      -5.421  -6.493  -2.641  0.00  0.00    +0.166 HD
ATOM     23  H   UNL     1      -2.752  -6.622   0.941  0.00  0.00    +0.123 HD
ENDROOT
BRANCH   1  28
ATOM     24  C   UNL     1      -1.201  -0.638   0.010  0.00  0.00    +0.162 A 
ATOM     25  C   UNL     1      -2.374   0.099   0.019  0.00  0.00    +0.049 A 
ATOM     26  C   UNL     1      -3.596  -0.546   0.027  0.00  0.00    +0.004 A 
ATOM     27  C   UNL     1      -3.652  -1.928   0.026  0.00  0.00    +0.008 A 
ATOM     28  C   UNL     1      -2.485  -2.669   0.017  0.00  0.00    +0.007 A 
ATOM     29  C   UNL     1      -1.257  -2.028   0.003  0.00  0.00    +0.165 A 
BRANCH  24  31
ATOM     30  C   UNL     1      -0.017   1.425   0.010  0.00  0.00    +0.277 C 
ATOM     31  O   UNL     1       0.002  -0.004   0.002  0.00  0.00    -0.491 OA
ENDBRANCH  24  31
BRANCH  29  32
ATOM     32  O   UNL     1      -0.108  -2.756  -0.012  0.00  0.00    -0.491 OA
ATOM     33  C   UNL     1       0.452  -3.110   1.254  0.00  0.00    +0.277 C 
ENDBRANCH  29  32
ENDBRANCH   1  28
TORSDOF 3
