REMARK  Name = ZINC40551107
REMARK  13 active torsions:
REMARK  status: ('A' for Active; 'I' for Inactive)
REMARK    1  A    between atoms: C_1  and  C_2
REMARK    2  A    between atoms: C_4  and  C_39
REMARK    3  A    between atoms: C_5  and  C_9
REMARK    4  A    between atoms: C_6  and  O_8
REMARK    5  A    between atoms: N_17  and  C_32
REMARK    6  A    between atoms: C_18  and  C_20
REMARK    7  A    between atoms: C_24  and  O_26
REMARK    8  A    between atoms: O_26  and  C_27
REMARK    9  A    between atoms: C_27  and  C_28
REMARK   10  A    between atoms: C_28  and  C_29
REMARK   11  A    between atoms: C_29  and  C_30
REMARK   12  A    between atoms: C_29  and  C_31
REMARK   13  A    between atoms: C_32  and  C_33
REMARK                            x       y       z     vdW  Elec       q    Type
REMARK                         _______ _______ _______ _____ _____    ______ ____
ROOT
ATOM      1  C   UNL     1      -0.190  -4.646  -0.107  0.00  0.00    +0.102 A 
ATOM      2  C   UNL     1       0.061  -5.312   1.097  0.00  0.00    +0.035 A 
ATOM      3  C   UNL     1       0.108  -6.656   0.782  0.00  0.00    +0.126 A 
ATOM      4  N   UNL     1      -0.111  -6.738  -0.564  0.00  0.00    -0.272 N 
ATOM      5  H   UNL     1      -0.136  -7.562  -1.075  0.00  0.00    +0.189 HD
ATOM      6  N   UNL     1      -0.286  -5.561  -1.051  0.00  0.00    -0.173 NA
ATOM      7  C   UNL     1       0.369  -7.415   2.010  0.00  0.00    +0.266 C 
ATOM      8  O   UNL     1       0.468  -8.626   2.070  0.00  0.00    -0.268 OA
ATOM      9  N   UNL     1       0.482  -6.582   3.060  0.00  0.00    -0.283 N 
ATOM     10  C   UNL     1       0.301  -5.207   2.579  0.00  0.00    +0.141 C 
ENDROOT
BRANCH   1  15
ATOM     11  C   UNL     1      -0.734   1.048  -0.810  0.00  0.00    +0.044 C 
ATOM     12  C   UNL     1      -0.589  -0.440  -0.625  0.00  0.00    -0.047 A 
ATOM     13  C   UNL     1      -1.528  -1.297  -1.172  0.00  0.00    +0.007 A 
ATOM     14  C   UNL     1      -1.403  -2.662  -1.007  0.00  0.00    -0.037 A 
ATOM     15  C   UNL     1      -0.328  -3.179  -0.287  0.00  0.00    +0.047 A 
ATOM     16  C   UNL     1       0.618  -2.312   0.264  0.00  0.00    +0.127 A 
ATOM     17  C   UNL     1       0.484  -0.944   0.086  0.00  0.00    +0.049 A 
ATOM     18  C   UNL     1      -2.428  -3.591  -1.604  0.00  0.00    +0.044 C 
BRANCH  16  19
ATOM     19  O   UNL     1       1.669  -2.808   0.968  0.00  0.00    -0.506 OA
ATOM     20  H   UNL     1       2.473  -2.926   0.443  0.00  0.00    +0.292 HD
ENDBRANCH  16  19
ENDBRANCH   1  15
BRANCH  10  21
ATOM     21  C   UNL     1      -0.889  -4.575   3.253  0.00  0.00    -0.019 A 
ATOM     22  C   UNL     1      -2.054  -5.300   3.421  0.00  0.00    +0.006 A 
ATOM     23  C   UNL     1      -3.148  -4.723   4.040  0.00  0.00    +0.004 A 
ATOM     24  C   UNL     1      -3.079  -3.419   4.491  0.00  0.00    +0.045 A 
ATOM     25  C   UNL     1      -1.911  -2.689   4.324  0.00  0.00    +0.121 A 
ATOM     26  C   UNL     1      -0.813  -3.273   3.709  0.00  0.00    +0.051 A 
BRANCH  25  27
ATOM     27  O   UNL     1      -1.841  -1.407   4.768  0.00  0.00    -0.492 OA
BRANCH  27  28
ATOM     28  C   UNL     1      -3.008  -0.873   5.397  0.00  0.00    +0.229 C 
BRANCH  28  29
ATOM     29  C   UNL     1      -2.741   0.571   5.826  0.00  0.00    +0.044 C 
BRANCH  29  30
ATOM     30  C   UNL     1      -3.990   1.142   6.500  0.00  0.00    -0.014 C 
ATOM     31  C   UNL     1      -4.264   0.378   7.797  0.00  0.00    +0.007 C 
ATOM     32  C   UNL     1      -3.767   2.622   6.817  0.00  0.00    +0.007 C 
ENDBRANCH  29  30
ENDBRANCH  28  29
ENDBRANCH  27  28
ENDBRANCH  25  27
ENDBRANCH  10  21
BRANCH   9  33
ATOM     33  C   UNL     1       0.742  -6.979   4.446  0.00  0.00    +0.140 C 
BRANCH  33  34
ATOM     34  C   UNL     1       2.251  -7.013   4.693  0.00  0.00    +0.136 C 
ATOM     35  C   UNL     1       2.549  -7.465   6.145  0.00  0.00    +0.035 C 
ATOM     36  C   UNL     1       3.983  -8.040   5.987  0.00  0.00    +0.031 C 
ATOM     37  C   UNL     1       3.940  -8.642   4.566  0.00  0.00    +0.160 C 
ATOM     38  O   UNL     1       2.872  -8.002   3.856  0.00  0.00    -0.375 OA
ENDBRANCH  33  34
ENDBRANCH   9  33
TORSDOF 9
