REMARK  Name = ZINC09255117
REMARK  13 active torsions:
REMARK  status: ('A' for Active; 'I' for Inactive)
REMARK    1  A    between atoms: C_1  and  C_2
REMARK    2  A    between atoms: C_2  and  N_53
REMARK    3  A    between atoms: C_3  and  C_4
REMARK    4  A    between atoms: C_3  and  N_53
REMARK    5  A    between atoms: C_5  and  C_6
REMARK    6  A    between atoms: C_5  and  N_53
REMARK    7  A    between atoms: C_10  and  C_14
REMARK    8  A    between atoms: C_11  and  C_13
REMARK    9  A    between atoms: C_15  and  S_17
REMARK   10  A    between atoms: S_17  and  C_18
REMARK   11  A    between atoms: C_20  and  C_27
REMARK   12  A    between atoms: C_21  and  C_23
REMARK   13  A    between atoms: C_23  and  C_24
REMARK                            x       y       z     vdW  Elec       q    Type
REMARK                         _______ _______ _______ _____ _____    ______ ____
ROOT
ATOM      1  C   UNL     1       0.590  -7.629  -3.003  0.00  0.00    +0.115 A 
ATOM      2  N   UNL     1       0.114  -8.777  -3.444  0.00  0.00    -0.227 NA
ATOM      3  C   UNL     1      -0.285  -9.704  -2.596  0.00  0.00    +0.113 A 
ATOM      4  C   UNL     1      -0.212  -9.505  -1.200  0.00  0.00    +0.043 A 
ATOM      5  C   UNL     1      -0.694 -10.616  -0.398  0.00  0.00    -0.029 A 
ATOM      6  C   UNL     1      -1.149 -11.718  -1.013  0.00  0.00    -0.008 A 
ATOM      7  S   UNL     1      -0.966 -11.335  -2.745  0.00  0.00    -0.074 S 
ATOM      8  C   UNL     1      -1.686 -12.980  -0.389  0.00  0.00    +0.052 C 
ATOM      9  C   UNL     1      -0.679 -10.533   1.106  0.00  0.00    +0.045 C 
ATOM     10  C   UNL     1       0.304  -8.244  -0.790  0.00  0.00    +0.115 A 
ATOM     11  N   UNL     1       0.681  -7.371  -1.711  0.00  0.00    -0.227 NA
ENDROOT
BRANCH   1  12
ATOM     12  C   UNL     1       1.038  -6.587  -3.996  0.00  0.00    -0.001 C 
BRANCH  12  13
ATOM     13  N   UNL     1       2.476  -6.785  -4.277  0.00  0.00    +0.384 N 
ATOM     14  H   UNL     1       2.987  -6.826  -3.387  0.00  0.00    -0.081 HD
BRANCH  13  16
ATOM     15  C   UNL     1       1.887  -8.052  -6.316  0.00  0.00    -0.017 C 
ATOM     16  C   UNL     1       2.678  -8.054  -5.007  0.00  0.00    -0.082 C 
ENDBRANCH  13  16
BRANCH  13  17
ATOM     17  C   UNL     1       2.994  -5.654  -5.076  0.00  0.00    -0.082 C 
ATOM     18  C   UNL     1       4.521  -5.748  -5.130  0.00  0.00    -0.017 C 
ENDBRANCH  13  17
ENDBRANCH  12  13
ENDBRANCH   1  12
BRANCH  10  19
ATOM     19  S   UNL     1       0.447  -7.852   0.922  0.00  0.00    -0.042 S 
BRANCH  19  20
ATOM     20  C   UNL     1       1.127  -6.231   0.809  0.00  0.00    +0.141 A 
ATOM     21  N   UNL     1       1.433  -5.533  -0.269  0.00  0.00    -0.237 NA
ATOM     22  C   UNL     1       1.941  -4.320  -0.175  0.00  0.00    +0.050 A 
ATOM     23  C   UNL     1       2.144  -3.798   1.059  0.00  0.00    +0.022 A 
ATOM     24  S   UNL     1       1.575  -5.144   2.087  0.00  0.00    -0.065 S 
ATOM     25  C   UNL     1       2.287  -3.531  -1.412  0.00  0.00    +0.066 C 
BRANCH  23  26
ATOM     26  C   UNL     1       2.703  -2.455   1.455  0.00  0.00    +0.139 C 
BRANCH  26  27
ATOM     27  C   UNL     1       1.579  -1.458   1.570  0.00  0.00    +0.215 C 
ATOM     28  O   UNL     1       0.437  -1.803   1.352  0.00  0.00    -0.276 OA
ATOM     29  N   UNL     1       1.843  -0.182   1.915  0.00  0.00    -0.329 N 
ATOM     30  H   UNL     1       2.756   0.094   2.090  0.00  0.00    +0.145 HD
ATOM     31  H   UNL     1       1.119   0.461   1.985  0.00  0.00    +0.145 HD
ENDBRANCH  26  27
ENDBRANCH  23  26
ENDBRANCH  19  20
ENDBRANCH  10  19
TORSDOF 8
