REMARK  Name = ZINC06193647
REMARK  9 active torsions:
REMARK  status: ('A' for Active; 'I' for Inactive)
REMARK    1  A    between atoms: C_1  and  C_2
REMARK    2  A    between atoms: C_2  and  N_63
REMARK    3  A    between atoms: C_3  and  C_4
REMARK    4  A    between atoms: C_3  and  N_63
REMARK    5  A    between atoms: C_10  and  C_12
REMARK    6  A    between atoms: C_10  and  C_27
REMARK    7  A    between atoms: C_10  and  N_63
REMARK    8  A    between atoms: N_31  and  C_32
REMARK    9  A    between atoms: C_32  and  C_33
REMARK                            x       y       z     vdW  Elec       q    Type
REMARK                         _______ _______ _______ _____ _____    ______ ____
ROOT
ATOM      1  C   UNL     1       4.243   0.103  -2.518  0.00  0.00    +0.039 C 
ENDROOT
BRANCH   1   2
ATOM      2  C   UNL     1       5.018   1.125  -1.726  0.00  0.00    +0.011 A 
ATOM      3  C   UNL     1       6.342   1.303  -1.965  0.00  0.00    +0.017 A 
ATOM      4  C   UNL     1       7.065   2.306  -1.183  0.00  0.00    +0.002 A 
ATOM      5  C   UNL     1       8.431   2.536  -1.391  0.00  0.00    +0.059 A 
ATOM      6  C   UNL     1       9.086   3.482  -0.634  0.00  0.00    +0.167 A 
ATOM      7  C   UNL     1       8.392   4.212   0.339  0.00  0.00    +0.168 A 
ATOM      8  C   UNL     1       7.043   3.993   0.549  0.00  0.00    +0.075 A 
ATOM      9  C   UNL     1       6.368   3.042  -0.206  0.00  0.00    +0.053 A 
ATOM     10  N   UNL     1       5.021   2.809  -0.009  0.00  0.00    -0.322 N 
ATOM     11  H   UNL     1       4.527   3.333   0.684  0.00  0.00    +0.169 HD
ATOM     12  C   UNL     1       4.365   1.889  -0.737  0.00  0.00    +0.251 A 
ATOM     13  O   UNL     1       3.176   1.709  -0.536  0.00  0.00    -0.268 OA
ATOM     14  O   UNL     1       9.265   5.072   0.939  0.00  0.00    -0.453 OA
ATOM     15  C   UNL     1      10.578   4.578   0.616  0.00  0.00    +0.466 C 
ATOM     16  O   UNL     1      10.389   3.891  -0.636  0.00  0.00    -0.453 OA
ENDBRANCH   1   2
BRANCH   1  17
ATOM     17  C   UNL     1       4.963  -0.182  -3.811  0.00  0.00    +0.143 A 
ATOM     18  N   UNL     1       5.925  -1.053  -3.995  0.00  0.00    -0.115 NA
ATOM     19  N   UNL     1       6.277  -1.000  -5.234  0.00  0.00    -0.023 NA
ATOM     20  N   UNL     1       5.565  -0.118  -5.844  0.00  0.00    -0.044 NA
ATOM     21  N   UNL     1       4.739   0.405  -5.001  0.00  0.00    -0.226 N 
BRANCH  21  22
ATOM     22  C   UNL     1       3.747   1.444  -5.287  0.00  0.00    +0.182 C 
BRANCH  22  23
ATOM     23  C   UNL     1       4.410   2.796  -5.248  0.00  0.00    -0.026 A 
ATOM     24  C   UNL     1       4.470   3.502  -4.061  0.00  0.00    +0.008 A 
ATOM     25  C   UNL     1       5.082   4.741  -4.023  0.00  0.00    +0.038 A 
ATOM     26  C   UNL     1       5.627   5.279  -5.176  0.00  0.00    +0.123 A 
ATOM     27  C   UNL     1       5.562   4.573  -6.366  0.00  0.00    +0.038 A 
ATOM     28  C   UNL     1       4.954   3.332  -6.400  0.00  0.00    +0.008 A 
ATOM     29  F   UNL     1       6.222   6.491  -5.141  0.00  0.00    -0.205 F 
ENDBRANCH  22  23
ENDBRANCH  21  22
ENDBRANCH   1  17
BRANCH   1  30
ATOM     30  N   UNL     1       4.129  -1.158  -1.756  0.00  0.00    +0.392 N 
ATOM     31  H   UNL     1       4.131  -1.947  -2.414  0.00  0.00    -0.080 HD
BRANCH  30  33
ATOM     32  C   UNL     1       6.520  -1.662  -1.653  0.00  0.00    -0.017 C 
ATOM     33  C   UNL     1       5.278  -1.299  -0.836  0.00  0.00    -0.080 C 
ENDBRANCH  30  33
BRANCH  30  34
ATOM     34  C   UNL     1       2.865  -1.174  -0.991  0.00  0.00    -0.042 C 
BRANCH  34  35
ATOM     35  C   UNL     1       1.712  -1.252  -1.959  0.00  0.00    -0.064 A 
ATOM     36  C   UNL     1       1.238  -2.484  -2.371  0.00  0.00    +0.002 A 
ATOM     37  C   UNL     1       0.181  -2.555  -3.259  0.00  0.00    +0.000 A 
ATOM     38  C   UNL     1      -0.402  -1.396  -3.735  0.00  0.00    +0.000 A 
ATOM     39  C   UNL     1       0.072  -0.164  -3.322  0.00  0.00    +0.000 A 
ATOM     40  C   UNL     1       1.129  -0.093  -2.434  0.00  0.00    +0.002 A 
ENDBRANCH  34  35
ENDBRANCH  30  34
ENDBRANCH   1  30
TORSDOF 8
