REMARK  Name = ZINC02325311
REMARK  8 active torsions:
REMARK  status: ('A' for Active; 'I' for Inactive)
REMARK    1  A    between atoms: C_1  and  C_2
REMARK    2  A    between atoms: C_5  and  C_8
REMARK    3  A    between atoms: C_10  and  C_33
REMARK    4  A    between atoms: C_11  and  S_20
REMARK    5  A    between atoms: S_20  and  C_21
REMARK    6  A    between atoms: C_21  and  C_22
REMARK    7  A    between atoms: N_24  and  C_25
REMARK    8  A    between atoms: C_30  and  C_31
REMARK                            x       y       z     vdW  Elec       q    Type
REMARK                         _______ _______ _______ _____ _____    ______ ____
ROOT
ATOM      1  C   UNL     1       0.052  -4.232  -0.004  0.00  0.00    +0.097 C 
ATOM      2  C   UNL     1      -1.173  -4.755   0.687  0.00  0.00    +0.069 C 
ATOM      3  C   UNL     1      -1.111  -5.236   1.957  0.00  0.00    +0.080 C 
ATOM      4  N   UNL     1       0.090  -5.259   2.628  0.00  0.00    -0.311 N 
ATOM      5  C   UNL     1       1.272  -5.190   1.942  0.00  0.00    +0.016 C 
ATOM      6  C   UNL     1       1.308  -4.708   0.682  0.00  0.00    +0.024 C 
ATOM      7  C   UNL     1       2.519  -4.632  -0.028  0.00  0.00    +0.162 C 
ATOM      8  O   UNL     1       2.517  -4.206  -1.166  0.00  0.00    -0.292 OA
ATOM      9  C   UNL     1       3.817  -5.067   0.595  0.00  0.00    +0.080 C 
ATOM     10  C   UNL     1       3.728  -4.880   2.113  0.00  0.00    +0.014 C 
ATOM     11  C   UNL     1       2.527  -5.672   2.627  0.00  0.00    +0.051 C 
ATOM     12  H   UNL     1       0.099  -5.323   3.596  0.00  0.00    +0.152 HD
ENDROOT
BRANCH   1  17
ATOM     13  C   UNL     1      -0.066   1.545   0.048  0.00  0.00    +0.044 C 
ATOM     14  C   UNL     1      -0.035   0.039   0.034  0.00  0.00    -0.050 A 
ATOM     15  C   UNL     1      -0.024  -0.642  -1.169  0.00  0.00    +0.003 A 
ATOM     16  C   UNL     1       0.005  -2.024  -1.181  0.00  0.00    +0.005 A 
ATOM     17  C   UNL     1       0.023  -2.725   0.009  0.00  0.00    -0.035 A 
ATOM     18  C   UNL     1       0.012  -2.045   1.213  0.00  0.00    +0.005 A 
ATOM     19  C   UNL     1      -0.012  -0.663   1.225  0.00  0.00    +0.003 A 
ENDBRANCH   1  17
BRANCH   2  20
ATOM     20  C   UNL     1      -2.428  -4.745  -0.003  0.00  0.00    +0.098 C 
ATOM     21  N   UNL     1      -3.424  -4.738  -0.549  0.00  0.00    -0.191 NA
ENDBRANCH   2  20
BRANCH   3  22
ATOM     22  S   UNL     1      -2.570  -5.833   2.744  0.00  0.00    -0.100 S 
BRANCH  22  23
ATOM     23  C   UNL     1      -2.001  -6.358   4.384  0.00  0.00    +0.171 C 
BRANCH  23  24
ATOM     24  C   UNL     1      -3.167  -6.896   5.173  0.00  0.00    +0.227 C 
ATOM     25  O   UNL     1      -4.273  -6.923   4.676  0.00  0.00    -0.275 OA
ATOM     26  N   UNL     1      -2.980  -7.348   6.428  0.00  0.00    -0.285 N 
ATOM     27  H   UNL     1      -2.084  -7.401   6.797  0.00  0.00    +0.155 HD
BRANCH  26  28
ATOM     28  C   UNL     1      -4.079  -7.740   7.202  0.00  0.00    +0.038 A 
ATOM     29  C   UNL     1      -5.338  -7.217   6.936  0.00  0.00    +0.023 A 
ATOM     30  C   UNL     1      -6.421  -7.606   7.700  0.00  0.00    +0.003 A 
ATOM     31  C   UNL     1      -6.253  -8.514   8.729  0.00  0.00    +0.020 A 
ATOM     32  C   UNL     1      -5.000  -9.036   8.997  0.00  0.00    +0.046 A 
ATOM     33  C   UNL     1      -3.913  -8.655   8.232  0.00  0.00    -0.011 A 
ATOM     34  C   UNL     1      -2.550  -9.229   8.519  0.00  0.00    +0.047 C 
ATOM     35 CL   UNL     1      -4.793 -10.176  10.290  0.00  0.00    -0.083 Cl
ENDBRANCH  26  28
ENDBRANCH  23  24
ENDBRANCH  22  23
ENDBRANCH   3  22
TORSDOF 6
