REMARK  Name = ZINC12599107
REMARK  7 active torsions:
REMARK  status: ('A' for Active; 'I' for Inactive)
REMARK    1  A    between atoms: C_1  and  C_2
REMARK    2  A    between atoms: C_2  and  C_4
REMARK    3  A    between atoms: C_7  and  O_27
REMARK    4  A    between atoms: C_8  and  C_10
REMARK    5  A    between atoms: C_10  and  C_11
REMARK    6  A    between atoms: C_22  and  C_24
REMARK    7  A    between atoms: O_27  and  C_28
REMARK                            x       y       z     vdW  Elec       q    Type
REMARK                         _______ _______ _______ _____ _____    ______ ____
ROOT
ATOM      1  C   UNL     1      -1.300   6.844   1.257  0.00  0.00    +0.221 C 
ATOM      2  O   UNL     1      -2.361   7.393   1.465  0.00  0.00    -0.275 OA
ATOM      3  N   UNL     1      -1.221   5.852   0.349  0.00  0.00    -0.285 N 
ATOM      4  C   UNL     1       0.068   5.258  -0.022  0.00  0.00    +0.144 C 
ATOM      5  C   UNL     1      -0.061   3.756  -0.070  0.00  0.00    -0.027 A 
ATOM      6  C   UNL     1       1.105   3.009  -0.176  0.00  0.00    +0.005 A 
ATOM      7  C   UNL     1       1.051   1.632  -0.236  0.00  0.00    +0.000 A 
ATOM      8  C   UNL     1      -0.174   0.991  -0.195  0.00  0.00    +0.000 A 
ATOM      9  C   UNL     1      -1.333   1.732  -0.096  0.00  0.00    +0.004 A 
ATOM     10  C   UNL     1      -1.281   3.119  -0.023  0.00  0.00    -0.040 A 
ATOM     11  C   UNL     1      -2.585   3.861   0.108  0.00  0.00    +0.067 C 
ATOM     12  C   UNL     1      -2.425   5.321  -0.312  0.00  0.00    +0.166 C 
ENDROOT
BRANCH  12  13
ATOM     13  C   UNL     1      -3.634   6.112   0.119  0.00  0.00    +0.231 C 
ATOM     14  O   UNL     1      -4.194   5.843   1.160  0.00  0.00    -0.274 OA
ATOM     15  N   UNL     1      -4.091   7.117  -0.653  0.00  0.00    -0.328 N 
ATOM     16  H   UNL     1      -3.643   7.332  -1.486  0.00  0.00    +0.145 HD
ATOM     17  H   UNL     1      -4.869   7.626  -0.376  0.00  0.00    +0.145 HD
ENDBRANCH  12  13
BRANCH   1  18
ATOM     18  C   UNL     1      -0.069   7.272   2.015  0.00  0.00    +0.134 C 
BRANCH  18  23
ATOM     19  C   UNL     1      -0.576  10.734   3.461  0.00  0.00    +0.018 A 
ATOM     20  C   UNL     1      -1.090  10.429   4.728  0.00  0.00    +0.015 A 
ATOM     21  C   UNL     1      -1.267   9.126   5.098  0.00  0.00    +0.046 A 
ATOM     22  C   UNL     1      -0.942   8.098   4.219  0.00  0.00    +0.124 A 
ATOM     23  C   UNL     1      -0.425   8.390   2.961  0.00  0.00    +0.004 A 
ATOM     24  C   UNL     1      -0.244   9.700   2.578  0.00  0.00    +0.019 A 
BRANCH  19  26
ATOM     25  C   UNL     1      -0.745  13.246   4.014  0.00  0.00    +0.091 C 
ATOM     26  C   UNL     1      -0.386  12.134   3.061  0.00  0.00    +0.160 C 
ATOM     27  O   UNL     1       0.059  12.396   1.964  0.00  0.00    -0.292 OA
ENDBRANCH  19  26
BRANCH  22  28
ATOM     28  O   UNL     1      -1.125   6.807   4.591  0.00  0.00    -0.495 OA
ATOM     29  C   UNL     1      -1.660   6.578   5.897  0.00  0.00    +0.277 C 
ENDBRANCH  22  28
ENDBRANCH  18  23
ENDBRANCH   1  18
TORSDOF 5
