REMARK  Name = ZINC21224084
REMARK  4 active torsions:
REMARK  status: ('A' for Active; 'I' for Inactive)
REMARK    1  A    between atoms: C_5  and  C_7
REMARK    2  A    between atoms: C_12  and  C_22
REMARK    3  A    between atoms: C_25  and  O_31
REMARK    4  A    between atoms: C_26  and  N_28
REMARK                            x       y       z     vdW  Elec       q    Type
REMARK                         _______ _______ _______ _____ _____    ______ ____
ROOT
ATOM      1  C   UNL     1       2.654   1.186   0.512  0.00  0.00    +0.033 C 
ATOM      2  C   UNL     1       2.532   0.353  -0.762  0.00  0.00    +0.059 C 
ATOM      3  C   UNL     1       3.800  -0.457  -0.975  0.00  0.00    +0.017 C 
ATOM      4  C   UNL     1       4.502  -0.910   0.077  0.00  0.00    +0.036 C 
ATOM      5  C   UNL     1       5.761  -1.742   0.011  0.00  0.00    +0.136 C 
ATOM      6  N   UNL     1       6.355  -1.826  -1.307  0.00  0.00    -0.331 N 
ATOM      7  C   UNL     1       5.687  -2.450  -2.359  0.00  0.00    +0.049 A 
ATOM      8  C   UNL     1       6.176  -3.607  -2.942  0.00  0.00    +0.025 A 
ATOM      9  C   UNL     1       5.454  -4.217  -3.954  0.00  0.00    +0.002 A 
ATOM     10  C   UNL     1       4.253  -3.679  -4.379  0.00  0.00    +0.002 A 
ATOM     11  C   UNL     1       3.770  -2.512  -3.810  0.00  0.00    +0.025 A 
ATOM     12  C   UNL     1       4.502  -1.891  -2.813  0.00  0.00    +0.052 A 
ATOM     13  N   UNL     1       4.129  -0.664  -2.275  0.00  0.00    -0.316 N 
ATOM     14  C   UNL     1       4.079  -0.618   1.395  0.00  0.00    +0.163 C 
ATOM     15  O   UNL     1       4.720  -1.061   2.328  0.00  0.00    -0.292 OA
ATOM     16  C   UNL     1       2.869   0.220   1.683  0.00  0.00    +0.088 C 
ATOM     17  H   UNL     1       7.349  -1.393  -1.490  0.00  0.00    +0.147 HD
ATOM     18  H   UNL     1       4.112   0.175  -2.987  0.00  0.00    +0.152 HD
ENDROOT
BRANCH   1  23
ATOM     19  C   UNL     1      -0.979   2.049   1.072  0.00  0.00    +0.000 A 
ATOM     20  C   UNL     1      -0.930   3.429   1.127  0.00  0.00    +0.001 A 
ATOM     21  C   UNL     1       0.277   4.085   0.977  0.00  0.00    +0.020 A 
ATOM     22  C   UNL     1       1.438   3.359   0.778  0.00  0.00    +0.044 A 
ATOM     23  C   UNL     1       1.390   1.978   0.729  0.00  0.00    -0.025 A 
ATOM     24  C   UNL     1       0.182   1.323   0.878  0.00  0.00    +0.005 A 
ATOM     25 CL   UNL     1       2.955   4.182   0.589  0.00  0.00    -0.083 Cl
ENDBRANCH   1  23
BRANCH   5  26
ATOM     26  C   UNL     1       5.437  -3.137   0.479  0.00  0.00    -0.020 A 
ATOM     27  C   UNL     1       4.536  -3.911  -0.229  0.00  0.00    +0.009 A 
ATOM     28  C   UNL     1       4.242  -5.193   0.195  0.00  0.00    +0.048 A 
ATOM     29  C   UNL     1       4.843  -5.699   1.339  0.00  0.00    +0.147 A 
ATOM     30  C   UNL     1       5.742  -4.918   2.050  0.00  0.00    +0.168 A 
ATOM     31  C   UNL     1       6.037  -3.639   1.619  0.00  0.00    +0.042 A 
BRANCH  30  32
ATOM     32  N   UNL     1       6.384  -5.455   3.271  0.00  0.00    +0.060 N 
ATOM     33  O   UNL     1       7.173  -4.768   3.896  0.00  0.00    -0.126 OA
ATOM     34  O   UNL     1       6.124  -6.582   3.651  0.00  0.00    -0.126 OA
ENDBRANCH  30  32
BRANCH  29  35
ATOM     35  O   UNL     1       4.552  -6.957   1.760  0.00  0.00    -0.504 OA
ATOM     36  H   UNL     1       5.028  -7.357   2.667  0.00  0.00    +0.292 HD
ENDBRANCH  29  35
ENDBRANCH   5  26
TORSDOF 4
