REMARK  Name = ZINC14953083
REMARK  9 active torsions:
REMARK  status: ('A' for Active; 'I' for Inactive)
REMARK    1  A    between atoms: C_1  and  C_2
REMARK    2  A    between atoms: C_3  and  C_8
REMARK    3  A    between atoms: N_5  and  C_7
REMARK    4  A    between atoms: C_8  and  N_50
REMARK    5  A    between atoms: C_9  and  C_10
REMARK    6  A    between atoms: C_9  and  N_50
REMARK    7  A    between atoms: C_10  and  O_26
REMARK    8  A    between atoms: N_14  and  C_17
REMARK    9  A    between atoms: C_17  and  C_18
REMARK                            x       y       z     vdW  Elec       q    Type
REMARK                         _______ _______ _______ _____ _____    ______ ____
ROOT
ATOM      1  C   UNL     1       4.112   1.641  -3.418  0.00  0.00    +0.127 C 
ATOM      2  C   UNL     1       3.995   0.187  -3.880  0.00  0.00    +0.044 C 
ATOM      3  C   UNL     1       2.596  -0.326  -3.516  0.00  0.00    +0.022 C 
ATOM      4  C   UNL     1       2.493  -0.414  -1.991  0.00  0.00    +0.108 C 
ATOM      5  N   UNL     1       2.905   0.844  -1.381  0.00  0.00    -0.295 N 
ATOM      6  C   UNL     1       3.650   1.764  -1.995  0.00  0.00    +0.246 C 
ATOM      7  O   UNL     1       3.970   2.754  -1.371  0.00  0.00    -0.273 OA
ENDROOT
BRANCH   1   8
ATOM      8  O   UNL     1       3.304   2.472  -4.254  0.00  0.00    -0.381 OA
ATOM      9  H   UNL     1       3.334   3.410  -4.024  0.00  0.00    +0.211 HD
ENDBRANCH   1   8
BRANCH   1  10
ATOM     10  C   UNL     1       5.572   2.088  -3.518  0.00  0.00    -0.037 C 
BRANCH  10  11
ATOM     11  N   UNL     1       6.046   1.887  -4.901  0.00  0.00    +0.384 N 
ATOM     12  H   UNL     1       5.881   0.912  -5.177  0.00  0.00    -0.085 HD
ATOM     13  H   UNL     1       5.529   2.513  -5.530  0.00  0.00    -0.085 HD
BRANCH  11  14
ATOM     14  C   UNL     1       7.488   2.183  -4.997  0.00  0.00    -0.043 C 
BRANCH  14  17
ATOM     15  C   UNL     1       7.095   4.208  -7.402  0.00  0.00    +0.068 C 
ATOM     16  C   UNL     1       7.770   2.862  -7.480  0.00  0.00    +0.061 A 
ATOM     17  C   UNL     1       7.942   1.969  -6.418  0.00  0.00    -0.024 A 
ATOM     18  C   UNL     1       8.585   0.877  -6.892  0.00  0.00    +0.110 A 
ATOM     19  N   UNL     1       8.816   1.075  -8.207  0.00  0.00    -0.274 N 
ATOM     20  N   UNL     1       8.298   2.330  -8.552  0.00  0.00    -0.177 NA
ATOM     21  C   UNL     1       9.489   0.141  -9.114  0.00  0.00    +0.172 C 
ENDBRANCH  14  17
ENDBRANCH  11  14
ENDBRANCH  10  11
ENDBRANCH   1  10
BRANCH   5  22
ATOM     22  C   UNL     1       2.480   1.112  -0.005  0.00  0.00    +0.143 C 
BRANCH  22  23
ATOM     23  C   UNL     1       1.157   1.832  -0.019  0.00  0.00    -0.027 A 
ATOM     24  C   UNL     1       1.123   3.214  -0.052  0.00  0.00    +0.008 A 
ATOM     25  C   UNL     1      -0.090   3.877  -0.064  0.00  0.00    +0.041 A 
ATOM     26  C   UNL     1      -1.272   3.157  -0.043  0.00  0.00    +0.158 A 
ATOM     27  C   UNL     1      -1.238   1.772  -0.015  0.00  0.00    +0.159 A 
ATOM     28  C   UNL     1      -0.022   1.111   0.003  0.00  0.00    +0.046 A 
ATOM     29  F   UNL     1      -2.391   1.067  -0.000  0.00  0.00    -0.202 F 
ATOM     30  F   UNL     1      -2.458   3.805  -0.054  0.00  0.00    -0.202 F 
ENDBRANCH  22  23
ENDBRANCH   5  22
TORSDOF 7
