REMARK  Name = ZINC06133501
REMARK  2 active torsions:
REMARK  status: ('A' for Active; 'I' for Inactive)
REMARK    1  A    between atoms: C_10  and  N_11
REMARK    2  A    between atoms: N_11  and  N_12
REMARK                            x       y       z     vdW  Elec       q    Type
REMARK                         _______ _______ _______ _____ _____    ______ ____
ROOT
ATOM      1  N   UNL     1      -4.893   3.979   0.454  0.00  0.00    -0.249 N 
ATOM      2  C   UNL     1      -6.067   3.356   0.850  0.00  0.00    +0.164 A 
ATOM      3  C   UNL     1      -7.327   4.110   0.860  0.00  0.00    +0.029 A 
ATOM      4  C   UNL     1      -7.383   5.451   0.480  0.00  0.00    +0.012 A 
ATOM      5  C   UNL     1      -8.588   6.117   0.507  0.00  0.00    +0.001 A 
ATOM      6  C   UNL     1      -9.748   5.468   0.907  0.00  0.00    +0.001 A 
ATOM      7  C   UNL     1      -9.718   4.144   1.286  0.00  0.00    +0.012 A 
ATOM      8  C   UNL     1      -8.508   3.451   1.267  0.00  0.00    +0.031 A 
ATOM      9  C   UNL     1      -8.414   2.041   1.661  0.00  0.00    +0.185 A 
ATOM     10  N   UNL     1      -9.290   1.151   2.079  0.00  0.00    -0.128 NA
ATOM     11  N   UNL     1      -8.690   0.033   2.296  0.00  0.00    -0.136 NA
ATOM     12  C   UNL     1      -7.414   0.149   2.029  0.00  0.00    +0.249 A 
ATOM     13  N   UNL     1      -7.194   1.420   1.619  0.00  0.00    -0.198 N 
ATOM     14  N   UNL     1      -6.048   2.100   1.207  0.00  0.00    -0.147 NA
ATOM     15  H   UNL     1      -4.905   4.911   0.184  0.00  0.00    +0.172 HD
ENDROOT
BRANCH   1  16
ATOM     16  N   UNL     1      -3.689   3.263   0.443  0.00  0.00    -0.265 N 
ATOM     17  H   UNL     1      -3.676   2.331   0.712  0.00  0.00    +0.170 HD
BRANCH  16  27
ATOM     18  C   UNL     1       1.177   1.782   0.000  0.00  0.00    +0.000 A 
ATOM     19  C   UNL     1      -0.013   1.076   0.008  0.00  0.00    +0.001 A 
ATOM     20  C   UNL     1      -1.219   1.748   0.017  0.00  0.00    +0.010 A 
ATOM     21  C   UNL     1      -1.231   3.140   0.030  0.00  0.00    +0.000 A 
ATOM     22  C   UNL     1      -0.028   3.848   0.024  0.00  0.00    -0.038 A 
ATOM     23  C   UNL     1       1.170   3.166   0.009  0.00  0.00    +0.004 A 
ATOM     24  C   UNL     1      -0.057   5.353   0.035  0.00  0.00    +0.040 C 
ATOM     25  C   UNL     1      -1.254   5.857  -0.768  0.00  0.00    +0.034 C 
ATOM     26  C   UNL     1      -2.517   5.171  -0.327  0.00  0.00    -0.002 C 
ATOM     27  C   UNL     1      -2.508   3.890   0.044  0.00  0.00    +0.048 C 
ENDBRANCH  16  27
ENDBRANCH   1  16
TORSDOF 2
