REMARK  Name = ZINC40148926
REMARK  3 active torsions:
REMARK  status: ('A' for Active; 'I' for Inactive)
REMARK    1  A    between atoms: C_10  and  C_12
REMARK    2  A    between atoms: C_18  and  C_20
REMARK    3  A    between atoms: C_26  and  C_29
REMARK                            x       y       z     vdW  Elec       q    Type
REMARK                         _______ _______ _______ _____ _____    ______ ____
ROOT
ATOM      1  C   UNL     1       7.310   0.593   0.961  0.00  0.00    +0.219 C 
ATOM      2  O   UNL     1       6.699   0.527   2.006  0.00  0.00    -0.275 OA
ATOM      3  N   UNL     1       8.581   0.150   0.893  0.00  0.00    -0.301 N 
ATOM      4  C   UNL     1       9.300   0.130  -0.388  0.00  0.00    +0.108 C 
ATOM      5  C   UNL     1      10.623   0.884  -0.223  0.00  0.00    +0.020 C 
ATOM      6  C   UNL     1      11.406   0.282   0.946  0.00  0.00    +0.016 C 
ATOM      7  C   UNL     1      10.598   0.437   2.237  0.00  0.00    +0.093 C 
ATOM      8  C   UNL     1       9.276  -0.316   2.101  0.00  0.00    +0.120 C 
ENDROOT
BRANCH   7   9
ATOM      9  C   UNL     1      11.383  -0.126   3.393  0.00  0.00    +0.223 C 
ATOM     10  O   UNL     1      10.930  -1.042   4.046  0.00  0.00    -0.275 OA
ATOM     11  N   UNL     1      12.590   0.389   3.701  0.00  0.00    -0.270 N 
ATOM     12  C   UNL     1      13.363  -0.198   4.703  0.00  0.00    +0.125 A 
ATOM     13  C   UNL     1      14.555   0.402   5.093  0.00  0.00    +0.045 A 
ATOM     14  C   UNL     1      15.313  -0.191   6.088  0.00  0.00    +0.025 A 
ATOM     15  C   UNL     1      14.850  -1.369   6.660  0.00  0.00    +0.059 A 
ATOM     16  C   UNL     1      13.656  -1.909   6.223  0.00  0.00    +0.132 A 
ATOM     17  N   UNL     1      12.953  -1.318   5.276  0.00  0.00    -0.239 NA
ATOM     18 CL   UNL     1      15.762  -2.154   7.912  0.00  0.00    -0.082 Cl
ATOM     19  H   UNL     1      12.921   1.167   3.227  0.00  0.00    +0.156 HD
ENDBRANCH   7   9
BRANCH   1  25
ATOM     20  C   UNL     1       5.130   1.024  -0.140  0.00  0.00    +0.087 C 
ATOM     21  C   UNL     1       4.457   1.611  -1.382  0.00  0.00    +0.013 C 
ATOM     22  C   UNL     1       4.818   3.093  -1.505  0.00  0.00    +0.001 C 
ATOM     23  C   UNL     1       6.336   3.240  -1.629  0.00  0.00    +0.001 C 
ATOM     24  C   UNL     1       7.008   2.653  -0.386  0.00  0.00    +0.013 C 
ATOM     25  C   UNL     1       6.648   1.171  -0.263  0.00  0.00    +0.087 C 
BRANCH  20  35
ATOM     26  C   UNL     1       1.756  -4.564   0.579  0.00  0.00    +0.000 A 
ATOM     27  C   UNL     1       3.091  -4.519   0.222  0.00  0.00    +0.002 A 
ATOM     28  C   UNL     1       3.739  -3.308   0.110  0.00  0.00    +0.024 A 
ATOM     29  C   UNL     1       3.053  -2.117   0.357  0.00  0.00    +0.039 A 
ATOM     30  C   UNL     1       1.716  -2.172   0.714  0.00  0.00    -0.024 A 
ATOM     31  C   UNL     1       1.070  -3.389   0.825  0.00  0.00    +0.005 A 
ATOM     32  C   UNL     1       1.214  -0.761   0.922  0.00  0.00    +0.056 C 
ATOM     33  C   UNL     1       2.435   0.129   0.640  0.00  0.00    +0.118 C 
ATOM     34  N   UNL     1       3.517  -0.799   0.300  0.00  0.00    -0.271 N 
ATOM     35  C   UNL     1       4.775  -0.435  -0.018  0.00  0.00    +0.224 C 
ATOM     36  O   UNL     1       5.621  -1.283  -0.208  0.00  0.00    -0.275 OA
ENDBRANCH  20  35
ENDBRANCH   1  25
TORSDOF 3
