REMARK  Name = ZINC03594659
REMARK  3 active torsions:
REMARK  status: ('A' for Active; 'I' for Inactive)
REMARK    1  A    between atoms: N_12  and  C_16
REMARK    2  A    between atoms: C_16  and  C_17
REMARK    3  A    between atoms: C_22  and  C_23
REMARK                            x       y       z     vdW  Elec       q    Type
REMARK                         _______ _______ _______ _____ _____    ______ ____
ROOT
ATOM      1  C   UNL     1       4.570  -1.360   6.333  0.00  0.00    +0.000 A 
ATOM      2  C   UNL     1       3.978  -0.568   5.367  0.00  0.00    +0.000 A 
ATOM      3  C   UNL     1       3.281  -1.152   4.328  0.00  0.00    +0.006 A 
ATOM      4  C   UNL     1       3.172  -2.531   4.248  0.00  0.00    -0.012 A 
ATOM      5  C   UNL     1       3.763  -3.324   5.217  0.00  0.00    -0.042 A 
ATOM      6  C   UNL     1       4.462  -2.734   6.257  0.00  0.00    +0.004 A 
ATOM      7  C   UNL     1       3.499  -4.784   4.916  0.00  0.00    +0.038 C 
ATOM      8  C   UNL     1       3.053  -4.819   3.437  0.00  0.00    +0.045 C 
ATOM      9  C   UNL     1       2.484  -3.409   3.237  0.00  0.00    +0.138 C 
ATOM     10  C   UNL     1       2.714  -2.927   1.828  0.00  0.00    +0.251 C 
ATOM     11  O   UNL     1       3.776  -2.788   1.262  0.00  0.00    -0.272 OA
ATOM     12  N   UNL     1       1.482  -2.681   1.332  0.00  0.00    -0.220 N 
ATOM     13  C   UNL     1       0.526  -2.950   2.231  0.00  0.00    +0.310 C 
ATOM     14  O   UNL     1      -0.663  -2.812   2.016  0.00  0.00    -0.252 OA
ATOM     15  N   UNL     1       1.030  -3.391   3.401  0.00  0.00    -0.281 N 
ATOM     16  H   UNL     1       0.530  -3.645   4.193  0.00  0.00    +0.152 HD
ENDROOT
BRANCH  12  17
ATOM     17  C   UNL     1       1.223  -2.188  -0.023  0.00  0.00    +0.154 C 
BRANCH  17  18
ATOM     18  C   UNL     1       1.204  -0.681  -0.013  0.00  0.00    -0.012 A 
ATOM     19  C   UNL     1       0.002  -0.004   0.002  0.00  0.00    +0.006 A 
ATOM     20  C   UNL     1      -0.017   1.379   0.010  0.00  0.00    +0.000 A 
ATOM     21  C   UNL     1       1.168   2.094   0.002  0.00  0.00    +0.001 A 
ATOM     22  C   UNL     1       2.377   1.430  -0.013  0.00  0.00    +0.019 A 
ATOM     23  C   UNL     1       2.404   0.034  -0.021  0.00  0.00    +0.056 A 
BRANCH  23  24
ATOM     24  C   UNL     1       3.655  -0.662  -0.037  0.00  0.00    +0.099 C 
ATOM     25  N   UNL     1       4.648  -1.214  -0.049  0.00  0.00    -0.191 NA
ENDBRANCH  23  24
ENDBRANCH  17  18
ENDBRANCH  12  17
TORSDOF 3
