REMARK  Name = ZINC32496172
REMARK  3 active torsions:
REMARK  status: ('A' for Active; 'I' for Inactive)
REMARK    1  A    between atoms: C_3  and  C_6
REMARK    2  A    between atoms: N_7  and  N_8
REMARK    3  A    between atoms: C_9  and  C_11
REMARK                            x       y       z     vdW  Elec       q    Type
REMARK                         _______ _______ _______ _____ _____    ______ ____
ROOT
ATOM      1  C   UNL     1       2.025   0.377   0.307  0.00  0.00    +0.130 C 
ATOM      2  N   UNL     1       2.888  -0.001  -0.598  0.00  0.00    -0.179 NA
ATOM      3  N   UNL     1       2.518  -0.881  -1.625  0.00  0.00    -0.206 N 
ATOM      4  C   UNL     1       1.224  -0.968  -2.021  0.00  0.00    +0.240 C 
ATOM      5  O   UNL     1       0.897  -1.676  -2.950  0.00  0.00    -0.273 OA
ATOM      6  C   UNL     1       0.210  -0.154  -1.267  0.00  0.00    +0.112 C 
ATOM      7  C   UNL     1       0.620  -0.141   0.212  0.00  0.00    +0.083 C 
ATOM      8  C   UNL     1      -0.374   0.696   0.963  0.00  0.00    -0.016 C 
ATOM      9  C   UNL     1      -1.663   0.580   0.640  0.00  0.00    -0.004 C 
ATOM     10  C   UNL     1      -2.068  -0.344  -0.434  0.00  0.00    -0.004 C 
ATOM     11  C   UNL     1      -1.183  -0.707  -1.369  0.00  0.00    -0.013 C 
ATOM     12  H   UNL     1       3.278  -1.506  -2.114  0.00  0.00    +0.177 HD
ENDROOT
BRANCH   1  14
ATOM     13  N   UNL     1       3.651   1.833   1.394  0.00  0.00    -0.202 N 
ATOM     14  C   UNL     1       2.420   1.284   1.390  0.00  0.00    +0.280 C 
ATOM     15  O   UNL     1       1.635   1.542   2.285  0.00  0.00    -0.267 OA
ATOM     16  H   UNL     1       4.359   1.601   0.585  0.00  0.00    +0.178 HD
BRANCH  13  18
ATOM     17  C   UNL     1       5.168   3.324   2.370  0.00  0.00    +0.145 C 
ATOM     18  N   UNL     1       4.028   2.700   2.428  0.00  0.00    -0.187 NA
BRANCH  17  21
ATOM     19  C   UNL     1       7.585   3.964  -0.465  0.00  0.00    +0.008 A 
ATOM     20  C   UNL     1       7.130   3.966   0.833  0.00  0.00    +0.017 A 
ATOM     21  C   UNL     1       5.875   3.443   1.091  0.00  0.00    +0.032 A 
ATOM     22  S   UNL     1       5.339   2.956  -0.541  0.00  0.00    -0.096 S 
ATOM     23  C   UNL     1       6.791   3.462  -1.447  0.00  0.00    +0.046 A 
ENDBRANCH  17  21
ENDBRANCH  13  18
ENDBRANCH   1  14
TORSDOF 3
