REMARK  Name = ZINC12507715
REMARK  6 active torsions:
REMARK  status: ('A' for Active; 'I' for Inactive)
REMARK    1  A    between atoms: C_1  and  C_2
REMARK    2  A    between atoms: C_2  and  O_3
REMARK    3  A    between atoms: O_3  and  C_4
REMARK    4  A    between atoms: C_6  and  C_13
REMARK    5  A    between atoms: C_9  and  O_10
REMARK    6  A    between atoms: O_10  and  C_11
REMARK                            x       y       z     vdW  Elec       q    Type
REMARK                         _______ _______ _______ _____ _____    ______ ____
ROOT
ATOM      1  C   UNL     1      -0.218  -4.962  -0.536  0.00  0.00    +0.209 C 
ATOM      2  N   UNL     1       0.685  -6.107  -0.761  0.00  0.00    -0.294 N 
ATOM      3  C   UNL     1       0.639  -7.156   0.146  0.00  0.00    +0.159 C 
ATOM      4  N   UNL     1      -0.620  -7.695   0.411  0.00  0.00    -0.259 N 
ATOM      5  C   UNL     1      -1.671  -6.780   0.391  0.00  0.00    +0.205 A 
ATOM      6  N   UNL     1      -1.500  -5.492  -0.060  0.00  0.00    -0.288 N 
ATOM      7  C   UNL     1      -2.719  -4.855   0.033  0.00  0.00    +0.076 A 
ATOM      8  C   UNL     1      -3.168  -3.576  -0.269  0.00  0.00    +0.077 A 
ATOM      9  C   UNL     1      -4.492  -3.245  -0.055  0.00  0.00    +0.164 A 
ATOM     10  C   UNL     1      -5.379  -4.183   0.463  0.00  0.00    +0.164 A 
ATOM     11  C   UNL     1      -4.949  -5.456   0.773  0.00  0.00    +0.079 A 
ATOM     12  C   UNL     1      -3.612  -5.805   0.560  0.00  0.00    +0.095 A 
ATOM     13  N   UNL     1      -2.905  -6.957   0.759  0.00  0.00    -0.214 NA
ATOM     14  O   UNL     1      -6.685  -3.837   0.664  0.00  0.00    -0.488 OA
ATOM     15  C   UNL     1      -6.926  -2.883   1.700  0.00  0.00    +0.232 C 
ATOM     16  C   UNL     1      -6.748  -1.465   1.180  0.00  0.00    +0.082 C 
ATOM     17  C   UNL     1      -5.314  -1.178   0.762  0.00  0.00    +0.232 C 
ATOM     18  O   UNL     1      -4.939  -1.989  -0.353  0.00  0.00    -0.488 OA
ATOM     19  N   UNL     1       1.716  -7.614   0.719  0.00  0.00    -0.375 N 
ATOM     20  H   UNL     1       1.290  -6.125  -1.519  0.00  0.00    +0.151 HD
ATOM     21  H   UNL     1       2.579  -7.220   0.516  0.00  0.00    +0.158 HD
ATOM     22  H   UNL     1      -0.754  -8.638   0.596  0.00  0.00    +0.158 HD
ATOM     23  H   UNL     1       1.655  -8.348   1.349  0.00  0.00    +0.158 HD
ENDROOT
BRANCH   1  26
ATOM     24  C   UNL     1       0.802  -1.825   1.306  0.00  0.00    +0.164 A 
ATOM     25  C   UNL     1       0.260  -2.673   0.352  0.00  0.00    +0.056 A 
ATOM     26  C   UNL     1       0.371  -4.043   0.502  0.00  0.00    -0.002 A 
ATOM     27  C   UNL     1       1.022  -4.571   1.601  0.00  0.00    +0.031 A 
ATOM     28  C   UNL     1       1.565  -3.731   2.557  0.00  0.00    +0.087 A 
ATOM     29  C   UNL     1       1.462  -2.356   2.409  0.00  0.00    +0.180 A 
ATOM     30 CL   UNL     1       2.381  -4.397   3.937  0.00  0.00    -0.080 Cl
BRANCH  29  31
ATOM     31  O   UNL     1       2.001  -1.527   3.345  0.00  0.00    -0.490 OA
ATOM     32  C   UNL     1       1.161  -1.150   4.438  0.00  0.00    +0.277 C 
ENDBRANCH  29  31
BRANCH  24  33
ATOM     33  O   UNL     1       0.693  -0.477   1.160  0.00  0.00    -0.489 OA
BRANCH  33  35
ATOM     34  C   UNL     1      -0.019   1.526   0.010  0.00  0.00    +0.048 C 
ATOM     35  C   UNL     1       0.002  -0.004   0.002  0.00  0.00    +0.226 C 
ENDBRANCH  33  35
ENDBRANCH  24  33
ENDBRANCH   1  26
TORSDOF 4
