REMARK  Name = ZINC09776894
REMARK  6 active torsions:
REMARK  status: ('A' for Active; 'I' for Inactive)
REMARK    1  A    between atoms: C_12  and  C_22
REMARK    2  A    between atoms: N_24  and  C_25
REMARK    3  A    between atoms: C_25  and  C_26
REMARK    4  A    between atoms: C_26  and  C_27
REMARK    5  A    between atoms: C_27  and  N_71
REMARK    6  A    between atoms: N_30  and  C_33
REMARK                            x       y       z     vdW  Elec       q    Type
REMARK                         _______ _______ _______ _____ _____    ______ ____
ROOT
ATOM      1  C   UNL     1       0.585  -0.664  -1.018  0.00  0.00    +0.223 C 
ATOM      2  O   UNL     1       1.089  -0.043  -1.929  0.00  0.00    -0.275 OA
ATOM      3  N   UNL     1      -0.083  -0.012  -0.046  0.00  0.00    -0.315 N 
ATOM      4  H   UNL     1      -0.547  -0.513   0.643  0.00  0.00    +0.149 HD
ENDROOT
BRANCH   1  15
ATOM      5  C   UNL     1      -4.087  -1.710  -2.179  0.00  0.00    +0.000 A 
ATOM      6  C   UNL     1      -3.107  -0.735  -2.148  0.00  0.00    +0.000 A 
ATOM      7  C   UNL     1      -1.776  -1.099  -2.160  0.00  0.00    +0.006 A 
ATOM      8  C   UNL     1      -1.411  -2.439  -2.203  0.00  0.00    -0.023 A 
ATOM      9  C   UNL     1      -2.387  -3.408  -2.229  0.00  0.00    -0.041 A 
ATOM     10  C   UNL     1      -3.726  -3.041  -2.220  0.00  0.00    +0.004 A 
ATOM     11  C   UNL     1      -2.053  -4.872  -2.259  0.00  0.00    +0.054 C 
ATOM     12  C   UNL     1      -0.675  -5.131  -2.829  0.00  0.00    +0.113 C 
ATOM     13  N   UNL     1       0.321  -4.189  -2.329  0.00  0.00    -0.289 N 
ATOM     14  C   UNL     1       0.057  -2.765  -2.222  0.00  0.00    +0.123 C 
ATOM     15  C   UNL     1       0.706  -2.166  -0.973  0.00  0.00    +0.130 C 
ATOM     16  C   UNL     1       2.160  -2.548  -0.910  0.00  0.00    -0.021 A 
ATOM     17  C   UNL     1       3.098  -1.687  -0.383  0.00  0.00    +0.005 A 
ATOM     18  C   UNL     1       4.428  -2.067  -0.324  0.00  0.00    +0.000 A 
ATOM     19  C   UNL     1       4.822  -3.309  -0.789  0.00  0.00    +0.001 A 
ATOM     20  C   UNL     1       3.892  -4.178  -1.324  0.00  0.00    +0.013 A 
ATOM     21  C   UNL     1       2.553  -3.797  -1.393  0.00  0.00    +0.041 A 
ATOM     22  C   UNL     1       1.539  -4.684  -1.993  0.00  0.00    +0.247 C 
ATOM     23  O   UNL     1       1.793  -5.857  -2.186  0.00  0.00    -0.270 OA
ENDBRANCH   1  15
BRANCH   3  24
ATOM     24  C   UNL     1      -0.107   1.452  -0.029  0.00  0.00    +0.102 C 
BRANCH  24  25
ATOM     25  C   UNL     1      -0.926   1.936   1.169  0.00  0.00    +0.000 C 
BRANCH  25  26
ATOM     26  C   UNL     1      -0.952   3.465   1.186  0.00  0.00    -0.077 C 
BRANCH  26  32
ATOM     27  C   UNL     1      -3.154   3.561   2.189  0.00  0.00    -0.060 C 
ATOM     28  C   UNL     1      -3.923   3.991   3.440  0.00  0.00    +0.086 C 
ATOM     29  N   UNL     1      -3.776   5.441   3.629  0.00  0.00    -0.333 N 
ATOM     30  C   UNL     1      -2.361   5.809   3.776  0.00  0.00    +0.086 C 
ATOM     31  C   UNL     1      -1.592   5.379   2.524  0.00  0.00    -0.060 C 
ATOM     32  N   UNL     1      -1.729   3.917   2.359  0.00  0.00    +0.382 N 
ATOM     33  H   UNL     1      -1.367   3.451   3.199  0.00  0.00    -0.082 HD
BRANCH  29  34
ATOM     34  C   UNL     1      -4.525   5.883   4.723  0.00  0.00    +0.030 A 
ATOM     35  C   UNL     1      -3.904   6.566   5.761  0.00  0.00    +0.026 A 
ATOM     36  C   UNL     1      -4.647   7.005   6.839  0.00  0.00    +0.040 A 
ATOM     37  C   UNL     1      -6.008   6.756   6.891  0.00  0.00    +0.124 A 
ATOM     38  C   UNL     1      -6.628   6.071   5.860  0.00  0.00    +0.040 A 
ATOM     39  C   UNL     1      -5.890   5.634   4.778  0.00  0.00    +0.026 A 
ATOM     40  F   UNL     1      -6.732   7.183   7.949  0.00  0.00    -0.205 F 
ENDBRANCH  29  34
ENDBRANCH  26  32
ENDBRANCH  25  26
ENDBRANCH  24  25
ENDBRANCH   3  24
TORSDOF 6
