REMARK  Name = ZINC00850207
REMARK  10 active torsions:
REMARK  status: ('A' for Active; 'I' for Inactive)
REMARK    1  A    between atoms: C_1  and  C_2
REMARK    2  A    between atoms: C_2  and  C_3
REMARK    3  A    between atoms: C_3  and  N_4
REMARK    4  A    between atoms: N_13  and  C_27
REMARK    5  A    between atoms: C_17  and  C_25
REMARK    6  A    between atoms: C_18  and  N_24
REMARK    7  A    between atoms: C_19  and  C_20
REMARK    8  A    between atoms: C_19  and  C_22
REMARK    9  A    between atoms: C_27  and  C_28
REMARK   10  A    between atoms: C_28  and  C_29
REMARK                            x       y       z     vdW  Elec       q    Type
REMARK                         _______ _______ _______ _____ _____    ______ ____
ROOT
ATOM      1  N   UNL     1       3.893   0.857   3.463  0.00  0.00    +0.380 N 
ATOM      2  C   UNL     1       2.509   1.276   3.236  0.00  0.00    -0.078 C 
ATOM      3  C   UNL     1       2.476   2.530   2.371  0.00  0.00    -0.008 C 
ATOM      4  C   UNL     1       3.272   2.404   1.078  0.00  0.00    +0.012 C 
ATOM      5  C   UNL     1       4.625   1.744   1.287  0.00  0.00    -0.008 C 
ATOM      6  C   UNL     1       4.571   0.530   2.209  0.00  0.00    -0.078 C 
ATOM      7  C   UNL     1       2.452   1.615   0.044  0.00  0.00    +0.043 C 
ATOM      8  C   UNL     1       2.425   0.128   0.308  0.00  0.00    +0.093 C 
ATOM      9  N   UNL     1       1.308  -0.533  -0.358  0.00  0.00    -0.298 NA
ATOM     10  C   UNL     1       0.002  -0.004   0.002  0.00  0.00    +0.112 C 
ATOM     11  C   UNL     1      -0.018   1.496   0.010  0.00  0.00    -0.007 C 
ATOM     12  C   UNL     1       1.073   2.227   0.004  0.00  0.00    -0.026 C 
ATOM     13  C   UNL     1       1.017   3.707  -0.079  0.00  0.00    +0.074 C 
ATOM     14  C   UNL     1       2.145   4.430   0.148  0.00  0.00    +0.054 C 
ATOM     15  C   UNL     1       3.470   3.814   0.496  0.00  0.00    +0.187 C 
ATOM     16  H   UNL     1       4.425   1.712   3.905  0.00  0.00    -0.082 HD
ENDROOT
BRANCH  14  17
ATOM     17  N   UNL     1       2.068   5.791   0.057  0.00  0.00    -0.358 N 
ATOM     18  H   UNL     1       2.963   6.406   0.235  0.00  0.00    +0.142 HD
ATOM     19  H   UNL     1       1.112   6.273  -0.194  0.00  0.00    +0.142 HD
ENDBRANCH  14  17
BRANCH  15  20
ATOM     20  C   UNL     1       4.301   3.760  -0.718  0.00  0.00    +0.091 C 
ATOM     21  N   UNL     1       4.942   3.717  -1.655  0.00  0.00    -0.194 NA
ENDBRANCH  15  20
BRANCH  15  22
ATOM     22  C   UNL     1       4.152   4.695   1.458  0.00  0.00    +0.091 C 
ATOM     23  N   UNL     1       4.678   5.374   2.201  0.00  0.00    -0.194 NA
ENDBRANCH  15  22
BRANCH  13  24
ATOM     24  C   UNL     1      -0.200   4.388  -0.402  0.00  0.00    +0.101 C 
ATOM     25  N   UNL     1      -1.165   4.928  -0.659  0.00  0.00    -0.191 NA
ENDBRANCH  13  24
BRANCH   1  26
ATOM     26  C   UNL     1       3.964  -0.258   4.417  0.00  0.00    -0.079 C 
BRANCH  26  28
ATOM     27  C   UNL     1       5.459  -1.985   5.428  0.00  0.00    +0.002 C 
ATOM     28  C   UNL     1       5.385  -0.824   4.435  0.00  0.00    -0.022 C 
ENDBRANCH  26  28
ENDBRANCH   1  26
BRANCH   9  29
ATOM     29  C   UNL     1       1.369  -1.992  -0.192  0.00  0.00    +0.084 C 
BRANCH  29  30
ATOM     30  C   UNL     1       1.240  -2.341   1.292  0.00  0.00    +0.012 C 
ATOM     31  C   UNL     1       1.302  -3.860   1.465  0.00  0.00    +0.005 C 
ENDBRANCH  29  30
ENDBRANCH   9  29
TORSDOF 8
