REMARK  Name = ZINC06149201
REMARK  15 active torsions:
REMARK  status: ('A' for Active; 'I' for Inactive)
REMARK    1  A    between atoms: C_1  and  C_2
REMARK    2  A    between atoms: C_2  and  C_3
REMARK    3  A    between atoms: C_3  and  C_4
REMARK    4  A    between atoms: C_3  and  C_5
REMARK    5  A    between atoms: C_3  and  N_6
REMARK    6  A    between atoms: C_7  and  C_11
REMARK    7  A    between atoms: C_11  and  C_13
REMARK    8  A    between atoms: C_11  and  N_73
REMARK    9  A    between atoms: C_17  and  O_25
REMARK   10  A    between atoms: O_25  and  C_26
REMARK   11  A    between atoms: C_26  and  C_27
REMARK   12  A    between atoms: C_28  and  C_29
REMARK   13  A    between atoms: C_28  and  N_73
REMARK   14  A    between atoms: C_35  and  C_36
REMARK   15  A    between atoms: C_35  and  N_73
REMARK                            x       y       z     vdW  Elec       q    Type
REMARK                         _______ _______ _______ _____ _____    ______ ____
ROOT
ATOM      1  C   UNL     1      -0.567  -1.079   0.566  0.00  0.00    +0.040 C 
ENDROOT
BRANCH   1   2
ATOM      2  C   UNL     1       0.614  -0.188   0.850  0.00  0.00    +0.011 A 
ATOM      3  C   UNL     1       1.845  -0.731   1.017  0.00  0.00    +0.017 A 
ATOM      4  C   UNL     1       2.973   0.162   1.292  0.00  0.00    +0.002 A 
ATOM      5  C   UNL     1       4.265  -0.342   1.473  0.00  0.00    +0.055 A 
ATOM      6  C   UNL     1       5.306   0.528   1.730  0.00  0.00    +0.121 A 
ATOM      7  C   UNL     1       5.072   1.899   1.810  0.00  0.00    +0.047 A 
ATOM      8  C   UNL     1       3.804   2.407   1.634  0.00  0.00    +0.030 A 
ATOM      9  C   UNL     1       2.742   1.548   1.373  0.00  0.00    +0.049 A 
ATOM     10  N   UNL     1       1.464   2.037   1.194  0.00  0.00    -0.322 N 
ATOM     11  H   UNL     1       1.300   3.022   1.252  0.00  0.00    +0.169 HD
ATOM     12  C   UNL     1       0.435   1.209   0.941  0.00  0.00    +0.251 A 
ATOM     13  O   UNL     1      -0.679   1.677   0.783  0.00  0.00    -0.268 OA
BRANCH   6  14
ATOM     14  O   UNL     1       6.564   0.045   1.907  0.00  0.00    -0.492 OA
BRANCH  14  15
ATOM     15  C   UNL     1       7.595   0.999   2.170  0.00  0.00    +0.225 C 
ATOM     16  C   UNL     1       8.931   0.273   2.338  0.00  0.00    +0.048 C 
ENDBRANCH  14  15
ENDBRANCH   6  14
ENDBRANCH   1   2
BRANCH   1  18
ATOM     17  N   UNL     1      -0.911  -1.523  -1.922  0.00  0.00    -0.225 N 
ATOM     18  C   UNL     1      -1.099  -0.784  -0.812  0.00  0.00    +0.143 A 
ATOM     19  N   UNL     1      -1.841   0.238  -1.163  0.00  0.00    -0.115 NA
ATOM     20  N   UNL     1      -2.088   0.138  -2.423  0.00  0.00    -0.023 NA
ATOM     21  N   UNL     1      -1.530  -0.927  -2.884  0.00  0.00    -0.043 NA
BRANCH  17  22
ATOM     22  C   UNL     1      -0.147  -2.769  -2.018  0.00  0.00    +0.061 C 
ATOM     23  C   UNL     1       1.288  -2.525  -1.548  0.00  0.00    +0.036 C 
ATOM     24  C   UNL     1      -0.798  -3.836  -1.135  0.00  0.00    +0.036 C 
BRANCH  22  26
ATOM     25  C   UNL     1       0.664  -4.550  -3.571  0.00  0.00    +0.006 C 
ATOM     26  C   UNL     1      -0.133  -3.248  -3.471  0.00  0.00    +0.026 C 
ENDBRANCH  22  26
ENDBRANCH  17  22
ENDBRANCH   1  18
BRANCH   1  27
ATOM     27  N   UNL     1      -1.632  -0.805   1.554  0.00  0.00    +0.397 N 
ATOM     28  H   UNL     1      -2.093   0.080   1.311  0.00  0.00    -0.079 HD
BRANCH  27  29
ATOM     29  C   UNL     1      -2.634  -1.891   1.531  0.00  0.00    -0.041 C 
BRANCH  29  30
ATOM     30  C   UNL     1      -3.669  -1.566   0.485  0.00  0.00    -0.064 A 
ATOM     31  C   UNL     1      -4.701  -0.695   0.781  0.00  0.00    +0.002 A 
ATOM     32  C   UNL     1      -5.647  -0.393  -0.181  0.00  0.00    +0.000 A 
ATOM     33  C   UNL     1      -5.569  -0.971  -1.434  0.00  0.00    +0.000 A 
ATOM     34  C   UNL     1      -4.540  -1.847  -1.727  0.00  0.00    +0.000 A 
ATOM     35  C   UNL     1      -3.591  -2.144  -0.768  0.00  0.00    +0.002 A 
ENDBRANCH  29  30
ENDBRANCH  27  29
BRANCH  27  36
ATOM     36  C   UNL     1      -1.047  -0.686   2.907  0.00  0.00    -0.001 C 
BRANCH  36  37
ATOM     37  C   UNL     1      -2.096  -0.140   3.842  0.00  0.00    +0.089 A 
ATOM     38  C   UNL     1      -2.880  -0.869   4.656  0.00  0.00    +0.042 A 
ATOM     39  C   UNL     1      -3.710   0.042   5.349  0.00  0.00    +0.041 A 
ATOM     40  C   UNL     1      -3.384   1.273   4.916  0.00  0.00    +0.195 A 
ATOM     41  O   UNL     1      -2.401   1.157   4.008  0.00  0.00    -0.470 OA
ENDBRANCH  36  37
ENDBRANCH  27  36
ENDBRANCH   1  27
TORSDOF 11
