REMARK  Name = ZINC02863482
REMARK  6 active torsions:
REMARK  status: ('A' for Active; 'I' for Inactive)
REMARK    1  A    between atoms: C_1  and  C_2
REMARK    2  A    between atoms: C_5  and  S_8
REMARK    3  A    between atoms: S_8  and  N_11
REMARK    4  A    between atoms: N_11  and  C_12
REMARK    5  A    between atoms: C_12  and  C_27
REMARK    6  A    between atoms: N_15  and  C_19
REMARK                            x       y       z     vdW  Elec       q    Type
REMARK                         _______ _______ _______ _____ _____    ______ ____
ROOT
ATOM      1  C   UNL     1      -2.187  -4.817  -1.050  0.00  0.00    +0.280 C 
ATOM      2  C   UNL     1      -3.638  -5.101  -0.719  0.00  0.00    +0.276 C 
ATOM      3  O   UNL     1      -4.088  -6.098  -0.194  0.00  0.00    -0.271 OA
ATOM      4  N   UNL     1      -4.325  -4.016  -1.128  0.00  0.00    -0.191 N 
ATOM      5  C   UNL     1      -3.518  -3.096  -1.667  0.00  0.00    +0.315 C 
ATOM      6  O   UNL     1      -3.906  -2.032  -2.108  0.00  0.00    -0.252 OA
ATOM      7  N   UNL     1      -2.228  -3.479  -1.666  0.00  0.00    -0.265 N 
ATOM      8  H   UNL     1      -1.473  -2.973  -2.005  0.00  0.00    +0.153 HD
ENDROOT
BRANCH   4   9
ATOM      9  C   UNL     1      -5.715  -3.870  -1.004  0.00  0.00    +0.047 A 
ATOM     10  C   UNL     1      -6.488  -4.933  -0.557  0.00  0.00    +0.027 A 
ATOM     11  C   UNL     1      -7.856  -4.786  -0.430  0.00  0.00    +0.041 A 
ATOM     12  C   UNL     1      -8.457  -3.583  -0.759  0.00  0.00    +0.142 A 
ATOM     13  C   UNL     1      -7.688  -2.523  -1.211  0.00  0.00    +0.078 A 
ATOM     14  C   UNL     1      -6.319  -2.665  -1.333  0.00  0.00    +0.047 A 
ATOM     15 CL   UNL     1      -8.445  -1.016  -1.623  0.00  0.00    -0.081 Cl
ATOM     16  F   UNL     1      -9.796  -3.443  -0.639  0.00  0.00    -0.204 F 
ENDBRANCH   4   9
BRANCH   1  17
ATOM     17  C   UNL     1      -1.645  -5.849  -2.041  0.00  0.00    +0.435 C 
ATOM     18  F   UNL     1      -1.606  -7.107  -1.430  0.00  0.00    -0.166 F 
ATOM     19  F   UNL     1      -2.480  -5.902  -3.163  0.00  0.00    -0.166 F 
ATOM     20  F   UNL     1      -0.355  -5.483  -2.438  0.00  0.00    -0.166 F 
ENDBRANCH   1  17
BRANCH   1  21
ATOM     21  N   UNL     1      -1.373  -4.798   0.168  0.00  0.00    -0.151 NA
ATOM     22  H   UNL     1      -0.643  -5.428   0.273  0.00  0.00    +0.151 HD
BRANCH  21  23
ATOM     23  S   UNL     1      -1.702  -3.703   1.366  0.00  0.00    +0.061 S 
ATOM     24  O   UNL     1      -1.879  -2.445   0.729  0.00  0.00    -0.153 OA
ATOM     25  O   UNL     1      -0.732  -3.912   2.384  0.00  0.00    -0.153 OA
BRANCH  23  30
ATOM     26  C   UNL     1      -7.043  -5.200   3.740  0.00  0.00    +0.044 C 
ATOM     27  C   UNL     1      -5.709  -4.826   3.147  0.00  0.00    -0.050 A 
ATOM     28  C   UNL     1      -5.634  -3.841   2.180  0.00  0.00    +0.005 A 
ATOM     29  C   UNL     1      -4.410  -3.495   1.640  0.00  0.00    +0.029 A 
ATOM     30  C   UNL     1      -3.261  -4.140   2.059  0.00  0.00    +0.105 A 
ATOM     31  C   UNL     1      -3.337  -5.130   3.022  0.00  0.00    +0.029 A 
ATOM     32  C   UNL     1      -4.561  -5.472   3.566  0.00  0.00    +0.005 A 
ENDBRANCH  23  30
ENDBRANCH  21  23
ENDBRANCH   1  21
TORSDOF 5
