REMARK  Name = ZINC38706015
REMARK  13 active torsions:
REMARK  status: ('A' for Active; 'I' for Inactive)
REMARK    1  A    between atoms: C_1  and  C_2
REMARK    2  A    between atoms: C_4  and  C_39
REMARK    3  A    between atoms: C_5  and  C_9
REMARK    4  A    between atoms: C_6  and  O_8
REMARK    5  A    between atoms: N_17  and  C_29
REMARK    6  A    between atoms: C_18  and  C_20
REMARK    7  A    between atoms: C_23  and  C_26
REMARK    8  A    between atoms: C_26  and  C_27
REMARK    9  A    between atoms: C_26  and  C_28
REMARK   10  A    between atoms: C_29  and  C_30
REMARK   11  A    between atoms: C_30  and  C_31
REMARK   12  A    between atoms: C_34  and  O_37
REMARK   13  A    between atoms: O_37  and  C_38
REMARK                            x       y       z     vdW  Elec       q    Type
REMARK                         _______ _______ _______ _____ _____    ______ ____
ROOT
ATOM      1  C   UNL     1       0.151  -4.413  -0.128  0.00  0.00    +0.102 A 
ATOM      2  C   UNL     1       0.217  -5.190   1.034  0.00  0.00    +0.035 A 
ATOM      3  C   UNL     1       0.175  -6.505   0.610  0.00  0.00    +0.126 A 
ATOM      4  N   UNL     1       0.089  -6.462  -0.753  0.00  0.00    -0.272 N 
ATOM      5  H   UNL     1       0.043  -7.238  -1.333  0.00  0.00    +0.189 HD
ATOM      6  N   UNL     1       0.071  -5.240  -1.152  0.00  0.00    -0.173 NA
ATOM      7  C   UNL     1       0.239  -7.377   1.788  0.00  0.00    +0.265 C 
ATOM      8  O   UNL     1       0.224  -8.592   1.754  0.00  0.00    -0.268 OA
ATOM      9  N   UNL     1       0.319  -6.641   2.912  0.00  0.00    -0.285 N 
ATOM     10  C   UNL     1       0.312  -5.222   2.534  0.00  0.00    +0.141 C 
ENDROOT
BRANCH   1  15
ATOM     11  C   UNL     1       0.203   1.344  -0.393  0.00  0.00    +0.044 C 
ATOM     12  C   UNL     1       0.187  -0.161  -0.322  0.00  0.00    -0.047 A 
ATOM     13  C   UNL     1       1.049  -0.898  -1.115  0.00  0.00    +0.007 A 
ATOM     14  C   UNL     1       1.041  -2.276  -1.056  0.00  0.00    -0.037 A 
ATOM     15  C   UNL     1       0.164  -2.930  -0.195  0.00  0.00    +0.047 A 
ATOM     16  C   UNL     1      -0.706  -2.184   0.606  0.00  0.00    +0.127 A 
ATOM     17  C   UNL     1      -0.684  -0.800   0.540  0.00  0.00    +0.049 A 
ATOM     18  C   UNL     1       1.982  -3.074  -1.923  0.00  0.00    +0.044 C 
BRANCH  16  19
ATOM     19  O   UNL     1      -1.565  -2.814   1.449  0.00  0.00    -0.506 OA
ATOM     20  H   UNL     1      -1.237  -2.898   2.354  0.00  0.00    +0.292 HD
ENDBRANCH  16  19
ENDBRANCH   1  15
BRANCH  10  21
ATOM     21  C   UNL     1       1.587  -4.557   2.987  0.00  0.00    -0.022 A 
ATOM     22  C   UNL     1       2.804  -5.172   2.762  0.00  0.00    +0.006 A 
ATOM     23  C   UNL     1       3.973  -4.562   3.177  0.00  0.00    +0.004 A 
ATOM     24  C   UNL     1       3.925  -3.338   3.818  0.00  0.00    -0.045 A 
ATOM     25  C   UNL     1       2.707  -2.724   4.043  0.00  0.00    +0.004 A 
ATOM     26  C   UNL     1       1.538  -3.331   3.623  0.00  0.00    +0.006 A 
BRANCH  24  27
ATOM     27  C   UNL     1       5.199  -2.675   4.272  0.00  0.00    +0.013 C 
ATOM     28  C   UNL     1       5.339  -1.315   3.584  0.00  0.00    +0.012 C 
ATOM     29  C   UNL     1       5.159  -2.477   5.788  0.00  0.00    +0.012 C 
ENDBRANCH  24  27
ENDBRANCH  10  21
BRANCH   9  30
ATOM     30  C   UNL     1       0.398  -7.166   4.277  0.00  0.00    +0.114 C 
BRANCH  30  31
ATOM     31  C   UNL     1       1.865  -7.365   4.662  0.00  0.00    +0.054 C 
BRANCH  31  32
ATOM     32  C   UNL     1       1.947  -7.905   6.067  0.00  0.00    -0.046 A 
ATOM     33  C   UNL     1       2.019  -7.034   7.138  0.00  0.00    +0.007 A 
ATOM     34  C   UNL     1       2.094  -7.526   8.427  0.00  0.00    +0.046 A 
ATOM     35  C   UNL     1       2.097  -8.896   8.646  0.00  0.00    +0.120 A 
ATOM     36  C   UNL     1       2.025  -9.768   7.569  0.00  0.00    +0.046 A 
ATOM     37  C   UNL     1       1.945  -9.271   6.283  0.00  0.00    +0.007 A 
BRANCH  35  38
ATOM     38  O   UNL     1       2.172  -9.383   9.912  0.00  0.00    -0.495 OA
ATOM     39  C   UNL     1       2.171 -10.804  10.062  0.00  0.00    +0.277 C 
ENDBRANCH  35  38
ENDBRANCH  31  32
ENDBRANCH  30  31
ENDBRANCH   9  30
TORSDOF 8
