REMARK  Name = ZINC40733464
REMARK  15 active torsions:
REMARK  status: ('A' for Active; 'I' for Inactive)
REMARK    1  A    between atoms: C_1  and  C_2
REMARK    2  A    between atoms: C_7  and  C_8
REMARK    3  A    between atoms: C_8  and  O_9
REMARK    4  A    between atoms: O_9  and  C_10
REMARK    5  A    between atoms: C_11  and  O_31
REMARK    6  A    between atoms: C_13  and  C_17
REMARK    7  A    between atoms: C_17  and  N_18
REMARK    8  A    between atoms: N_18  and  C_19
REMARK    9  A    between atoms: C_19  and  C_20
REMARK   10  A    between atoms: C_20  and  C_21
REMARK   11  A    between atoms: C_24  and  O_29
REMARK   12  A    between atoms: C_25  and  O_27
REMARK   13  A    between atoms: O_27  and  C_28
REMARK   14  A    between atoms: O_29  and  C_30
REMARK   15  A    between atoms: O_31  and  C_32
REMARK                            x       y       z     vdW  Elec       q    Type
REMARK                         _______ _______ _______ _____ _____    ______ ____
ROOT
ATOM      1  C   UNL     1       0.053  -0.376   4.845  0.00  0.00    +0.176 A 
ATOM      2  C   UNL     1       1.260  -0.092   5.477  0.00  0.00    +0.163 A 
ATOM      3  C   UNL     1       1.260   0.431   6.760  0.00  0.00    +0.051 A 
ATOM      4  C   UNL     1       0.063   0.668   7.410  0.00  0.00    -0.060 A 
ATOM      5  C   UNL     1      -1.136   0.386   6.783  0.00  0.00    +0.021 A 
ATOM      6  C   UNL     1      -1.143  -0.131   5.500  0.00  0.00    +0.063 A 
ATOM      7 BR   UNL     1      -2.786  -0.508   4.642  0.00  0.00    -0.046 Br
ENDROOT
BRANCH   2   8
ATOM      8  O   UNL     1       2.436  -0.326   4.837  0.00  0.00    -0.491 OA
ATOM      9  C   UNL     1       3.636  -0.010   5.547  0.00  0.00    +0.277 C 
ENDBRANCH   2   8
BRANCH   1  10
ATOM     10  O   UNL     1       0.048  -0.889   3.585  0.00  0.00    -0.483 OA
BRANCH  10  11
ATOM     11  C   UNL     1       0.025   0.045   2.504  0.00  0.00    +0.265 C 
BRANCH  11  18
ATOM     12  C   UNL     1      -0.018   1.503   0.010  0.00  0.00    +0.044 C 
ATOM     13  C   UNL     1       0.002  -0.004   0.002  0.00  0.00    -0.044 A 
ATOM     14  C   UNL     1       0.006  -0.689  -1.199  0.00  0.00    +0.004 A 
ATOM     15  C   UNL     1       0.025  -2.071  -1.207  0.00  0.00    +0.000 A 
ATOM     16  C   UNL     1       0.040  -2.768  -0.013  0.00  0.00    +0.000 A 
ATOM     17  C   UNL     1       0.037  -2.084   1.188  0.00  0.00    +0.007 A 
ATOM     18  C   UNL     1       0.023  -0.702   1.195  0.00  0.00    -0.007 A 
ENDBRANCH  11  18
ENDBRANCH  10  11
ENDBRANCH   1  10
BRANCH   4  19
ATOM     19  C   UNL     1       0.065   1.237   8.806  0.00  0.00    -0.047 C 
BRANCH  19  20
ATOM     20  N   UNL     1       0.037   2.704   8.737  0.00  0.00    +0.382 N 
ATOM     21  H   UNL     1       0.850   3.033   8.239  0.00  0.00    -0.085 HD
ATOM     22  H   UNL     1      -0.797   3.002   8.254  0.00  0.00    -0.085 HD
BRANCH  20  23
ATOM     23  C   UNL     1       0.039   3.258  10.098  0.00  0.00    -0.077 C 
BRANCH  23  24
ATOM     24  C   UNL     1       0.010   4.786  10.026  0.00  0.00    +0.016 C 
BRANCH  24  25
ATOM     25  C   UNL     1       0.012   5.354  11.422  0.00  0.00    -0.045 A 
ATOM     26  C   UNL     1      -1.184   5.587  12.074  0.00  0.00    +0.007 A 
ATOM     27  C   UNL     1      -1.187   6.108  13.355  0.00  0.00    +0.049 A 
ATOM     28  C   UNL     1       0.011   6.398  13.987  0.00  0.00    +0.161 A 
ATOM     29  C   UNL     1       1.215   6.164  13.331  0.00  0.00    +0.162 A 
ATOM     30  C   UNL     1       1.211   5.637  12.050  0.00  0.00    +0.053 A 
BRANCH  29  31
ATOM     31  O   UNL     1       2.394   6.447  13.948  0.00  0.00    -0.491 OA
ATOM     32  C   UNL     1       3.590   6.181  13.214  0.00  0.00    +0.277 C 
ENDBRANCH  29  31
BRANCH  28  33
ATOM     33  O   UNL     1       0.009   6.912  15.247  0.00  0.00    -0.491 OA
ATOM     34  C   UNL     1      -1.264   7.126  15.858  0.00  0.00    +0.277 C 
ENDBRANCH  28  33
ENDBRANCH  24  25
ENDBRANCH  23  24
ENDBRANCH  20  23
ENDBRANCH  19  20
ENDBRANCH   4  19
TORSDOF 11
