REMARK  Name = ZINC67044064
REMARK  6 active torsions:
REMARK  status: ('A' for Active; 'I' for Inactive)
REMARK    1  A    between atoms: C_1  and  C_2
REMARK    2  A    between atoms: C_2  and  C_4
REMARK    3  A    between atoms: C_2  and  N_18
REMARK    4  A    between atoms: N_6  and  C_7
REMARK    5  A    between atoms: C_7  and  C_8
REMARK    6  A    between atoms: C_19  and  C_21
REMARK                            x       y       z     vdW  Elec       q    Type
REMARK                         _______ _______ _______ _____ _____    ______ ____
ROOT
ATOM      1  C   UNL     1       0.731  -0.503   1.223  0.00  0.00    +0.233 C 
ATOM      2  O   UNL     1       1.725  -1.187   1.099  0.00  0.00    -0.274 OA
ATOM      3  N   UNL     1       0.278  -0.191   2.453  0.00  0.00    -0.310 N 
ATOM      4  H   UNL     1      -0.517   0.356   2.553  0.00  0.00    +0.149 HD
ENDROOT
BRANCH   1   6
ATOM      5  C   UNL     1      -0.019   1.526   0.010  0.00  0.00    +0.038 C 
ATOM      6  C   UNL     1       0.002  -0.004   0.002  0.00  0.00    +0.156 C 
BRANCH   6   7
ATOM      7  N   UNL     1       0.688  -0.476  -1.203  0.00  0.00    -0.300 N 
ATOM      8  C   UNL     1       0.006  -0.608  -2.358  0.00  0.00    +0.245 C 
ATOM      9  O   UNL     1      -1.177  -0.335  -2.400  0.00  0.00    -0.270 OA
ATOM     10  H   UNL     1       1.632  -0.695  -1.170  0.00  0.00    +0.150 HD
BRANCH   8  11
ATOM     11  C   UNL     1       0.698  -1.085  -3.574  0.00  0.00    +0.037 A 
ATOM     12  C   UNL     1       2.056  -1.405  -3.528  0.00  0.00    +0.014 A 
ATOM     13  C   UNL     1       2.696  -1.850  -4.666  0.00  0.00    +0.021 A 
ATOM     14  C   UNL     1       1.994  -1.978  -5.853  0.00  0.00    +0.041 A 
ATOM     15  C   UNL     1       0.647  -1.662  -5.905  0.00  0.00    +0.021 A 
ATOM     16  C   UNL     1      -0.005  -1.222  -4.773  0.00  0.00    +0.014 A 
ATOM     17 CL   UNL     1       2.807  -2.538  -7.281  0.00  0.00    -0.084 Cl
ENDBRANCH   8  11
ENDBRANCH   6   7
ENDBRANCH   1   6
BRANCH   3  18
ATOM     18  C   UNL     1       0.986  -0.676   3.640  0.00  0.00    +0.143 C 
BRANCH  18  19
ATOM     19  C   UNL     1       0.281  -0.190   4.880  0.00  0.00    +0.015 A 
ATOM     20  C   UNL     1       0.763   0.912   5.562  0.00  0.00    +0.009 A 
ATOM     21  C   UNL     1       0.119   1.360   6.699  0.00  0.00    +0.004 A 
ATOM     22  C   UNL     1      -1.009   0.707   7.160  0.00  0.00    +0.049 A 
ATOM     23  C   UNL     1      -1.498  -0.399   6.481  0.00  0.00    +0.162 A 
ATOM     24  C   UNL     1      -0.855  -0.845   5.332  0.00  0.00    +0.167 A 
ATOM     25  O   UNL     1      -1.325  -1.920   4.644  0.00  0.00    -0.485 OA
ATOM     26  C   UNL     1      -2.244  -2.774   5.333  0.00  0.00    +0.270 C 
ATOM     27  C   UNL     1      -3.292  -1.893   6.026  0.00  0.00    +0.270 C 
ATOM     28  O   UNL     1      -2.608  -1.033   6.949  0.00  0.00    -0.485 OA
ENDBRANCH  18  19
ENDBRANCH   3  18
TORSDOF 5
