REMARK  Name = ZINC12941761
REMARK  9 active torsions:
REMARK  status: ('A' for Active; 'I' for Inactive)
REMARK    1  A    between atoms: C_1  and  C_2
REMARK    2  A    between atoms: C_2  and  S_3
REMARK    3  A    between atoms: S_3  and  N_6
REMARK    4  A    between atoms: C_15  and  C_17
REMARK    5  A    between atoms: N_19  and  C_20
REMARK    6  A    between atoms: C_20  and  C_21
REMARK    7  A    between atoms: C_21  and  C_22
REMARK    8  A    between atoms: C_25  and  S_28
REMARK    9  A    between atoms: S_28  and  N_31
REMARK                            x       y       z     vdW  Elec       q    Type
REMARK                         _______ _______ _______ _____ _____    ______ ____
ROOT
ATOM      1  C   UNL     1       1.083  -0.685  -0.872  0.00  0.00    +0.232 C 
ATOM      2  O   UNL     1       0.144   0.074  -0.987  0.00  0.00    -0.274 OA
ATOM      3  N   UNL     1       2.324  -0.197  -0.679  0.00  0.00    -0.314 N 
ATOM      4  H   UNL     1       3.075  -0.804  -0.587  0.00  0.00    +0.149 HD
ENDROOT
BRANCH   1  14
ATOM      5  N   UNL     1       1.151  -2.655  -2.305  0.00  0.00    -0.165 NA
ATOM      6  C   UNL     1       1.072  -4.101  -2.539  0.00  0.00    +0.145 C 
ATOM      7  C   UNL     1      -0.169  -4.654  -1.886  0.00  0.00    -0.028 A 
ATOM      8  C   UNL     1      -0.536  -5.958  -2.191  0.00  0.00    +0.005 A 
ATOM      9  C   UNL     1      -1.648  -6.528  -1.607  0.00  0.00    +0.000 A 
ATOM     10  C   UNL     1      -2.404  -5.794  -0.711  0.00  0.00    +0.000 A 
ATOM     11  C   UNL     1      -2.044  -4.497  -0.411  0.00  0.00    +0.004 A 
ATOM     12  C   UNL     1      -0.926  -3.919  -1.001  0.00  0.00    -0.041 A 
ATOM     13  C   UNL     1      -0.600  -2.495  -0.634  0.00  0.00    +0.065 C 
ATOM     14  C   UNL     1       0.861  -2.174  -0.944  0.00  0.00    +0.170 C 
BRANCH   5  15
ATOM     15  S   UNL     1       1.552  -1.606  -3.522  0.00  0.00    +0.033 S 
ATOM     16  O   UNL     1       1.321  -2.335  -4.720  0.00  0.00    -0.158 OA
ATOM     17  O   UNL     1       0.815  -0.424  -3.240  0.00  0.00    -0.158 OA
BRANCH  15  19
ATOM     18  C   UNL     1       3.812  -0.334  -4.391  0.00  0.00    +0.029 C 
ATOM     19  C   UNL     1       3.328  -1.301  -3.309  0.00  0.00    +0.182 C 
ENDBRANCH  15  19
ENDBRANCH   5  15
ENDBRANCH   1  14
BRANCH   3  20
ATOM     20  C   UNL     1       2.539   1.250  -0.609  0.00  0.00    +0.109 C 
BRANCH  20  21
ATOM     21  C   UNL     1       4.026   1.535  -0.386  0.00  0.00    +0.054 C 
BRANCH  21  22
ATOM     22  C   UNL     1       4.247   3.024  -0.313  0.00  0.00    -0.046 A 
ATOM     23  C   UNL     1       4.526   3.738  -1.464  0.00  0.00    +0.005 A 
ATOM     24  C   UNL     1       4.725   5.104  -1.398  0.00  0.00    +0.029 A 
ATOM     25  C   UNL     1       4.654   5.755  -0.180  0.00  0.00    +0.105 A 
ATOM     26  C   UNL     1       4.380   5.040   0.971  0.00  0.00    +0.029 A 
ATOM     27  C   UNL     1       4.178   3.674   0.904  0.00  0.00    +0.005 A 
BRANCH  25  28
ATOM     28  S   UNL     1       4.912   7.496  -0.096  0.00  0.00    +0.056 S 
ATOM     29  O   UNL     1       4.611   8.014  -1.385  0.00  0.00    -0.153 OA
ATOM     30  O   UNL     1       4.253   7.948   1.079  0.00  0.00    -0.153 OA
BRANCH  28  31
ATOM     31  N   UNL     1       6.531   7.740   0.146  0.00  0.00    -0.204 NA
ATOM     32  H   UNL     1       7.132   6.981   0.213  0.00  0.00    +0.144 HD
ATOM     33  H   UNL     1       6.880   8.642   0.221  0.00  0.00    +0.144 HD
ENDBRANCH  28  31
ENDBRANCH  25  28
ENDBRANCH  21  22
ENDBRANCH  20  21
ENDBRANCH   3  20
TORSDOF 8
