REMARK  Name = ZINC06844139
REMARK  6 active torsions:
REMARK  status: ('A' for Active; 'I' for Inactive)
REMARK    1  A    between atoms: C_1  and  C_2
REMARK    2  A    between atoms: C_2  and  C_3
REMARK    3  A    between atoms: C_8  and  C_23
REMARK    4  A    between atoms: C_11  and  C_14
REMARK    5  A    between atoms: C_17  and  N_20
REMARK    6  A    between atoms: C_26  and  C_29
REMARK                            x       y       z     vdW  Elec       q    Type
REMARK                         _______ _______ _______ _____ _____    ______ ____
ROOT
ATOM      1  C   UNL     1       0.614  -0.490  -1.345  0.00  0.00    -0.047 A 
ATOM      2  C   UNL     1      -0.078  -0.707  -2.531  0.00  0.00    +0.005 A 
ATOM      3  C   UNL     1       0.552  -1.145  -3.662  0.00  0.00    +0.026 A 
ATOM      4  C   UNL     1       1.935  -1.383  -3.631  0.00  0.00    +0.050 A 
ATOM      5  N   UNL     1       2.431  -1.807  -4.796  0.00  0.00    -0.338 N 
ATOM      6  C   UNL     1       3.693  -2.112  -5.071  0.00  0.00    +0.156 C 
ATOM      7  N   UNL     1       4.781  -2.086  -4.305  0.00  0.00    -0.164 NA
ATOM      8  N   UNL     1       4.969  -1.766  -3.076  0.00  0.00    -0.235 N 
ATOM      9  C   UNL     1       4.057  -1.336  -2.150  0.00  0.00    +0.065 C 
ATOM     10  C   UNL     1       2.670  -1.154  -2.376  0.00  0.00    +0.022 A 
ATOM     11  C   UNL     1       1.975  -0.701  -1.253  0.00  0.00    +0.015 A 
ATOM     12  H   UNL     1       5.883  -1.839  -2.760  0.00  0.00    +0.174 HD
ATOM     13  H   UNL     1       1.797  -1.903  -5.524  0.00  0.00    +0.167 HD
ENDROOT
BRANCH   6  14
ATOM     14  C   UNL     1       3.930  -2.555  -6.463  0.00  0.00    +0.019 A 
ATOM     15  C   UNL     1       2.854  -2.748  -7.330  0.00  0.00    +0.012 A 
ATOM     16  C   UNL     1       3.082  -3.162  -8.627  0.00  0.00    +0.004 A 
ATOM     17  C   UNL     1       4.374  -3.385  -9.068  0.00  0.00    -0.050 A 
ATOM     18  C   UNL     1       5.445  -3.196  -8.213  0.00  0.00    +0.004 A 
ATOM     19  C   UNL     1       5.231  -2.777  -6.916  0.00  0.00    +0.012 A 
ATOM     20  C   UNL     1       4.615  -3.837 -10.485  0.00  0.00    +0.044 C 
ENDBRANCH   6  14
BRANCH   9  21
ATOM     21  C   UNL     1       4.561  -1.039  -0.802  0.00  0.00    -0.002 A 
ATOM     22  C   UNL     1       4.691  -2.064   0.144  0.00  0.00    +0.012 A 
ATOM     23  C   UNL     1       5.165  -1.776   1.405  0.00  0.00    +0.033 A 
ATOM     24  C   UNL     1       5.512  -0.478   1.739  0.00  0.00    +0.126 A 
ATOM     25  C   UNL     1       5.386   0.542   0.810  0.00  0.00    +0.033 A 
ATOM     26  C   UNL     1       4.919   0.271  -0.458  0.00  0.00    +0.012 A 
BRANCH  24  27
ATOM     27  N   UNL     1       6.019  -0.178   3.097  0.00  0.00    +0.056 N 
ATOM     28  O   UNL     1       6.140  -1.145   3.983  0.00  0.00    -0.126 OA
ATOM     29  O   UNL     1       6.351   1.056   3.418  0.00  0.00    -0.126 OA
ENDBRANCH  24  27
ENDBRANCH   9  21
BRANCH   1  31
ATOM     30  C   UNL     1      -0.154   1.524  -0.118  0.00  0.00    +0.009 C 
ATOM     31  C   UNL     1      -0.138  -0.006  -0.132  0.00  0.00    +0.032 C 
ENDBRANCH   1  31
TORSDOF 4
