REMARK  Name = ZINC00803659
REMARK  8 active torsions:
REMARK  status: ('A' for Active; 'I' for Inactive)
REMARK    1  A    between atoms: C_1  and  N_2
REMARK    2  A    between atoms: C_9  and  C_21
REMARK    3  A    between atoms: C_11  and  C_17
REMARK    4  A    between atoms: C_11  and  C_19
REMARK    5  A    between atoms: C_12  and  N_16
REMARK    6  A    between atoms: C_13  and  C_14
REMARK    7  A    between atoms: C_30  and  O_31
REMARK    8  A    between atoms: O_31  and  C_32
REMARK                            x       y       z     vdW  Elec       q    Type
REMARK                         _______ _______ _______ _____ _____    ______ ____
ROOT
ATOM      1  C   UNL     1      -1.510   0.790  -4.196  0.00  0.00    +0.105 C 
ATOM      2  N   UNL     1      -2.495   0.554  -3.132  0.00  0.00    -0.301 NA
ATOM      3  C   UNL     1      -3.860   0.486  -3.682  0.00  0.00    +0.111 C 
ATOM      4  C   UNL     1      -4.819   0.408  -2.521  0.00  0.00    -0.007 C 
ATOM      5  C   UNL     1      -4.463  -0.204  -1.406  0.00  0.00    -0.026 C 
ATOM      6  C   UNL     1      -3.139  -0.893  -1.239  0.00  0.00    +0.044 C 
ATOM      7  C   UNL     1      -2.193  -0.654  -2.395  0.00  0.00    +0.093 C 
ATOM      8  C   UNL     1      -2.535  -0.446   0.094  0.00  0.00    +0.072 C 
ATOM      9  C   UNL     1      -3.449  -0.900   1.231  0.00  0.00    +0.188 C 
ATOM     10  C   UNL     1      -4.873  -0.497   0.994  0.00  0.00    +0.054 C 
ATOM     11  C   UNL     1      -5.368  -0.180  -0.230  0.00  0.00    +0.074 C 
ENDROOT
BRANCH   8  12
ATOM     12  C   UNL     1      -2.414   1.056   0.113  0.00  0.00    +0.009 A 
ATOM     13  C   UNL     1      -1.312   1.684  -0.491  0.00  0.00    -0.011 A 
ATOM     14  C   UNL     1      -0.298   0.936  -1.114  0.00  0.00    +0.009 A 
ATOM     15  C   UNL     1       0.757   1.578  -1.685  0.00  0.00    +0.001 A 
ATOM     16  C   UNL     1       0.852   2.968  -1.659  0.00  0.00    +0.001 A 
ATOM     17  C   UNL     1      -0.108   3.724  -1.060  0.00  0.00    +0.008 A 
ATOM     18  C   UNL     1      -1.213   3.098  -0.459  0.00  0.00    -0.017 A 
ATOM     19  C   UNL     1      -2.224   3.848   0.168  0.00  0.00    +0.012 A 
ATOM     20  C   UNL     1      -3.280   3.210   0.741  0.00  0.00    +0.046 A 
ATOM     21  C   UNL     1      -3.377   1.815   0.714  0.00  0.00    +0.124 A 
BRANCH  21  22
ATOM     22  O   UNL     1      -4.445   1.207   1.295  0.00  0.00    -0.495 OA
ATOM     23  C   UNL     1      -5.353   2.040   2.018  0.00  0.00    +0.277 C 
ENDBRANCH  21  22
ENDBRANCH   8  12
BRANCH  10  24
ATOM     24  N   UNL     1      -5.719  -0.447   2.066  0.00  0.00    -0.358 N 
ATOM     25  H   UNL     1      -6.770  -0.154   1.925  0.00  0.00    +0.142 HD
ATOM     26  H   UNL     1      -5.348  -0.698   3.071  0.00  0.00    +0.142 HD
ENDBRANCH  10  24
BRANCH  11  27
ATOM     27  C   UNL     1      -6.747   0.173  -0.384  0.00  0.00    +0.101 C 
ATOM     28  N   UNL     1      -7.841   0.454  -0.507  0.00  0.00    -0.191 NA
ENDBRANCH  11  27
BRANCH   9  29
ATOM     29  C   UNL     1      -3.378  -2.366   1.347  0.00  0.00    +0.091 C 
ATOM     30  N   UNL     1      -3.324  -3.497   1.436  0.00  0.00    -0.194 NA
ENDBRANCH   9  29
BRANCH   9  31
ATOM     31  C   UNL     1      -2.984  -0.298   2.491  0.00  0.00    +0.091 C 
ATOM     32  N   UNL     1      -2.624   0.166   3.464  0.00  0.00    -0.194 NA
ENDBRANCH   9  31
TORSDOF 6
