REMARK  Name = ZINC46338548
REMARK  7 active torsions:
REMARK  status: ('A' for Active; 'I' for Inactive)
REMARK    1  A    between atoms: C_1  and  C_2
REMARK    2  A    between atoms: N_8  and  C_9
REMARK    3  A    between atoms: C_9  and  C_11
REMARK    4  A    between atoms: C_9  and  C_12
REMARK    5  A    between atoms: C_12  and  N_13
REMARK    6  A    between atoms: N_19  and  C_22
REMARK    7  A    between atoms: C_27  and  O_28
REMARK                            x       y       z     vdW  Elec       q    Type
REMARK                         _______ _______ _______ _____ _____    ______ ____
ROOT
ATOM      1  N   UNL     1      -0.783   1.937   0.766  0.00  0.00    -0.301 N 
ATOM      2  C   UNL     1      -1.054   3.210   0.417  0.00  0.00    +0.302 C 
ATOM      3  O   UNL     1      -0.597   4.129   1.069  0.00  0.00    -0.253 OA
ATOM      4  N   UNL     1      -1.831   3.465  -0.654  0.00  0.00    -0.283 N 
ATOM      5  C   UNL     1      -2.481   2.368  -1.384  0.00  0.00    +0.128 C 
ATOM      6  C   UNL     1      -3.990   2.640  -1.436  0.00  0.00    +0.124 C 
ATOM      7  N   UNL     1      -4.202   4.020  -1.894  0.00  0.00    -0.324 N 
ATOM      8  C   UNL     1      -3.552   5.117  -1.164  0.00  0.00    +0.124 C 
ATOM      9  C   UNL     1      -2.048   4.846  -1.109  0.00  0.00    +0.128 C 
ATOM     10  H   UNL     1      -1.088   1.205   0.206  0.00  0.00    +0.150 HD
ENDROOT
BRANCH   7  11
ATOM     11  C   UNL     1      -5.009   4.285  -3.007  0.00  0.00    +0.072 A 
ATOM     12  C   UNL     1      -6.368   4.513  -2.842  0.00  0.00    +0.027 A 
ATOM     13  C   UNL     1      -7.163   4.775  -3.942  0.00  0.00    +0.002 A 
ATOM     14  C   UNL     1      -6.607   4.810  -5.208  0.00  0.00    +0.004 A 
ATOM     15  C   UNL     1      -5.254   4.584  -5.380  0.00  0.00    +0.047 A 
ATOM     16  C   UNL     1      -4.449   4.327  -4.282  0.00  0.00    +0.138 A 
BRANCH  16  17
ATOM     17  O   UNL     1      -3.117   4.109  -4.449  0.00  0.00    -0.505 OA
ATOM     18  H   UNL     1      -2.885   3.181  -4.592  0.00  0.00    +0.292 HD
ENDBRANCH  16  17
ENDBRANCH   7  11
BRANCH   1  19
ATOM     19  C   UNL     1      -0.030   1.657   1.991  0.00  0.00    +0.090 C 
BRANCH  19  20
ATOM     20  C   UNL     1       0.035   0.144   2.215  0.00  0.00    -0.054 C 
ATOM     21  C   UNL     1       0.877  -0.151   3.458  0.00  0.00    -0.012 C 
BRANCH  20  28
ATOM     22  C   UNL     1      -0.827  -2.413   1.440  0.00  0.00    -0.013 C 
ATOM     23  C   UNL     1       0.616  -1.956   1.218  0.00  0.00    -0.071 C 
ATOM     24  C   UNL     1       1.178  -2.633  -0.035  0.00  0.00    -0.016 C 
ATOM     25  C   UNL     1       2.622  -2.173  -0.253  0.00  0.00    -0.003 C 
ATOM     26  C   UNL     1       2.651  -0.646  -0.356  0.00  0.00    -0.019 C 
ATOM     27  C   UNL     1       2.035  -0.042   0.908  0.00  0.00    -0.078 C 
ATOM     28  N   UNL     1       0.646  -0.499   1.045  0.00  0.00    +0.384 N 
ATOM     29  H   UNL     1       0.127  -0.248   0.216  0.00  0.00    -0.081 HD
ENDBRANCH  20  28
ENDBRANCH  19  20
ENDBRANCH   1  19
TORSDOF 5
