REMARK  Name = ZINC06149276
REMARK  13 active torsions:
REMARK  status: ('A' for Active; 'I' for Inactive)
REMARK    1  A    between atoms: C_1  and  C_2
REMARK    2  A    between atoms: C_2  and  C_3
REMARK    3  A    between atoms: C_3  and  C_4
REMARK    4  A    between atoms: C_3  and  C_5
REMARK    5  A    between atoms: C_3  and  N_6
REMARK    6  A    between atoms: C_7  and  C_11
REMARK    7  A    between atoms: C_11  and  C_13
REMARK    8  A    between atoms: C_11  and  N_69
REMARK    9  A    between atoms: C_18  and  C_25
REMARK   10  A    between atoms: C_26  and  C_27
REMARK   11  A    between atoms: C_26  and  N_69
REMARK   12  A    between atoms: C_34  and  C_35
REMARK   13  A    between atoms: C_34  and  N_69
REMARK                            x       y       z     vdW  Elec       q    Type
REMARK                         _______ _______ _______ _____ _____    ______ ____
ROOT
ATOM      1  C   UNL     1       0.256   3.773   2.352  0.00  0.00    +0.040 C 
ENDROOT
BRANCH   1   2
ATOM      2  C   UNL     1      -0.400   2.459   2.690  0.00  0.00    +0.011 A 
ATOM      3  C   UNL     1      -0.828   2.224   3.955  0.00  0.00    +0.017 A 
ATOM      4  C   UNL     1      -1.465   0.939   4.250  0.00  0.00    -0.001 A 
ATOM      5  C   UNL     1      -1.932   0.641   5.534  0.00  0.00    +0.010 A 
ATOM      6  C   UNL     1      -2.517  -0.569   5.778  0.00  0.00    +0.004 A 
ATOM      7  C   UNL     1      -2.654  -1.505   4.762  0.00  0.00    -0.048 A 
ATOM      8  C   UNL     1      -2.201  -1.233   3.489  0.00  0.00    +0.029 A 
ATOM      9  C   UNL     1      -1.601  -0.008   3.217  0.00  0.00    +0.049 A 
ATOM     10  N   UNL     1      -1.140   0.291   1.953  0.00  0.00    -0.322 N 
ATOM     11  H   UNL     1      -1.237  -0.383   1.221  0.00  0.00    +0.169 HD
ATOM     12  C   UNL     1      -0.561   1.476   1.691  0.00  0.00    +0.251 A 
ATOM     13  O   UNL     1      -0.165   1.706   0.561  0.00  0.00    -0.268 OA
ATOM     14  C   UNL     1      -3.304  -2.833   5.054  0.00  0.00    +0.044 C 
ENDBRANCH   1   2
BRANCH   1  16
ATOM     15  N   UNL     1      -1.398   5.540   1.546  0.00  0.00    -0.225 N 
ATOM     16  C   UNL     1      -0.574   4.499   1.324  0.00  0.00    +0.143 A 
ATOM     17  N   UNL     1      -0.630   4.242   0.040  0.00  0.00    -0.115 NA
ATOM     18  N   UNL     1      -1.451   5.076  -0.498  0.00  0.00    -0.023 NA
ATOM     19  N   UNL     1      -1.915   5.864   0.409  0.00  0.00    -0.043 NA
BRANCH  15  20
ATOM     20  C   UNL     1      -1.658   6.185   2.835  0.00  0.00    +0.061 C 
ATOM     21  C   UNL     1      -2.121   5.134   3.846  0.00  0.00    +0.036 C 
ATOM     22  C   UNL     1      -0.376   6.849   3.341  0.00  0.00    +0.036 C 
BRANCH  20  24
ATOM     23  C   UNL     1      -3.020   7.917   4.012  0.00  0.00    +0.006 C 
ATOM     24  C   UNL     1      -2.748   7.244   2.665  0.00  0.00    +0.026 C 
ENDBRANCH  20  24
ENDBRANCH  15  20
ENDBRANCH   1  16
BRANCH   1  25
ATOM     25  N   UNL     1       1.596   3.515   1.784  0.00  0.00    +0.397 N 
ATOM     26  H   UNL     1       1.488   3.122   0.841  0.00  0.00    -0.079 HD
BRANCH  25  27
ATOM     27  C   UNL     1       2.323   2.544   2.628  0.00  0.00    -0.039 C 
BRANCH  27  28
ATOM     28  C   UNL     1       3.603   2.158   1.933  0.00  0.00    -0.046 A 
ATOM     29  C   UNL     1       3.627   1.068   1.083  0.00  0.00    +0.003 A 
ATOM     30  C   UNL     1       4.800   0.717   0.442  0.00  0.00    +0.000 A 
ATOM     31  C   UNL     1       5.953   1.449   0.658  0.00  0.00    +0.001 A 
ATOM     32  C   UNL     1       5.932   2.535   1.512  0.00  0.00    +0.020 A 
ATOM     33  C   UNL     1       4.756   2.891   2.150  0.00  0.00    +0.042 A 
ATOM     34 CL   UNL     1       4.729   4.255   3.224  0.00  0.00    -0.083 Cl
ENDBRANCH  27  28
ENDBRANCH  25  27
BRANCH  25  35
ATOM     35  C   UNL     1       2.359   4.777   1.694  0.00  0.00    -0.001 C 
BRANCH  35  36
ATOM     36  C   UNL     1       1.824   5.585   0.540  0.00  0.00    +0.089 A 
ATOM     37  C   UNL     1       1.318   6.829   0.618  0.00  0.00    +0.042 A 
ATOM     38  C   UNL     1       0.939   7.200  -0.693  0.00  0.00    +0.041 A 
ATOM     39  C   UNL     1       1.236   6.160  -1.493  0.00  0.00    +0.195 A 
ATOM     40  O   UNL     1       1.771   5.185  -0.741  0.00  0.00    -0.470 OA
ENDBRANCH  35  36
ENDBRANCH  25  35
ENDBRANCH   1  25
TORSDOF 9
