REMARK  Name = ZINC23473223
REMARK  8 active torsions:
REMARK  status: ('A' for Active; 'I' for Inactive)
REMARK    1  A    between atoms: C_1  and  C_2
REMARK    2  A    between atoms: C_2  and  C_4
REMARK    3  A    between atoms: C_2  and  S_18
REMARK    4  A    between atoms: C_4  and  C_6
REMARK    5  A    between atoms: C_6  and  C_16
REMARK    6  A    between atoms: S_18  and  C_19
REMARK    7  A    between atoms: N_32  and  C_33
REMARK    8  A    between atoms: C_33  and  C_34
REMARK                            x       y       z     vdW  Elec       q    Type
REMARK                         _______ _______ _______ _____ _____    ______ ____
ROOT
ATOM      1  S   UNL     1      -5.745  -3.450   0.760  0.00  0.00    -0.074 S 
ENDROOT
BRANCH   1   2
ATOM      2  C   UNL     1      -6.772  -4.880   0.827  0.00  0.00    +0.198 A 
ATOM      3  N   UNL     1      -6.447  -6.083   0.419  0.00  0.00    -0.120 NA
ATOM      4  N   UNL     1      -7.539  -6.929   0.647  0.00  0.00    -0.109 NA
ATOM      5  C   UNL     1      -8.502  -6.217   1.188  0.00  0.00    +0.240 A 
ATOM      6  N   UNL     1      -8.049  -4.932   1.318  0.00  0.00    -0.256 N 
ATOM      7  C   UNL     1      -8.869  -3.944   1.860  0.00  0.00    +0.064 A 
ATOM      8  C   UNL     1      -8.422  -2.638   1.990  0.00  0.00    +0.027 A 
ATOM      9  C   UNL     1      -9.253  -1.678   2.534  0.00  0.00    +0.002 A 
ATOM     10  C   UNL     1     -10.532  -2.009   2.953  0.00  0.00    +0.001 A 
ATOM     11  C   UNL     1     -10.992  -3.303   2.832  0.00  0.00    +0.015 A 
ATOM     12  C   UNL     1     -10.163  -4.280   2.284  0.00  0.00    +0.064 A 
ATOM     13  C   UNL     1     -10.618  -5.675   2.136  0.00  0.00    +0.263 A 
ATOM     14  O   UNL     1     -11.734  -6.003   2.492  0.00  0.00    -0.267 OA
ATOM     15  N   UNL     1      -9.775  -6.580   1.598  0.00  0.00    -0.273 N 
BRANCH  15  16
ATOM     16  C   UNL     1     -10.213  -7.970   1.445  0.00  0.00    +0.155 C 
BRANCH  16  17
ATOM     17  C   UNL     1      -9.860  -8.748   2.686  0.00  0.00    -0.013 C 
ATOM     18  C   UNL     1     -10.790  -9.404   3.335  0.00  0.00    +0.005 C 
ENDBRANCH  16  17
ENDBRANCH  15  16
ENDBRANCH   1   2
BRANCH   1  20
ATOM     19  C   UNL     1      -4.470  -4.504  -1.418  0.00  0.00    +0.028 C 
ATOM     20  C   UNL     1      -4.203  -4.052   0.019  0.00  0.00    +0.123 C 
BRANCH  20  21
ATOM     21  C   UNL     1      -3.181  -2.944   0.016  0.00  0.00    +0.189 C 
ATOM     22  O   UNL     1      -3.543  -1.784   0.026  0.00  0.00    -0.290 OA
BRANCH  21  23
ATOM     23  C   UNL     1      -1.811  -3.253   0.001  0.00  0.00    +0.123 C 
ATOM     24  C   UNL     1      -0.857  -2.218  -0.003  0.00  0.00    +0.091 C 
ATOM     25  N   UNL     1      -1.069  -0.876   0.007  0.00  0.00    -0.307 N 
ATOM     26  C   UNL     1       0.002  -0.004   0.002  0.00  0.00    +0.046 A 
ATOM     27  C   UNL     1      -0.017   1.400   0.010  0.00  0.00    +0.024 A 
ATOM     28  C   UNL     1       1.155   2.119   0.002  0.00  0.00    +0.002 A 
ATOM     29  C   UNL     1       2.386   1.485  -0.013  0.00  0.00    +0.001 A 
ATOM     30  C   UNL     1       2.434   0.102  -0.021  0.00  0.00    +0.017 A 
ATOM     31  C   UNL     1       1.263  -0.618  -0.013  0.00  0.00    +0.035 A 
ATOM     32  S   UNL     1       0.872  -2.349  -0.019  0.00  0.00    -0.071 S 
ATOM     33  H   UNL     1      -2.096  -0.482   0.019  0.00  0.00    +0.153 HD
BRANCH  23  34
ATOM     34  C   UNL     1      -1.385  -4.620  -0.012  0.00  0.00    +0.105 C 
ATOM     35  N   UNL     1      -1.047  -5.704  -0.021  0.00  0.00    -0.191 NA
ENDBRANCH  23  34
ENDBRANCH  21  23
ENDBRANCH  20  21
ENDBRANCH   1  20
TORSDOF 7
