REMARK  Name = ZINC39359546
REMARK  14 active torsions:
REMARK  status: ('A' for Active; 'I' for Inactive)
REMARK    1  A    between atoms: C_1  and  C_2
REMARK    2  A    between atoms: C_8  and  C_16
REMARK    3  A    between atoms: C_10  and  C_14
REMARK    4  A    between atoms: C_11  and  N_13
REMARK    5  A    between atoms: C_18  and  O_26
REMARK    6  A    between atoms: C_19  and  O_24
REMARK    7  A    between atoms: C_20  and  O_22
REMARK    8  A    between atoms: O_22  and  C_23
REMARK    9  A    between atoms: O_24  and  C_25
REMARK   10  A    between atoms: O_26  and  C_27
REMARK   11  A    between atoms: N_30  and  C_31
REMARK   12  A    between atoms: C_31  and  C_32
REMARK   13  A    between atoms: C_32  and  C_33
REMARK   14  A    between atoms: C_41  and  C_43
REMARK                            x       y       z     vdW  Elec       q    Type
REMARK                         _______ _______ _______ _____ _____    ______ ____
ROOT
ATOM      1  C   UNL     1      -0.019   1.526   0.010  0.00  0.00    +0.032 C 
ATOM      2  C   UNL     1       0.002  -0.004   0.002  0.00  0.00    +0.099 C 
ATOM      3  C   UNL     1      -1.404  -0.506  -0.022  0.00  0.00    +0.037 C 
ATOM      4  C   UNL     1      -1.926  -1.296   0.870  0.00  0.00    +0.118 C 
ATOM      5  C   UNL     1      -1.161  -1.819   2.058  0.00  0.00    +0.153 C 
ATOM      6  C   UNL     1      -1.919  -1.402   3.325  0.00  0.00    +0.084 C 
ATOM      7  C   UNL     1      -3.393  -1.620   3.120  0.00  0.00    +0.095 C 
ATOM      8  C   UNL     1      -3.952  -1.737   1.896  0.00  0.00    +0.198 C 
ATOM      9  O   UNL     1      -3.231  -1.691   0.756  0.00  0.00    -0.445 OA
ATOM     10  C   UNL     1       0.228  -1.268   2.102  0.00  0.00    +0.227 C 
ATOM     11  O   UNL     1       0.939  -1.584   3.032  0.00  0.00    -0.275 OA
ATOM     12  N   UNL     1       0.736  -0.471   1.165  0.00  0.00    -0.294 N 
ENDROOT
BRANCH   6  13
ATOM     13  C   UNL     1      -1.445  -2.233   4.491  0.00  0.00    -0.031 A 
ATOM     14  C   UNL     1      -1.575  -3.608   4.455  0.00  0.00    +0.054 A 
ATOM     15  C   UNL     1      -1.141  -4.376   5.525  0.00  0.00    +0.165 A 
ATOM     16  C   UNL     1      -0.574  -3.760   6.634  0.00  0.00    +0.204 A 
ATOM     17  C   UNL     1      -0.445  -2.377   6.666  0.00  0.00    +0.165 A 
ATOM     18  C   UNL     1      -0.877  -1.617   5.590  0.00  0.00    +0.054 A 
BRANCH  17  19
ATOM     19  O   UNL     1       0.109  -1.770   7.750  0.00  0.00    -0.491 OA
ATOM     20  C   UNL     1       0.210  -0.345   7.714  0.00  0.00    +0.277 C 
ENDBRANCH  17  19
BRANCH  16  21
ATOM     21  O   UNL     1      -0.147  -4.510   7.687  0.00  0.00    -0.488 OA
ATOM     22  C   UNL     1       1.208  -4.963   7.653  0.00  0.00    +0.277 C 
ENDBRANCH  16  21
BRANCH  15  23
ATOM     23  O   UNL     1      -1.270  -5.729   5.489  0.00  0.00    -0.491 OA
ATOM     24  C   UNL     1      -1.862  -6.293   4.317  0.00  0.00    +0.277 C 
ENDBRANCH  15  23
ENDBRANCH   6  13
BRANCH   8  25
ATOM     25  N   UNL     1      -5.311  -1.912   1.807  0.00  0.00    -0.328 N 
ATOM     26  H   UNL     1      -5.849  -1.948   2.613  0.00  0.00    +0.145 HD
ATOM     27  H   UNL     1      -5.733  -1.998   0.938  0.00  0.00    +0.145 HD
ENDBRANCH   8  25
BRANCH   7  28
ATOM     28  C   UNL     1      -4.241  -1.707   4.271  0.00  0.00    +0.100 C 
ATOM     29  N   UNL     1      -4.913  -1.776   5.185  0.00  0.00    -0.191 NA
ENDBRANCH   7  28
BRANCH  12  30
ATOM     30  C   UNL     1       2.122  -0.023   1.327  0.00  0.00    +0.113 C 
BRANCH  30  31
ATOM     31  C   UNL     1       2.147   1.278   2.132  0.00  0.00    +0.056 C 
BRANCH  31  32
ATOM     32  C   UNL     1       3.572   1.738   2.299  0.00  0.00    -0.018 A 
ATOM     33  C   UNL     1       4.313   2.623   1.396  0.00  0.00    +0.003 A 
ATOM     34  C   UNL     1       3.999   3.277   0.204  0.00  0.00    +0.010 A 
ATOM     35  C   UNL     1       4.939   4.054  -0.412  0.00  0.00    +0.001 A 
ATOM     36  C   UNL     1       6.205   4.199   0.139  0.00  0.00    +0.002 A 
ATOM     37  C   UNL     1       6.536   3.563   1.316  0.00  0.00    +0.026 A 
ATOM     38  C   UNL     1       5.594   2.767   1.959  0.00  0.00    +0.047 A 
ATOM     39  N   UNL     1       5.616   2.020   3.116  0.00  0.00    -0.358 N 
ATOM     40  C   UNL     1       4.401   1.419   3.305  0.00  0.00    +0.017 A 
ATOM     41  H   UNL     1       6.378   1.936   3.711  0.00  0.00    +0.166 HD
ATOM     42  C   UNL     1       4.048   0.529   4.468  0.00  0.00    +0.063 C 
ENDBRANCH  31  32
ENDBRANCH  30  31
ENDBRANCH  12  30
TORSDOF 9
