REMARK  Name = ZINC12503467
REMARK  7 active torsions:
REMARK  status: ('A' for Active; 'I' for Inactive)
REMARK    1  A    between atoms: C_10  and  C_11
REMARK    2  A    between atoms: C_12  and  C_13
REMARK    3  A    between atoms: N_15  and  C_16
REMARK    4  A    between atoms: C_16  and  N_18
REMARK    5  A    between atoms: N_18  and  N_19
REMARK    6  A    between atoms: C_20  and  C_22
REMARK    7  A    between atoms: C_27  and  N_28
REMARK                            x       y       z     vdW  Elec       q    Type
REMARK                         _______ _______ _______ _____ _____    ______ ____
ROOT
ATOM      1  C   UNL     1       0.319  -0.141  -1.911  0.00  0.00    +0.153 C 
ATOM      2  S   UNL     1      -1.096  -1.041  -2.256  0.00  0.00    -0.017 S 
ENDROOT
BRANCH   1   5
ATOM      3  C   UNL     1      -0.741   1.806  -2.643  0.00  0.00    +0.242 C 
ATOM      4  O   UNL     1      -1.745   1.165  -2.893  0.00  0.00    -0.270 OA
ATOM      5  N   UNL     1       0.345   1.188  -2.138  0.00  0.00    -0.263 N 
ATOM      6  H   UNL     1       1.146   1.698  -1.943  0.00  0.00    +0.157 HD
BRANCH   3   8
ATOM      7  C   UNL     1      -1.803   3.867  -3.395  0.00  0.00    +0.013 C 
ATOM      8  C   UNL     1      -0.713   3.246  -2.889  0.00  0.00    +0.068 C 
BRANCH   7  18
ATOM      9  C   UNL     1      -5.124   7.362  -5.224  0.00  0.00    +0.001 A 
ATOM     10  C   UNL     1      -5.189   5.989  -5.003  0.00  0.00    +0.001 A 
ATOM     11  C   UNL     1      -4.122   5.309  -4.495  0.00  0.00    +0.009 A 
ATOM     12  C   UNL     1      -2.944   6.000  -4.190  0.00  0.00    -0.011 A 
ATOM     13  C   UNL     1      -2.874   7.397  -4.413  0.00  0.00    -0.017 A 
ATOM     14  C   UNL     1      -3.993   8.065  -4.938  0.00  0.00    +0.008 A 
ATOM     15  C   UNL     1      -1.689   8.087  -4.106  0.00  0.00    +0.008 A 
ATOM     16  C   UNL     1      -0.611   7.427  -3.597  0.00  0.00    +0.001 A 
ATOM     17  C   UNL     1      -0.636   6.061  -3.357  0.00  0.00    +0.008 A 
ATOM     18  C   UNL     1      -1.774   5.313  -3.643  0.00  0.00    -0.017 A 
ENDBRANCH   7  18
ENDBRANCH   3   8
ENDBRANCH   1   5
BRANCH   1  19
ATOM     19  N   UNL     1       1.407  -0.760  -1.412  0.00  0.00    -0.245 N 
ATOM     20  H   UNL     1       1.388  -1.716  -1.248  0.00  0.00    +0.172 HD
BRANCH  19  21
ATOM     21  N   UNL     1       2.564  -0.024  -1.129  0.00  0.00    -0.231 N 
ATOM     22  C   UNL     1       3.652  -0.643  -0.630  0.00  0.00    +0.262 C 
ATOM     23  O   UNL     1       3.629  -1.841  -0.425  0.00  0.00    -0.269 OA
ATOM     24  H   UNL     1       2.583   0.932  -1.293  0.00  0.00    +0.173 HD
BRANCH  22  25
ATOM     25  C   UNL     1       4.874   0.134  -0.332  0.00  0.00    +0.068 A 
ATOM     26  C   UNL     1       4.861   1.526  -0.433  0.00  0.00    +0.015 A 
ATOM     27  C   UNL     1       6.003   2.246  -0.149  0.00  0.00    +0.001 A 
ATOM     28  C   UNL     1       7.163   1.590   0.226  0.00  0.00    +0.002 A 
ATOM     29  C   UNL     1       7.183   0.210   0.323  0.00  0.00    +0.033 A 
ATOM     30  C   UNL     1       6.046  -0.521   0.047  0.00  0.00    +0.138 A 
BRANCH  30  31
ATOM     31  N   UNL     1       6.071  -1.998   0.151  0.00  0.00    +0.057 N 
ATOM     32  O   UNL     1       6.493  -2.530   1.161  0.00  0.00    -0.126 OA
ATOM     33  O   UNL     1       5.668  -2.680  -0.775  0.00  0.00    -0.126 OA
ENDBRANCH  30  31
ENDBRANCH  22  25
ENDBRANCH  19  21
ENDBRANCH   1  19
TORSDOF 7
