REMARK  Name = ZINC39690834
REMARK  7 active torsions:
REMARK  status: ('A' for Active; 'I' for Inactive)
REMARK    1  A    between atoms: C_1  and  C_2
REMARK    2  A    between atoms: C_2  and  C_4
REMARK    3  A    between atoms: C_4  and  N_5
REMARK    4  A    between atoms: C_6  and  C_8
REMARK    5  A    between atoms: C_19  and  C_21
REMARK    6  A    between atoms: C_26  and  O_27
REMARK    7  A    between atoms: O_27  and  C_28
REMARK                            x       y       z     vdW  Elec       q    Type
REMARK                         _______ _______ _______ _____ _____    ______ ____
ROOT
ATOM      1  C   UNL     1      -3.043  -1.710  -3.414  0.00  0.00    +0.100 C 
ATOM      2  C   UNL     1      -3.823  -2.670  -2.489  0.00  0.00    +0.121 C 
ATOM      3  N   UNL     1      -4.700  -3.440  -3.402  0.00  0.00    -0.296 N 
ATOM      4  C   UNL     1      -3.858  -3.693  -4.596  0.00  0.00    +0.115 C 
ATOM      5  C   UNL     1      -3.067  -2.384  -4.795  0.00  0.00    -0.004 C 
ATOM      6  C   UNL     1      -3.775  -1.490  -5.808  0.00  0.00    -0.010 C 
ATOM      7  C   UNL     1      -3.737  -2.156  -7.186  0.00  0.00    -0.082 C 
ATOM      8  N   UNL     1      -2.342  -2.375  -7.587  0.00  0.00    +0.379 N 
ATOM      9  C   UNL     1      -1.695  -3.311  -6.659  0.00  0.00    -0.082 C 
ATOM     10  C   UNL     1      -1.647  -2.692  -5.259  0.00  0.00    -0.010 C 
ATOM     11  C   UNL     1      -5.975  -3.823  -3.195  0.00  0.00    +0.250 C 
ATOM     12  O   UNL     1      -6.567  -3.453  -2.199  0.00  0.00    -0.270 OA
ATOM     13  H   UNL     1      -2.318  -2.759  -8.520  0.00  0.00    -0.086 HD
ATOM     14  H   UNL     1      -1.848  -1.496  -7.575  0.00  0.00    -0.086 HD
ENDROOT
BRANCH  11  15
ATOM     15  C   UNL     1      -6.654  -4.690  -4.177  0.00  0.00    +0.078 A 
ATOM     16  C   UNL     1      -5.935  -5.675  -4.859  0.00  0.00    +0.017 A 
ATOM     17  C   UNL     1      -6.575  -6.482  -5.775  0.00  0.00    +0.001 A 
ATOM     18  C   UNL     1      -7.928  -6.322  -6.022  0.00  0.00    +0.004 A 
ATOM     19  C   UNL     1      -8.651  -5.353  -5.354  0.00  0.00    +0.046 A 
ATOM     20  C   UNL     1      -8.024  -4.535  -4.426  0.00  0.00    +0.132 A 
BRANCH  20  21
ATOM     21  O   UNL     1      -8.734  -3.586  -3.765  0.00  0.00    -0.494 OA
ATOM     22  C   UNL     1     -10.126  -3.487  -4.071  0.00  0.00    +0.277 C 
ENDBRANCH  20  21
ENDBRANCH  11  15
BRANCH   1  24
ATOM     23  N   UNL     1      -0.897  -0.483  -3.309  0.00  0.00    -0.311 N 
ATOM     24  C   UNL     1      -1.623  -1.554  -2.931  0.00  0.00    +0.218 C 
ATOM     25  O   UNL     1      -1.135  -2.391  -2.203  0.00  0.00    -0.275 OA
ATOM     26  H   UNL     1      -1.288   0.187  -3.892  0.00  0.00    +0.149 HD
BRANCH  23  27
ATOM     27  C   UNL     1       0.483  -0.332  -2.840  0.00  0.00    +0.134 C 
BRANCH  27  29
ATOM     28  C   UNL     1       1.687   0.940  -4.775  0.00  0.00    +0.040 C 
ATOM     29  C   UNL     1       1.067   0.939  -3.402  0.00  0.00    -0.063 C 
ATOM     30  C   UNL     1       1.037   2.042  -2.696  0.00  0.00    +0.009 C 
ENDBRANCH  27  29
ENDBRANCH  23  27
ENDBRANCH   1  24
TORSDOF 5
