REMARK  Name = ZINC08858862
REMARK  6 active torsions:
REMARK  status: ('A' for Active; 'I' for Inactive)
REMARK    1  A    between atoms: C_1  and  O_2
REMARK    2  A    between atoms: O_2  and  C_3
REMARK    3  A    between atoms: C_8  and  N_9
REMARK    4  A    between atoms: C_10  and  C_21
REMARK    5  A    between atoms: N_11  and  N_12
REMARK    6  A    between atoms: C_13  and  C_14
REMARK                            x       y       z     vdW  Elec       q    Type
REMARK                         _______ _______ _______ _____ _____    ______ ____
ROOT
ATOM      1  N   UNL     1      -5.942   2.933  -0.005  0.00  0.00    -0.293 N 
ATOM      2  C   UNL     1      -5.988   1.699   0.609  0.00  0.00    +0.171 C 
ATOM      3  N   UNL     1      -4.945   0.899   0.554  0.00  0.00    -0.132 NA
ATOM      4  H   UNL     1      -5.114   3.437  -0.020  0.00  0.00    +0.154 HD
ENDROOT
BRANCH   2   5
ATOM      5  C   UNL     1      -7.207   1.276   1.327  0.00  0.00    +0.106 A 
ATOM      6  C   UNL     1      -7.295  -0.039   1.816  0.00  0.00    +0.032 A 
ATOM      7  C   UNL     1      -8.415  -0.441   2.481  0.00  0.00    +0.012 A 
ATOM      8  C   UNL     1      -9.458   0.490   2.657  0.00  0.00    +0.000 A 
ATOM      9  C   UNL     1     -10.638   0.142   3.332  0.00  0.00    +0.010 A 
ATOM     10  C   UNL     1     -11.626   1.067   3.483  0.00  0.00    +0.001 A 
ATOM     11  C   UNL     1     -11.482   2.358   2.977  0.00  0.00    +0.002 A 
ATOM     12  C   UNL     1     -10.352   2.730   2.317  0.00  0.00    +0.028 A 
ATOM     13  C   UNL     1      -9.308   1.803   2.140  0.00  0.00    +0.072 A 
ATOM     14  N   UNL     1      -8.188   2.144   1.501  0.00  0.00    -0.244 NA
ENDBRANCH   2   5
BRANCH   1  20
ATOM     15  C   UNL     1      -7.132   4.797  -0.987  0.00  0.00    +0.141 A 
ATOM     16  C   UNL     1      -8.272   5.311  -1.583  0.00  0.00    +0.047 A 
ATOM     17  C   UNL     1      -9.367   4.494  -1.800  0.00  0.00    +0.004 A 
ATOM     18  C   UNL     1      -9.327   3.164  -1.425  0.00  0.00    +0.002 A 
ATOM     19  C   UNL     1      -8.192   2.642  -0.834  0.00  0.00    +0.027 A 
ATOM     20  C   UNL     1      -7.091   3.457  -0.608  0.00  0.00    +0.075 A 
BRANCH  15  22
ATOM     21  C   UNL     1      -6.168   6.962  -1.188  0.00  0.00    +0.277 C 
ATOM     22  O   UNL     1      -6.055   5.599  -0.774  0.00  0.00    -0.493 OA
ENDBRANCH  15  22
ENDBRANCH   1  20
BRANCH   3  23
ATOM     23  N   UNL     1      -3.918   1.224  -0.155  0.00  0.00    -0.155 NA
ATOM     24  C   UNL     1      -2.923   0.387  -0.288  0.00  0.00    +0.143 C 
BRANCH  24  25
ATOM     25  C   UNL     1      -1.706   0.798  -1.004  0.00  0.00    -0.005 A 
ATOM     26  C   UNL     1      -0.599  -0.056  -1.057  0.00  0.00    +0.010 A 
ATOM     27  C   UNL     1       0.536   0.335  -1.734  0.00  0.00    +0.016 A 
ATOM     28  C   UNL     1       0.585   1.571  -2.357  0.00  0.00    +0.018 A 
ATOM     29  C   UNL     1      -0.506   2.424  -2.304  0.00  0.00    +0.016 A 
ATOM     30  C   UNL     1      -1.648   2.048  -1.631  0.00  0.00    +0.010 A 
ATOM     31 BR   UNL     1       2.147   2.097  -3.284  0.00  0.00    -0.050 Br
ENDBRANCH  24  25
ENDBRANCH   3  23
TORSDOF 5
