REMARK  Name = ZINC20748538
REMARK  10 active torsions:
REMARK  status: ('A' for Active; 'I' for Inactive)
REMARK    1  A    between atoms: C_1  and  C_2
REMARK    2  A    between atoms: C_2  and  O_3
REMARK    3  A    between atoms: O_3  and  C_4
REMARK    4  A    between atoms: C_7  and  N_10
REMARK    5  A    between atoms: N_10  and  S_11
REMARK    6  A    between atoms: S_11  and  C_14
REMARK    7  A    between atoms: C_27  and  C_30
REMARK    8  A    between atoms: C_35  and  O_36
REMARK    9  A    between atoms: O_36  and  C_37
REMARK   10  A    between atoms: C_37  and  C_38
REMARK                            x       y       z     vdW  Elec       q    Type
REMARK                         _______ _______ _______ _____ _____    ______ ____
ROOT
ATOM      1  C   UNL     1      -1.274  -0.447  -0.379  0.00  0.00    +0.109 A 
ATOM      2  C   UNL     1      -2.178  -1.440  -0.709  0.00  0.00    +0.030 A 
ATOM      3  C   UNL     1      -1.761  -2.755  -0.762  0.00  0.00    +0.025 A 
ATOM      4  C   UNL     1      -0.438  -3.076  -0.485  0.00  0.00    +0.031 A 
ATOM      5  C   UNL     1       0.473  -2.084  -0.157  0.00  0.00    -0.018 A 
ATOM      6  C   UNL     1       0.042  -0.765  -0.111  0.00  0.00    +0.034 A 
ATOM      7  C   UNL     1       1.908  -2.381   0.143  0.00  0.00    +0.049 C 
ATOM      8  C   UNL     1       2.193  -2.289   1.623  0.00  0.00    -0.023 C 
ATOM      9  C   UNL     1       3.066  -3.202   1.974  0.00  0.00    -0.030 C 
ATOM     10  C   UNL     1       3.486  -4.025   0.772  0.00  0.00    +0.033 C 
ATOM     11  C   UNL     1       2.315  -3.819  -0.233  0.00  0.00    +0.029 C 
ATOM     12  C   UNL     1       1.202  -4.796   0.158  0.00  0.00    +0.108 C 
ATOM     13  N   UNL     1      -0.031  -4.414  -0.539  0.00  0.00    -0.336 N 
ATOM     14  H   UNL     1      -0.611  -5.172  -1.085  0.00  0.00    +0.147 HD
ENDROOT
BRANCH  12  15
ATOM     15  C   UNL     1       0.979  -4.737   1.647  0.00  0.00    +0.015 A 
ATOM     16  C   UNL     1       0.075  -3.836   2.176  0.00  0.00    +0.009 A 
ATOM     17  C   UNL     1      -0.130  -3.782   3.542  0.00  0.00    +0.001 A 
ATOM     18  C   UNL     1       0.569  -4.630   4.382  0.00  0.00    +0.004 A 
ATOM     19  C   UNL     1       1.473  -5.533   3.858  0.00  0.00    +0.046 A 
ATOM     20  C   UNL     1       1.677  -5.592   2.487  0.00  0.00    +0.125 A 
BRANCH  20  21
ATOM     21  O   UNL     1       2.562  -6.483   1.969  0.00  0.00    -0.492 OA
BRANCH  21  22
ATOM     22  C   UNL     1       3.245  -7.332   2.893  0.00  0.00    +0.225 C 
ATOM     23  C   UNL     1       4.193  -8.260   2.130  0.00  0.00    +0.048 C 
ENDBRANCH  21  22
ENDBRANCH  20  21
ENDBRANCH  12  15
BRANCH   1  24
ATOM     24  S   UNL     1      -1.803   1.232  -0.308  0.00  0.00    +0.072 S 
ATOM     25  O   UNL     1      -0.631   2.031  -0.399  0.00  0.00    -0.150 OA
ATOM     26  O   UNL     1      -2.883   1.357  -1.224  0.00  0.00    -0.150 OA
BRANCH  24  27
ATOM     27  N   UNL     1      -2.431   1.484   1.203  0.00  0.00    -0.216 N 
ATOM     28  H   UNL     1      -1.969   2.222   1.875  0.00  0.00    +0.174 HD
BRANCH  27  32
ATOM     29  C   UNL     1      -5.766  -0.677   2.460  0.00  0.00    +0.121 A 
ATOM     30  C   UNL     1      -4.672  -0.539   3.301  0.00  0.00    +0.047 A 
ATOM     31  C   UNL     1      -3.567   0.177   2.886  0.00  0.00    +0.028 A 
ATOM     32  C   UNL     1      -3.551   0.759   1.625  0.00  0.00    +0.048 A 
ATOM     33  C   UNL     1      -4.649   0.625   0.785  0.00  0.00    +0.028 A 
ATOM     34  C   UNL     1      -5.751  -0.097   1.201  0.00  0.00    +0.047 A 
BRANCH  29  35
ATOM     35  O   UNL     1      -6.854  -1.382   2.871  0.00  0.00    -0.492 OA
BRANCH  35  37
ATOM     36  C   UNL     1      -9.069  -2.307   2.586  0.00  0.00    +0.048 C 
ATOM     37  C   UNL     1      -7.946  -1.483   1.953  0.00  0.00    +0.225 C 
ENDBRANCH  35  37
ENDBRANCH  29  35
ENDBRANCH  27  32
ENDBRANCH  24  27
ENDBRANCH   1  24
TORSDOF 8
