REMARK  Name = ZINC36358582
REMARK  5 active torsions:
REMARK  status: ('A' for Active; 'I' for Inactive)
REMARK    1  A    between atoms: C_4  and  C_7
REMARK    2  A    between atoms: C_7  and  O_8
REMARK    3  A    between atoms: O_8  and  C_9
REMARK    4  A    between atoms: C_12  and  C_16
REMARK    5  A    between atoms: C_16  and  N_18
REMARK                            x       y       z     vdW  Elec       q    Type
REMARK                         _______ _______ _______ _____ _____    ______ ____
ROOT
ATOM      1  C   UNL     1       5.333  -1.580   1.462  0.00  0.00    +0.202 A 
ATOM      2  C   UNL     1       6.046  -1.990   0.386  0.00  0.00    +0.245 A 
ATOM      3  O   UNL     1       7.205  -2.643   0.536  0.00  0.00    -0.454 OA
ATOM      4  C   UNL     1       7.715  -2.923   1.746  0.00  0.00    +0.195 A 
ATOM      5  C   UNL     1       7.064  -2.548   2.878  0.00  0.00    +0.106 A 
ATOM      6  C   UNL     1       5.835  -1.847   2.764  0.00  0.00    +0.227 A 
ATOM      7  O   UNL     1       5.222  -1.489   3.758  0.00  0.00    -0.284 OA
ENDROOT
BRANCH   4   8
ATOM      8  C   UNL     1       9.002  -3.649   1.848  0.00  0.00    +0.306 C 
ATOM      9  O   UNL     1       9.471  -3.907   2.943  0.00  0.00    -0.265 OA
BRANCH   8  10
ATOM     10  N   UNL     1       9.649  -4.022   0.740  0.00  0.00    -0.140 NA
ATOM     11  C   UNL     1      10.851  -4.580   0.828  0.00  0.00    +0.199 A 
ATOM     12  N   UNL     1      11.475  -4.928   1.984  0.00  0.00    -0.326 N 
ATOM     13  H   UNL     1      11.120  -4.812   2.879  0.00  0.00    +0.169 HD
ATOM     14  C   UNL     1      12.711  -5.479   1.664  0.00  0.00    +0.065 A 
ATOM     15  C   UNL     1      13.745  -5.996   2.432  0.00  0.00    +0.028 A 
ATOM     16  C   UNL     1      14.880  -6.486   1.817  0.00  0.00    +0.002 A 
ATOM     17  C   UNL     1      14.991  -6.465   0.437  0.00  0.00    +0.002 A 
ATOM     18  C   UNL     1      13.968  -5.953  -0.336  0.00  0.00    +0.028 A 
ATOM     19  C   UNL     1      12.823  -5.458   0.272  0.00  0.00    +0.065 A 
ATOM     20  N   UNL     1      11.651  -4.899  -0.225  0.00  0.00    -0.326 N 
ATOM     21  H   UNL     1      11.440  -4.759  -1.161  0.00  0.00    +0.169 HD
ENDBRANCH   8  10
ENDBRANCH   4   8
BRANCH   1  22
ATOM     22  O   UNL     1       4.157  -0.917   1.298  0.00  0.00    -0.481 OA
BRANCH  22  23
ATOM     23  C   UNL     1       3.723  -0.688  -0.044  0.00  0.00    +0.264 C 
BRANCH  23  27
ATOM     24  C   UNL     1       0.004   1.414  -0.001  0.00  0.00    +0.000 A 
ATOM     25  C   UNL     1       1.195   2.116  -0.020  0.00  0.00    +0.000 A 
ATOM     26  C   UNL     1       2.398   1.436  -0.033  0.00  0.00    +0.007 A 
ATOM     27  C   UNL     1       2.411   0.053  -0.028  0.00  0.00    -0.010 A 
ATOM     28  C   UNL     1       1.220  -0.649  -0.008  0.00  0.00    +0.007 A 
ATOM     29  C   UNL     1       0.017   0.032   0.004  0.00  0.00    +0.000 A 
ENDBRANCH  23  27
ENDBRANCH  22  23
ENDBRANCH   1  22
TORSDOF 5
