REMARK  Name = ZINC11429930
REMARK  8 active torsions:
REMARK  status: ('A' for Active; 'I' for Inactive)
REMARK    1  A    between atoms: C_1  and  C_2
REMARK    2  A    between atoms: C_2  and  C_4
REMARK    3  A    between atoms: C_2  and  S_19
REMARK    4  A    between atoms: N_6  and  C_7
REMARK    5  A    between atoms: C_8  and  C_17
REMARK    6  A    between atoms: S_19  and  C_20
REMARK    7  A    between atoms: N_24  and  C_25
REMARK    8  A    between atoms: C_25  and  C_26
REMARK                            x       y       z     vdW  Elec       q    Type
REMARK                         _______ _______ _______ _____ _____    ______ ____
ROOT
ATOM      1  C   UNL     1       2.610  -0.253  -1.057  0.00  0.00    +0.029 C 
ATOM      2  C   UNL     1       2.498   0.966  -0.139  0.00  0.00    +0.137 C 
ENDROOT
BRANCH   2   3
ATOM      3  C   UNL     1       1.301   1.788  -0.540  0.00  0.00    +0.231 C 
ATOM      4  O   UNL     1       1.437   2.730  -1.292  0.00  0.00    -0.274 OA
ATOM      5  N   UNL     1       0.079   1.478  -0.063  0.00  0.00    -0.278 N 
ATOM      6  H   UNL     1      -0.030   0.725   0.539  0.00  0.00    +0.155 HD
BRANCH   5   7
ATOM      7  C   UNL     1      -1.024   2.232  -0.437  0.00  0.00    +0.090 A 
ATOM      8  C   UNL     1      -2.347   2.068  -0.061  0.00  0.00    +0.084 A 
ATOM      9  C   UNL     1      -3.326   3.005  -0.595  0.00  0.00    -0.018 A 
ATOM     10  C   UNL     1      -2.821   3.944  -1.424  0.00  0.00    -0.004 A 
ATOM     11  S   UNL     1      -1.081   3.612  -1.482  0.00  0.00    -0.077 S 
ATOM     12  C   UNL     1      -3.563   5.029  -2.139  0.00  0.00    +0.043 C 
ATOM     13  C   UNL     1      -4.475   5.758  -1.143  0.00  0.00    +0.005 C 
ATOM     14  C   UNL     1      -5.827   5.051  -1.117  0.00  0.00    +0.001 C 
ATOM     15  C   UNL     1      -5.641   3.553  -1.351  0.00  0.00    +0.005 C 
ATOM     16  C   UNL     1      -4.804   2.938  -0.233  0.00  0.00    +0.037 C 
BRANCH   8  17
ATOM     17  C   UNL     1      -2.739   1.012   0.824  0.00  0.00    +0.102 C 
ATOM     18  N   UNL     1      -3.050   0.175   1.526  0.00  0.00    -0.191 NA
ENDBRANCH   8  17
ENDBRANCH   5   7
ENDBRANCH   2   3
BRANCH   2  19
ATOM     19  S   UNL     1       4.000   1.973  -0.284  0.00  0.00    -0.073 S 
BRANCH  19  20
ATOM     20  C   UNL     1       5.273   0.934   0.352  0.00  0.00    +0.194 A 
ATOM     21  N   UNL     1       5.116  -0.283   0.813  0.00  0.00    -0.121 NA
ATOM     22  N   UNL     1       6.370  -0.757   1.219  0.00  0.00    -0.112 NA
ATOM     23  C   UNL     1       7.252   0.185   0.993  0.00  0.00    +0.221 A 
ATOM     24  N   UNL     1       6.598   1.253   0.447  0.00  0.00    -0.283 N 
ATOM     25  N   UNL     1       8.613   0.109   1.257  0.00  0.00    -0.300 N 
ATOM     26  C   UNL     1       8.894   0.388   2.689  0.00  0.00    +0.108 C 
ATOM     27  C   UNL     1      10.294  -0.239   2.905  0.00  0.00    +0.020 C 
ATOM     28  C   UNL     1      10.238  -1.518   2.038  0.00  0.00    +0.020 C 
ATOM     29  C   UNL     1       9.128  -1.254   1.003  0.00  0.00    +0.108 C 
BRANCH  24  30
ATOM     30  C   UNL     1       7.210   2.519   0.037  0.00  0.00    +0.201 C 
BRANCH  30  31
ATOM     31  C   UNL     1       7.629   2.430  -1.408  0.00  0.00    +0.125 A 
ATOM     32  C   UNL     1       6.904   2.840  -2.464  0.00  0.00    +0.046 A 
ATOM     33  C   UNL     1       7.674   2.571  -3.619  0.00  0.00    +0.041 A 
ATOM     34  C   UNL     1       8.821   2.006  -3.200  0.00  0.00    +0.195 A 
ATOM     35  O   UNL     1       8.788   1.923  -1.860  0.00  0.00    -0.466 OA
ENDBRANCH  30  31
ENDBRANCH  24  30
ENDBRANCH  19  20
ENDBRANCH   2  19
TORSDOF 7
