REMARK  Name = ZINC58952545
REMARK  6 active torsions:
REMARK  status: ('A' for Active; 'I' for Inactive)
REMARK    1  A    between atoms: C_1  and  C_2
REMARK    2  A    between atoms: N_8  and  C_9
REMARK    3  A    between atoms: C_9  and  C_10
REMARK    4  A    between atoms: C_15  and  C_16
REMARK    5  A    between atoms: C_16  and  N_17
REMARK    6  A    between atoms: C_18  and  C_20
REMARK                            x       y       z     vdW  Elec       q    Type
REMARK                         _______ _______ _______ _____ _____    ______ ____
ROOT
ATOM      1  C   UNL     1       3.281  -2.538   1.215  0.00  0.00    +0.140 C 
ENDROOT
BRANCH   1   7
ATOM      2  C   UNL     1       2.527  -0.329   2.119  0.00  0.00    -0.059 A 
ATOM      3  C   UNL     1       2.428   0.593   3.145  0.00  0.00    +0.002 A 
ATOM      4  C   UNL     1       2.983   0.316   4.379  0.00  0.00    +0.000 A 
ATOM      5  C   UNL     1       3.638  -0.883   4.590  0.00  0.00    +0.000 A 
ATOM      6  C   UNL     1       3.737  -1.805   3.565  0.00  0.00    +0.005 A 
ATOM      7  C   UNL     1       3.178  -1.530   2.331  0.00  0.00    -0.029 A 
BRANCH   2   8
ATOM      8  C   UNL     1       1.921  -0.027   0.773  0.00  0.00    -0.042 C 
BRANCH   8  15
ATOM      9  C   UNL     1       1.766  -0.649  -1.961  0.00  0.00    -0.013 C 
ATOM     10  C   UNL     1       2.396   0.658  -1.474  0.00  0.00    -0.071 C 
ATOM     11  C   UNL     1       3.499   1.084  -2.445  0.00  0.00    -0.016 C 
ATOM     12  C   UNL     1       4.127   2.392  -1.955  0.00  0.00    -0.003 C 
ATOM     13  C   UNL     1       4.652   2.192  -0.530  0.00  0.00    -0.019 C 
ATOM     14  C   UNL     1       3.506   1.724   0.370  0.00  0.00    -0.078 C 
ATOM     15  N   UNL     1       2.968   0.457  -0.138  0.00  0.00    +0.384 N 
ATOM     16  H   UNL     1       3.708  -0.226  -0.189  0.00  0.00    -0.081 HD
ENDBRANCH   8  15
ENDBRANCH   2   8
ENDBRANCH   1   7
BRANCH   1  17
ATOM     17  N   UNL     1       4.392  -2.176   0.331  0.00  0.00    -0.306 N 
ATOM     18  C   UNL     1       4.610  -2.878  -0.799  0.00  0.00    +0.265 C 
ATOM     19  O   UNL     1       3.885  -3.811  -1.085  0.00  0.00    -0.268 OA
ATOM     20  H   UNL     1       4.970  -1.432   0.559  0.00  0.00    +0.149 HD
BRANCH  18  21
ATOM     21  C   UNL     1       5.730  -2.513  -1.689  0.00  0.00    +0.153 A 
ATOM     22  C   UNL     1       5.972  -3.269  -2.928  0.00  0.00    +0.020 A 
ATOM     23  C   UNL     1       5.182  -4.344  -3.322  0.00  0.00    +0.011 A 
ATOM     24  C   UNL     1       5.473  -5.003  -4.497  0.00  0.00    +0.001 A 
ATOM     25  C   UNL     1       6.544  -4.607  -5.288  0.00  0.00    +0.001 A 
ATOM     26  C   UNL     1       7.340  -3.545  -4.916  0.00  0.00    +0.014 A 
ATOM     27  C   UNL     1       7.062  -2.866  -3.734  0.00  0.00    +0.050 A 
ATOM     28  C   UNL     1       7.858  -1.724  -3.263  0.00  0.00    +0.272 A 
ATOM     29  O   UNL     1       8.811  -1.322  -3.905  0.00  0.00    -0.266 OA
ATOM     30  N   UNL     1       7.509  -1.133  -2.102  0.00  0.00    -0.242 N 
ATOM     31  H   UNL     1       8.037  -0.379  -1.794  0.00  0.00    +0.192 HD
ATOM     32  N   UNL     1       6.516  -1.508  -1.388  0.00  0.00    -0.166 NA
ENDBRANCH  18  21
ENDBRANCH   1  17
TORSDOF 5
