REMARK  Name = ZINC59384952
REMARK  6 active torsions:
REMARK  status: ('A' for Active; 'I' for Inactive)
REMARK    1  A    between atoms: C_1  and  C_2
REMARK    2  A    between atoms: C_3  and  C_18
REMARK    3  A    between atoms: C_4  and  C_10
REMARK    4  A    between atoms: N_20  and  N_21
REMARK    5  A    between atoms: C_22  and  C_23
REMARK    6  A    between atoms: C_28  and  N_29
REMARK                            x       y       z     vdW  Elec       q    Type
REMARK                         _______ _______ _______ _____ _____    ______ ____
ROOT
ATOM      1  C   UNL     1       0.747   1.299  -0.103  0.00  0.00    +0.061 C 
ATOM      2  C   UNL     1       0.495  -0.185  -0.043  0.00  0.00    +0.017 C 
ATOM      3  C   UNL     1      -0.769  -0.649  -0.131  0.00  0.00    +0.057 C 
ATOM      4  C   UNL     1      -0.977  -2.149  -0.066  0.00  0.00    +0.141 C 
ATOM      5  N   UNL     1       0.227  -2.983   0.089  0.00  0.00    -0.315 N 
ATOM      6  C   UNL     1       1.426  -2.372   0.163  0.00  0.00    +0.135 C 
ATOM      7  S   UNL     1       2.834  -3.329   0.343  0.00  0.00    -0.019 S 
ATOM      8  N   UNL     1       1.552  -1.040   0.095  0.00  0.00    -0.300 N 
ATOM      9  H   UNL     1       0.159  -3.949   0.137  0.00  0.00    +0.149 HD
ATOM     10  H   UNL     1       2.443  -0.661   0.151  0.00  0.00    +0.154 HD
ENDROOT
BRANCH   4  11
ATOM     11  C   UNL     1      -1.677  -2.576  -1.331  0.00  0.00    -0.004 A 
ATOM     12  C   UNL     1      -0.938  -2.978  -2.428  0.00  0.00    +0.008 A 
ATOM     13  C   UNL     1      -1.580  -3.370  -3.587  0.00  0.00    +0.020 A 
ATOM     14  C   UNL     1      -2.962  -3.360  -3.651  0.00  0.00    +0.042 A 
ATOM     15  C   UNL     1      -3.702  -2.958  -2.554  0.00  0.00    +0.040 A 
ATOM     16  C   UNL     1      -3.059  -2.571  -1.391  0.00  0.00    +0.048 A 
ATOM     17 CL   UNL     1      -3.987  -2.072  -0.011  0.00  0.00    -0.083 Cl
ATOM     18 CL   UNL     1      -3.768  -3.852  -5.108  0.00  0.00    -0.083 Cl
ENDBRANCH   4  11
BRANCH   3  19
ATOM     19  C   UNL     1      -1.865   0.236  -0.279  0.00  0.00    +0.263 C 
ATOM     20  O   UNL     1      -2.572   0.494   0.678  0.00  0.00    -0.269 OA
ATOM     21  N   UNL     1      -2.125   0.792  -1.479  0.00  0.00    -0.203 N 
ATOM     22  H   UNL     1      -1.607   0.531  -2.257  0.00  0.00    +0.178 HD
BRANCH  21  23
ATOM     23  N   UNL     1      -3.143   1.746  -1.603  0.00  0.00    -0.187 NA
ATOM     24  C   UNL     1      -3.329   2.352  -2.735  0.00  0.00    +0.140 C 
BRANCH  24  25
ATOM     25  C   UNL     1      -4.326   3.434  -2.836  0.00  0.00    +0.025 A 
ATOM     26  C   UNL     1      -4.966   3.910  -1.688  0.00  0.00    +0.012 A 
ATOM     27  C   UNL     1      -5.896   4.922  -1.791  0.00  0.00    +0.001 A 
ATOM     28  C   UNL     1      -6.198   5.467  -3.026  0.00  0.00    +0.002 A 
ATOM     29  C   UNL     1      -5.569   5.001  -4.168  0.00  0.00    +0.033 A 
ATOM     30  C   UNL     1      -4.632   3.993  -4.080  0.00  0.00    +0.135 A 
BRANCH  30  31
ATOM     31  N   UNL     1      -3.955   3.501  -5.301  0.00  0.00    +0.057 N 
ATOM     32  O   UNL     1      -4.131   4.061  -6.357  0.00  0.00    -0.126 OA
ATOM     33  O   UNL     1      -3.226   2.538  -5.241  0.00  0.00    -0.126 OA
ENDBRANCH  30  31
ENDBRANCH  24  25
ENDBRANCH  21  23
ENDBRANCH   3  19
TORSDOF 5
