REMARK  Name = ZINC05460046
REMARK  3 active torsions:
REMARK  status: ('A' for Active; 'I' for Inactive)
REMARK    1  A    between atoms: C_1  and  C_2
REMARK    2  A    between atoms: C_4  and  C_8
REMARK    3  A    between atoms: C_14  and  C_17
REMARK                            x       y       z     vdW  Elec       q    Type
REMARK                         _______ _______ _______ _____ _____    ______ ____
ROOT
ATOM      1  C   UNL     1       0.040  -3.318  -1.580  0.00  0.00    +0.203 A 
ATOM      2  N   UNL     1      -0.236  -3.357  -2.870  0.00  0.00    -0.125 NA
ATOM      3  N   UNL     1      -0.125  -4.566  -3.313  0.00  0.00    -0.120 NA
ATOM      4  C   UNL     1       0.223  -5.353  -2.346  0.00  0.00    +0.213 A 
ATOM      5  N   UNL     1       0.344  -4.595  -1.198  0.00  0.00    -0.185 N 
ATOM      6  N   UNL     1       0.696  -5.135   0.034  0.00  0.00    -0.166 NA
ATOM      7  C   UNL     1       1.265  -6.275   0.186  0.00  0.00    +0.079 C 
ATOM      8  C   UNL     1       1.695  -7.211  -0.905  0.00  0.00    +0.135 C 
ATOM      9  S   UNL     1       0.539  -7.090  -2.314  0.00  0.00    -0.078 S 
ENDROOT
BRANCH   1  13
ATOM     10  C   UNL     1      -0.018   1.503   0.010  0.00  0.00    +0.067 C 
ATOM     11  C   UNL     1       0.002  -0.004   0.002  0.00  0.00    +0.060 A 
ATOM     12  C   UNL     1       0.008  -0.810  -1.135  0.00  0.00    +0.055 A 
ATOM     13  C   UNL     1       0.028  -2.125  -0.717  0.00  0.00    +0.105 A 
ATOM     14  N   UNL     1       0.034  -2.110   0.648  0.00  0.00    -0.274 N 
ATOM     15  H   UNL     1       0.049  -2.888   1.228  0.00  0.00    +0.189 HD
ATOM     16  N   UNL     1       0.023  -0.772   1.062  0.00  0.00    -0.179 NA
ENDBRANCH   1  13
BRANCH   7  17
ATOM     17  C   UNL     1       1.522  -6.709   1.572  0.00  0.00    -0.001 A 
ATOM     18  C   UNL     1       2.143  -7.936   1.820  0.00  0.00    +0.011 A 
ATOM     19  C   UNL     1       2.380  -8.335   3.119  0.00  0.00    +0.016 A 
ATOM     20  C   UNL     1       2.004  -7.523   4.176  0.00  0.00    +0.018 A 
ATOM     21  C   UNL     1       1.388  -6.306   3.937  0.00  0.00    +0.016 A 
ATOM     22  C   UNL     1       1.151  -5.892   2.643  0.00  0.00    +0.011 A 
ATOM     23 BR   UNL     1       2.333  -8.080   5.953  0.00  0.00    -0.050 Br
ENDBRANCH   7  17
TORSDOF 2
