REMARK  Name = ZINC03338831
REMARK  5 active torsions:
REMARK  status: ('A' for Active; 'I' for Inactive)
REMARK    1  A    between atoms: C_4  and  C_7
REMARK    2  A    between atoms: C_16  and  C_28
REMARK    3  A    between atoms: C_18  and  C_21
REMARK    4  A    between atoms: C_28  and  C_30
REMARK    5  A    between atoms: C_35  and  O_36
REMARK                            x       y       z     vdW  Elec       q    Type
REMARK                         _______ _______ _______ _____ _____    ______ ____
ROOT
ATOM      1  C   UNL     1      -0.876   7.550  -0.161  0.00  0.00    +0.004 A 
ATOM      2  C   UNL     1      -2.081   8.161  -0.244  0.00  0.00    +0.056 A 
ATOM      3  S   UNL     1      -3.233   6.803  -0.288  0.00  0.00    -0.076 S 
ATOM      4  C   UNL     1      -2.083   5.455  -0.195  0.00  0.00    +0.116 A 
ATOM      5  C   UNL     1      -0.828   6.091  -0.131  0.00  0.00    +0.080 A 
ATOM      6  C   UNL     1       0.305   5.230  -0.048  0.00  0.00    +0.267 A 
ATOM      7  O   UNL     1       1.429   5.699   0.010  0.00  0.00    -0.267 OA
ATOM      8  N   UNL     1       0.126   3.894  -0.035  0.00  0.00    -0.266 N 
ATOM      9  C   UNL     1       1.214   3.083   0.044  0.00  0.00    +0.108 A 
ATOM     10  C   UNL     1       1.093   1.711   0.060  0.00  0.00    +0.040 A 
ATOM     11  C   UNL     1      -0.177   1.100  -0.005  0.00  0.00    +0.030 A 
ATOM     12  C   UNL     1      -1.305   1.900  -0.091  0.00  0.00    +0.080 A 
ATOM     13  C   UNL     1      -1.135   3.357  -0.102  0.00  0.00    +0.154 A 
ATOM     14  N   UNL     1      -2.202   4.137  -0.178  0.00  0.00    -0.221 NA
ENDROOT
BRANCH  12  15
ATOM     15  C   UNL     1      -2.648   1.300  -0.167  0.00  0.00    +0.250 C 
ATOM     16  O   UNL     1      -3.198   1.175  -1.244  0.00  0.00    -0.270 OA
ATOM     17  N   UNL     1      -3.267   0.890   0.958  0.00  0.00    -0.297 N 
ATOM     18  C   UNL     1      -2.678   0.878   2.305  0.00  0.00    +0.108 C 
ATOM     19  C   UNL     1      -3.742   0.308   3.266  0.00  0.00    +0.020 C 
ATOM     20  C   UNL     1      -4.664  -0.503   2.318  0.00  0.00    +0.020 C 
ATOM     21  C   UNL     1      -4.645   0.372   1.040  0.00  0.00    +0.108 C 
ENDBRANCH  12  15
BRANCH   1  25
ATOM     22  C   UNL     1       2.703   9.837   0.013  0.00  0.00    +0.000 A 
ATOM     23  C   UNL     1       1.765  10.100  -0.969  0.00  0.00    +0.001 A 
ATOM     24  C   UNL     1       0.601   9.361  -1.030  0.00  0.00    +0.008 A 
ATOM     25  C   UNL     1       0.372   8.348  -0.100  0.00  0.00    -0.017 A 
ATOM     26  C   UNL     1       1.319   8.092   0.891  0.00  0.00    +0.008 A 
ATOM     27  C   UNL     1       2.482   8.833   0.939  0.00  0.00    +0.001 A 
ENDBRANCH   1  25
BRANCH  10  28
ATOM     28  C   UNL     1       2.303   0.872   0.146  0.00  0.00    +0.198 C 
ATOM     29  O   UNL     1       3.094   0.848  -0.778  0.00  0.00    -0.286 OA
BRANCH  28  30
ATOM     30  C   UNL     1       2.555   0.061   1.353  0.00  0.00    +0.064 A 
ATOM     31  C   UNL     1       1.607   0.016   2.379  0.00  0.00    +0.015 A 
ATOM     32  C   UNL     1       1.847  -0.746   3.502  0.00  0.00    +0.001 A 
ATOM     33  C   UNL     1       3.028  -1.461   3.623  0.00  0.00    +0.004 A 
ATOM     34  C   UNL     1       3.975  -1.421   2.619  0.00  0.00    +0.046 A 
ATOM     35  C   UNL     1       3.749  -0.663   1.479  0.00  0.00    +0.128 A 
BRANCH  35  36
ATOM     36  O   UNL     1       4.679  -0.622   0.492  0.00  0.00    -0.506 OA
ATOM     37  H   UNL     1       5.330   0.086   0.594  0.00  0.00    +0.292 HD
ENDBRANCH  35  36
ENDBRANCH  28  30
ENDBRANCH  10  28
TORSDOF 5
