REMARK  Name = ZINC20262766
REMARK  4 active torsions:
REMARK  status: ('A' for Active; 'I' for Inactive)
REMARK    1  A    between atoms: C_3  and  N_16
REMARK    2  A    between atoms: C_4  and  N_15
REMARK    3  A    between atoms: C_6  and  S_7
REMARK    4  A    between atoms: S_7  and  N_10
REMARK                            x       y       z     vdW  Elec       q    Type
REMARK                         _______ _______ _______ _____ _____    ______ ____
ROOT
ATOM      1  C   UNL     1      -2.035   5.395   3.786  0.00  0.00    +0.030 A 
ATOM      2  C   UNL     1      -1.216   4.880   2.797  0.00  0.00    +0.027 A 
ATOM      3  C   UNL     1      -1.200   3.516   2.552  0.00  0.00    +0.051 A 
ATOM      4  C   UNL     1      -2.015   2.667   3.300  0.00  0.00    +0.048 A 
ATOM      5  C   UNL     1      -2.829   3.191   4.293  0.00  0.00    +0.053 A 
ATOM      6  C   UNL     1      -2.839   4.553   4.531  0.00  0.00    +0.107 A 
ENDROOT
BRANCH   3   7
ATOM      7  N   UNL     1      -0.372   2.993   1.551  0.00  0.00    -0.324 N 
ATOM      8  C   UNL     1       0.206   4.067   0.731  0.00  0.00    +0.133 C 
ATOM      9  C   UNL     1       1.055   3.449  -0.384  0.00  0.00    +0.178 C 
ATOM     10  O   UNL     1       2.057   2.609   0.195  0.00  0.00    -0.377 OA
ATOM     11  C   UNL     1       1.528   1.552   0.999  0.00  0.00    +0.178 C 
ATOM     12  C   UNL     1       0.685   2.150   2.129  0.00  0.00    +0.133 C 
ENDBRANCH   3   7
BRANCH   6  13
ATOM     13  S   UNL     1      -3.880   5.217   5.788  0.00  0.00    +0.061 S 
ATOM     14  O   UNL     1      -4.127   4.164   6.709  0.00  0.00    -0.153 OA
ATOM     15  O   UNL     1      -3.302   6.454   6.182  0.00  0.00    -0.153 OA
BRANCH  13  16
ATOM     16  N   UNL     1      -5.333   5.578   5.080  0.00  0.00    -0.177 NA
ATOM     17  C   UNL     1      -5.691   6.865   4.467  0.00  0.00    +0.109 C 
ATOM     18  C   UNL     1      -7.145   6.744   3.964  0.00  0.00    +0.018 C 
ATOM     19  C   UNL     1      -7.716   5.592   4.832  0.00  0.00    +0.018 C 
ATOM     20  C   UNL     1      -6.484   4.664   4.967  0.00  0.00    +0.109 C 
ENDBRANCH  13  16
ENDBRANCH   6  13
BRANCH   4  21
ATOM     21  N   UNL     1      -2.008   1.288   3.053  0.00  0.00    -0.356 N 
ATOM     22  H   UNL     1      -2.651   0.620   3.644  0.00  0.00    +0.142 HD
ATOM     23  H   UNL     1      -1.359   0.874   2.268  0.00  0.00    +0.142 HD
ENDBRANCH   4  21
TORSDOF 4
