REMARK  Name = ZINC39363184
REMARK  6 active torsions:
REMARK  status: ('A' for Active; 'I' for Inactive)
REMARK    1  A    between atoms: C_3  and  C_7
REMARK    2  A    between atoms: C_7  and  S_8
REMARK    3  A    between atoms: S_8  and  C_9
REMARK    4  A    between atoms: C_12  and  C_22
REMARK    5  A    between atoms: N_14  and  C_15
REMARK    6  A    between atoms: C_22  and  C_23
REMARK                            x       y       z     vdW  Elec       q    Type
REMARK                         _______ _______ _______ _____ _____    ______ ____
ROOT
ATOM      1  C   UNL     1       5.709   3.355   1.512  0.00  0.00    +0.180 C 
ATOM      2  N   UNL     1       6.268   3.594   0.374  0.00  0.00    -0.162 NA
ATOM      3  N   UNL     1       7.604   3.981   0.529  0.00  0.00    -0.246 N 
ATOM      4  C   UNL     1       7.870   3.969   1.978  0.00  0.00    +0.187 C 
ATOM      5  N   UNL     1       6.586   3.555   2.569  0.00  0.00    -0.258 N 
ATOM      6  H   UNL     1       8.230   4.212  -0.176  0.00  0.00    +0.170 HD
ENDROOT
BRANCH   5   7
ATOM      7  C   UNL     1       6.306   3.393   3.929  0.00  0.00    +0.038 A 
ATOM      8  C   UNL     1       6.293   4.495   4.773  0.00  0.00    +0.025 A 
ATOM      9  C   UNL     1       6.016   4.332   6.116  0.00  0.00    +0.022 A 
ATOM     10  C   UNL     1       5.751   3.071   6.621  0.00  0.00    +0.041 A 
ATOM     11  C   UNL     1       5.764   1.970   5.782  0.00  0.00    +0.022 A 
ATOM     12  C   UNL     1       6.034   2.128   4.438  0.00  0.00    +0.025 A 
ATOM     13 CL   UNL     1       5.404   2.869   8.310  0.00  0.00    -0.084 Cl
ENDBRANCH   5   7
BRANCH   1  14
ATOM     14  S   UNL     1       4.034   2.845   1.702  0.00  0.00    -0.084 S 
BRANCH  14  15
ATOM     15  C   UNL     1       3.406   2.758   0.002  0.00  0.00    +0.113 C 
BRANCH  15  18
ATOM     16  C   UNL     1      -0.365   2.827   0.111  0.00  0.00    +0.020 A 
ATOM     17  C   UNL     1       0.949   3.270   0.097  0.00  0.00    +0.007 A 
ATOM     18  C   UNL     1       1.962   2.327   0.021  0.00  0.00    -0.019 A 
ATOM     19  C   UNL     1       1.631   0.986  -0.037  0.00  0.00    +0.115 A 
ATOM     20  N   UNL     1       0.370   0.601  -0.021  0.00  0.00    -0.263 NA
ATOM     21  C   UNL     1      -0.619   1.470   0.050  0.00  0.00    +0.111 A 
ENDBRANCH  15  18
ENDBRANCH  14  15
ENDBRANCH   1  14
BRANCH   4  22
ATOM     22  C   UNL     1       8.973   2.962   2.313  0.00  0.00    +0.097 C 
BRANCH  22  23
ATOM     23  C   UNL     1      10.276   3.429   1.717  0.00  0.00    +0.029 A 
ATOM     24  N   UNL     1      10.580   3.137   0.415  0.00  0.00    -0.311 N 
ATOM     25  C   UNL     1      11.741   3.550  -0.126  0.00  0.00    +0.327 A 
ATOM     26  O   UNL     1      11.991   3.279  -1.285  0.00  0.00    -0.247 OA
ATOM     27  N   UNL     1      12.629   4.258   0.597  0.00  0.00    -0.275 N 
ATOM     28  C   UNL     1      12.366   4.566   1.883  0.00  0.00    +0.254 A 
ATOM     29  O   UNL     1      13.168   5.206   2.538  0.00  0.00    -0.268 OA
ATOM     30  C   UNL     1      11.146   4.142   2.464  0.00  0.00    +0.091 A 
ATOM     31  H   UNL     1      13.461   4.547   0.191  0.00  0.00    +0.173 HD
ATOM     32  H   UNL     1       9.954   2.628  -0.122  0.00  0.00    +0.170 HD
ENDBRANCH  22  23
ENDBRANCH   4  22
TORSDOF 6
