REMARK  Name = ZINC14948525
REMARK  12 active torsions:
REMARK  status: ('A' for Active; 'I' for Inactive)
REMARK    1  A    between atoms: C_10  and  C_11
REMARK    2  A    between atoms: C_10  and  N_65
REMARK    3  A    between atoms: C_11  and  C_13
REMARK    4  A    between atoms: C_11  and  O_31
REMARK    5  A    between atoms: C_13  and  O_14
REMARK    6  A    between atoms: O_14  and  C_15
REMARK    7  A    between atoms: C_18  and  C_21
REMARK    8  A    between atoms: C_21  and  N_67
REMARK    9  A    between atoms: C_22  and  C_23
REMARK   10  A    between atoms: C_22  and  N_67
REMARK   11  A    between atoms: C_23  and  C_24
REMARK   12  A    between atoms: C_24  and  N_25
REMARK                            x       y       z     vdW  Elec       q    Type
REMARK                         _______ _______ _______ _____ _____    ______ ____
ROOT
ATOM      1  C   UNL     1      -0.032   1.450   0.719  0.00  0.00    +0.121 A 
ATOM      2  C   UNL     1       1.164   2.137   0.567  0.00  0.00    +0.046 A 
ATOM      3  C   UNL     1       2.364   1.459   0.655  0.00  0.00    +0.005 A 
ATOM      4  C   UNL     1       2.375   0.098   0.895  0.00  0.00    -0.064 A 
ATOM      5  C   UNL     1       1.184  -0.589   1.047  0.00  0.00    +0.005 A 
ATOM      6  C   UNL     1      -0.019   0.084   0.960  0.00  0.00    +0.046 A 
ENDROOT
BRANCH   1   7
ATOM      7  O   UNL     1      -1.214   2.114   0.627  0.00  0.00    -0.489 OA
BRANCH   7   8
ATOM      8  C   UNL     1      -1.152   3.519   0.378  0.00  0.00    +0.258 C 
BRANCH   8   9
ATOM      9  C   UNL     1      -2.570   4.089   0.308  0.00  0.00    +0.135 C 
BRANCH   9  10
ATOM     10  O   UNL     1      -3.199   3.958   1.585  0.00  0.00    -0.390 OA
ATOM     11  H   UNL     1      -2.741   4.423   2.298  0.00  0.00    +0.210 HD
ENDBRANCH   9  10
BRANCH   9  12
ATOM     12  C   UNL     1      -2.508   5.567  -0.082  0.00  0.00    -0.043 C 
BRANCH  12  22
ATOM     13  C   UNL     1      -7.782   9.175  -0.773  0.00  0.00    +0.000 A 
ATOM     14  C   UNL     1      -6.769   9.962  -0.256  0.00  0.00    +0.000 A 
ATOM     15  C   UNL     1      -5.510   9.427  -0.072  0.00  0.00    +0.002 A 
ATOM     16  C   UNL     1      -5.254   8.105  -0.403  0.00  0.00    -0.061 A 
ATOM     17  C   UNL     1      -6.265   7.321  -0.916  0.00  0.00    -0.048 A 
ATOM     18  C   UNL     1      -7.529   7.859  -1.102  0.00  0.00    +0.004 A 
ATOM     19  C   UNL     1      -6.037   5.877  -1.284  0.00  0.00    +0.017 C 
ATOM     20  C   UNL     1      -4.538   5.600  -1.405  0.00  0.00    -0.074 C 
ATOM     21  C   UNL     1      -3.863   7.568  -0.188  0.00  0.00    -0.043 C 
ATOM     22  N   UNL     1      -3.887   6.096  -0.174  0.00  0.00    +0.384 N 
ATOM     23  H   UNL     1      -4.423   5.777   0.641  0.00  0.00    -0.081 HD
ENDBRANCH  12  22
ENDBRANCH   9  12
ENDBRANCH   8   9
ENDBRANCH   7   8
ENDBRANCH   1   7
BRANCH   4  24
ATOM     24  C   UNL     1       3.686  -0.639   0.990  0.00  0.00    -0.047 C 
BRANCH  24  25
ATOM     25  N   UNL     1       4.070  -1.118  -0.351  0.00  0.00    +0.382 N 
ATOM     26  H   UNL     1       4.167  -0.314  -0.982  0.00  0.00    -0.085 HD
ATOM     27  H   UNL     1       3.342  -1.747  -0.708  0.00  0.00    -0.085 HD
BRANCH  25  28
ATOM     28  C   UNL     1       5.353  -1.844  -0.288  0.00  0.00    -0.081 C 
BRANCH  28  29
ATOM     29  C   UNL     1       5.725  -2.327  -1.691  0.00  0.00    -0.000 C 
BRANCH  29  30
ATOM     30  C   UNL     1       7.055  -3.082  -1.634  0.00  0.00    +0.106 C 
BRANCH  30  31
ATOM     31  N   UNL     1       7.411  -3.545  -2.977  0.00  0.00    -0.302 N 
ATOM     32  C   UNL     1       7.021  -4.845  -3.536  0.00  0.00    +0.108 C 
ATOM     33  C   UNL     1       7.223  -4.711  -5.064  0.00  0.00    +0.028 C 
ATOM     34  C   UNL     1       8.308  -3.613  -5.142  0.00  0.00    +0.097 C 
ATOM     35  C   UNL     1       8.143  -2.836  -3.854  0.00  0.00    +0.216 C 
ATOM     36  O   UNL     1       8.604  -1.734  -3.644  0.00  0.00    -0.276 OA
ENDBRANCH  30  31
ENDBRANCH  29  30
ENDBRANCH  28  29
ENDBRANCH  25  28
ENDBRANCH  24  25
ENDBRANCH   4  24
TORSDOF 12
