REMARK  Name = ZINC26772064
REMARK  5 active torsions:
REMARK  status: ('A' for Active; 'I' for Inactive)
REMARK    1  A    between atoms: C_1  and  O_2
REMARK    2  A    between atoms: O_2  and  C_3
REMARK    3  A    between atoms: C_7  and  C_9
REMARK    4  A    between atoms: N_28  and  C_31
REMARK    5  A    between atoms: C_31  and  C_32
REMARK                            x       y       z     vdW  Elec       q    Type
REMARK                         _______ _______ _______ _____ _____    ______ ____
ROOT
ATOM      1  C   UNL     1       2.525   5.591   0.007  0.00  0.00    +0.154 C 
ATOM      2  C   UNL     1       2.682   6.093   1.425  0.00  0.00    +0.046 A 
ATOM      3  C   UNL     1       3.827   6.625   1.905  0.00  0.00    -0.015 A 
ATOM      4  C   UNL     1       3.583   6.977   3.289  0.00  0.00    +0.003 A 
ATOM      5  C   UNL     1       4.388   7.554   4.276  0.00  0.00    +0.010 A 
ATOM      6  C   UNL     1       3.815   7.749   5.508  0.00  0.00    +0.001 A 
ATOM      7  C   UNL     1       2.502   7.394   5.774  0.00  0.00    +0.002 A 
ATOM      8  C   UNL     1       1.683   6.822   4.816  0.00  0.00    +0.026 A 
ATOM      9  C   UNL     1       2.238   6.613   3.555  0.00  0.00    +0.047 A 
ATOM     10  N   UNL     1       1.726   6.084   2.405  0.00  0.00    -0.356 N 
ATOM     11  H   UNL     1       0.723   5.686   2.191  0.00  0.00    +0.166 HD
ATOM     12  C   UNL     1       5.093   6.800   1.105  0.00  0.00    +0.069 C 
ATOM     13  C   UNL     1       5.019   5.904  -0.139  0.00  0.00    +0.167 C 
ATOM     14  N   UNL     1       3.703   6.050  -0.759  0.00  0.00    -0.276 N 
ATOM     15  C   UNL     1       3.501   6.561  -1.960  0.00  0.00    +0.234 C 
ATOM     16  O   UNL     1       2.357   6.689  -2.343  0.00  0.00    -0.274 OA
ATOM     17  C   UNL     1       4.596   7.000  -2.877  0.00  0.00    +0.204 C 
ATOM     18  N   UNL     1       5.912   6.763  -2.309  0.00  0.00    -0.287 N 
ATOM     19  C   UNL     1       6.114   6.272  -1.088  0.00  0.00    +0.237 C 
ATOM     20  O   UNL     1       7.260   6.112  -0.723  0.00  0.00    -0.274 OA
ENDROOT
BRANCH   1  25
ATOM     21  C   UNL     1       1.296   2.051   0.494  0.00  0.00    +0.120 A 
ATOM     22  C   UNL     1       2.361   1.319  -0.011  0.00  0.00    +0.045 A 
ATOM     23  C   UNL     1       3.468   1.972  -0.516  0.00  0.00    +0.004 A 
ATOM     24  C   UNL     1       3.521   3.354  -0.507  0.00  0.00    +0.006 A 
ATOM     25  C   UNL     1       2.464   4.086   0.000  0.00  0.00    -0.018 A 
ATOM     26  C   UNL     1       1.351   3.437   0.501  0.00  0.00    +0.051 A 
BRANCH  21  28
ATOM     27  C   UNL     1       0.214  -0.017   0.946  0.00  0.00    +0.277 C 
ATOM     28  O   UNL     1       0.202   1.411   0.985  0.00  0.00    -0.495 OA
ENDBRANCH  21  28
ENDBRANCH   1  25
BRANCH  18  29
ATOM     29  C   UNL     1       7.085   7.082  -3.127  0.00  0.00    +0.143 C 
BRANCH  29  30
ATOM     30  C   UNL     1       7.477   5.873  -3.937  0.00  0.00    -0.026 A 
ATOM     31  C   UNL     1       8.379   4.961  -3.422  0.00  0.00    +0.009 A 
ATOM     32  C   UNL     1       8.737   3.848  -4.158  0.00  0.00    +0.050 A 
ATOM     33  C   UNL     1       8.202   3.649  -5.420  0.00  0.00    +0.166 A 
ATOM     34  C   UNL     1       7.297   4.571  -5.942  0.00  0.00    +0.167 A 
ATOM     35  C   UNL     1       6.938   5.682  -5.195  0.00  0.00    +0.054 A 
ATOM     36  O   UNL     1       6.919   4.156  -7.186  0.00  0.00    -0.453 OA
ATOM     37  C   UNL     1       7.909   3.190  -7.586  0.00  0.00    +0.466 C 
ATOM     38  O   UNL     1       8.391   2.656  -6.338  0.00  0.00    -0.453 OA
ENDBRANCH  29  30
ENDBRANCH  18  29
TORSDOF 4
