REMARK  Name = ZINC12887356
REMARK  6 active torsions:
REMARK  status: ('A' for Active; 'I' for Inactive)
REMARK    1  A    between atoms: C_1  and  C_2
REMARK    2  A    between atoms: C_2  and  C_3
REMARK    3  A    between atoms: C_3  and  C_5
REMARK    4  A    between atoms: C_3  and  N_6
REMARK    5  A    between atoms: C_11  and  C_27
REMARK    6  A    between atoms: C_27  and  C_28
REMARK                            x       y       z     vdW  Elec       q    Type
REMARK                         _______ _______ _______ _____ _____    ______ ____
ROOT
ATOM      1  N   UNL     1       1.475   2.287   0.058  0.00  0.00    -0.239 N 
ATOM      2  C   UNL     1       1.488   3.621  -0.037  0.00  0.00    +0.224 C 
ATOM      3  O   UNL     1       2.479   4.303  -0.189  0.00  0.00    -0.275 OA
ATOM      4  C   UNL     1       0.075   4.148   0.076  0.00  0.00    +0.073 C 
ATOM      5  C   UNL     1      -0.072   4.924   1.402  0.00  0.00    -0.053 C 
ATOM      6  C   UNL     1      -1.359   2.994   1.682  0.00  0.00    +0.050 C 
ATOM      7  C   UNL     1      -0.774   2.858   0.248  0.00  0.00    +0.088 C 
ATOM      8  C   UNL     1       0.258   1.754   0.224  0.00  0.00    +0.225 C 
ATOM      9  O   UNL     1       0.021   0.570   0.333  0.00  0.00    -0.275 OA
ATOM     10  C   UNL     1      -2.746   2.422   1.761  0.00  0.00    -0.028 A 
ATOM     11  C   UNL     1      -3.923   2.696   1.101  0.00  0.00    +0.004 A 
ATOM     12  C   UNL     1      -5.068   1.980   1.401  0.00  0.00    +0.000 A 
ATOM     13  C   UNL     1      -5.027   0.990   2.366  0.00  0.00    +0.002 A 
ATOM     14  C   UNL     1      -3.850   0.711   3.029  0.00  0.00    +0.023 A 
ATOM     15  C   UNL     1      -2.692   1.427   2.732  0.00  0.00    +0.036 A 
ATOM     16  N   UNL     1      -1.401   1.330   3.254  0.00  0.00    -0.286 N 
ATOM     17  C   UNL     1      -0.557   2.214   2.688  0.00  0.00    +0.211 C 
ATOM     18  O   UNL     1       0.621   2.354   2.941  0.00  0.00    -0.277 OA
ATOM     19  H   UNL     1      -1.142   0.700   3.945  0.00  0.00    +0.155 HD
ATOM     20  N   UNL     1      -1.324   4.417   1.971  0.00  0.00    +0.394 N 
ATOM     21  H   UNL     1      -2.127   4.887   1.537  0.00  0.00    -0.083 HD
ATOM     22  H   UNL     1      -1.342   4.574   2.985  0.00  0.00    -0.083 HD
ENDROOT
BRANCH   1  23
ATOM     23  C   UNL     1       2.692   1.475  -0.013  0.00  0.00    +0.081 C 
ATOM     24  C   UNL     1       2.845   0.669   1.278  0.00  0.00    +0.028 C 
BRANCH  23  26
ATOM     25  C   UNL     1       2.577   1.323  -2.504  0.00  0.00    +0.006 C 
ATOM     26  C   UNL     1       2.598   0.518  -1.203  0.00  0.00    +0.019 C 
ENDBRANCH  23  26
ENDBRANCH   1  23
BRANCH   5  27
ATOM     27  C   UNL     1      -0.147   6.428   1.134  0.00  0.00    +0.022 C 
BRANCH  27  28
ATOM     28  C   UNL     1      -0.167   7.172   2.445  0.00  0.00    -0.024 A 
ATOM     29  C   UNL     1      -1.256   7.596   3.105  0.00  0.00    +0.087 A 
ATOM     30  N   UNL     1      -0.883   8.232   4.258  0.00  0.00    -0.360 N 
ATOM     31  H   UNL     1      -1.495   8.625   4.900  0.00  0.00    +0.165 HD
ATOM     32  C   UNL     1       0.489   8.233   4.370  0.00  0.00    +0.047 A 
ATOM     33  C   UNL     1       0.998   7.563   3.242  0.00  0.00    +0.003 A 
ATOM     34  C   UNL     1       2.376   7.405   3.089  0.00  0.00    +0.010 A 
ATOM     35  C   UNL     1       3.225   7.899   4.039  0.00  0.00    +0.001 A 
ATOM     36  C   UNL     1       2.728   8.557   5.155  0.00  0.00    +0.002 A 
ATOM     37  C   UNL     1       1.372   8.731   5.323  0.00  0.00    +0.026 A 
ENDBRANCH  27  28
ENDBRANCH   5  27
TORSDOF 4
