REMARK  Name = ZINC39354326
REMARK  10 active torsions:
REMARK  status: ('A' for Active; 'I' for Inactive)
REMARK    1  A    between atoms: C_1  and  C_2
REMARK    2  A    between atoms: C_2  and  N_3
REMARK    3  A    between atoms: C_4  and  C_24
REMARK    4  A    between atoms: C_8  and  S_10
REMARK    5  A    between atoms: S_10  and  C_11
REMARK    6  A    between atoms: C_11  and  C_12
REMARK    7  A    between atoms: C_24  and  O_25
REMARK    8  A    between atoms: O_25  and  C_26
REMARK    9  A    between atoms: C_28  and  C_33
REMARK   10  A    between atoms: C_31  and  C_32
REMARK                            x       y       z     vdW  Elec       q    Type
REMARK                         _______ _______ _______ _____ _____    ______ ____
ROOT
ATOM      1  N   UNL     1      -1.189  -0.774  -0.154  0.00  0.00    -0.259 NA
ATOM      2  C   UNL     1      -1.342  -2.241  -0.247  0.00  0.00    +0.178 C 
ATOM      3  N   UNL     1      -1.980  -2.679   1.015  0.00  0.00    -0.234 NA
ATOM      4  N   UNL     1      -2.678  -1.482   1.509  0.00  0.00    -0.229 NA
ATOM      5  C   UNL     1      -1.743  -0.380   1.163  0.00  0.00    +0.200 C 
ATOM      6  H   UNL     1      -2.629  -3.434   0.850  0.00  0.00    +0.142 HD
ATOM      7  H   UNL     1      -3.565  -1.363   1.044  0.00  0.00    +0.143 HD
ENDROOT
BRANCH   1   9
ATOM      8  C   UNL     1       0.324   1.140  -0.367  0.00  0.00    +0.020 C 
ATOM      9  C   UNL     1       0.222  -0.383  -0.270  0.00  0.00    +0.085 C 
ENDBRANCH   1   9
BRANCH   5  10
ATOM     10  S   UNL     1      -2.635   1.193   1.031  0.00  0.00    -0.117 S 
BRANCH  10  11
ATOM     11  C   UNL     1      -3.980   0.839  -0.134  0.00  0.00    +0.146 C 
BRANCH  11  12
ATOM     12  C   UNL     1      -4.721   2.113  -0.449  0.00  0.00    +0.120 A 
ATOM     13  N   UNL     1      -5.699   2.073  -1.391  0.00  0.00    -0.310 N 
ATOM     14  H   UNL     1      -5.901   1.237  -1.839  0.00  0.00    +0.170 HD
ATOM     15  C   UNL     1      -6.394   3.190  -1.709  0.00  0.00    +0.259 A 
ATOM     16  O   UNL     1      -7.274   3.169  -2.551  0.00  0.00    -0.267 OA
ATOM     17  C   UNL     1      -6.047   4.429  -0.999  0.00  0.00    +0.065 A 
ATOM     18  C   UNL     1      -6.701   5.633  -1.252  0.00  0.00    +0.015 A 
ATOM     19  C   UNL     1      -6.335   6.765  -0.557  0.00  0.00    +0.001 A 
ATOM     20  C   UNL     1      -5.321   6.714   0.391  0.00  0.00    +0.002 A 
ATOM     21  C   UNL     1      -4.662   5.535   0.656  0.00  0.00    +0.028 A 
ATOM     22  C   UNL     1      -5.015   4.374  -0.035  0.00  0.00    +0.078 A 
ATOM     23  N   UNL     1      -4.396   3.190   0.199  0.00  0.00    -0.233 NA
ENDBRANCH  11  12
ENDBRANCH  10  11
ENDBRANCH   5  10
BRANCH   2  24
ATOM     24  C   UNL     1      -2.233  -2.600  -1.438  0.00  0.00    +0.265 C 
BRANCH  24  25
ATOM     25  O   UNL     1      -1.581  -2.222  -2.652  0.00  0.00    -0.489 OA
BRANCH  25  26
ATOM     26  C   UNL     1      -2.264  -2.425  -3.809  0.00  0.00    +0.124 A 
ATOM     27  C   UNL     1      -3.575  -2.879  -3.771  0.00  0.00    +0.049 A 
ATOM     28  C   UNL     1      -4.268  -3.084  -4.948  0.00  0.00    -0.047 A 
ATOM     29  C   UNL     1      -3.657  -2.836  -6.164  0.00  0.00    +0.004 A 
ATOM     30  C   UNL     1      -2.351  -2.384  -6.204  0.00  0.00    +0.007 A 
ATOM     31  C   UNL     1      -1.655  -2.172  -5.029  0.00  0.00    -0.009 A 
ATOM     32  C   UNL     1      -0.234  -1.672  -5.074  0.00  0.00    +0.047 C 
ATOM     33  C   UNL     1      -5.691  -3.578  -4.908  0.00  0.00    +0.044 C 
ENDBRANCH  25  26
ENDBRANCH  24  25
ENDBRANCH   2  24
TORSDOF 7
