REMARK  Name = ZINC40476407
REMARK  9 active torsions:
REMARK  status: ('A' for Active; 'I' for Inactive)
REMARK    1  A    between atoms: C_1  and  C_2
REMARK    2  A    between atoms: C_2  and  C_3
REMARK    3  A    between atoms: C_3  and  C_4
REMARK    4  A    between atoms: C_4  and  C_5
REMARK    5  A    between atoms: C_5  and  S_6
REMARK    6  A    between atoms: S_6  and  C_7
REMARK    7  A    between atoms: C_18  and  C_20
REMARK    8  A    between atoms: C_30  and  C_32
REMARK    9  A    between atoms: C_30  and  C_33
REMARK                            x       y       z     vdW  Elec       q    Type
REMARK                         _______ _______ _______ _____ _____    ______ ____
ROOT
ATOM      1  C   UNL     1      -4.527  -4.856   0.019  0.00  0.00    +0.171 A 
ATOM      2  N   UNL     1      -4.869  -6.175   0.021  0.00  0.00    -0.302 N 
ATOM      3  H   UNL     1      -4.177  -6.855   0.017  0.00  0.00    +0.171 HD
ATOM      4  C   UNL     1      -6.169  -6.538   0.029  0.00  0.00    +0.258 A 
ATOM      5  O   UNL     1      -6.486  -7.717   0.028  0.00  0.00    -0.267 OA
ATOM      6  C   UNL     1      -7.147  -5.537   0.038  0.00  0.00    +0.069 A 
ATOM      7  C   UNL     1      -6.747  -4.212   0.039  0.00  0.00    +0.135 A 
ATOM      8  N   UNL     1      -5.444  -3.910   0.033  0.00  0.00    -0.208 NA
ATOM      9  N   UNL     1      -7.697  -3.210   0.056  0.00  0.00    -0.302 N 
ATOM     10  C   UNL     1      -8.979  -3.471   0.456  0.00  0.00    +0.017 C 
ATOM     11  C   UNL     1      -9.456  -4.734   0.475  0.00  0.00    +0.024 C 
ATOM     12  C   UNL     1      -8.603  -5.899   0.043  0.00  0.00    +0.092 C 
ATOM     13  C   UNL     1     -10.769  -5.005   0.901  0.00  0.00    +0.162 C 
ATOM     14  O   UNL     1     -11.171  -6.152   0.898  0.00  0.00    -0.292 OA
ATOM     15  C   UNL     1     -11.685  -3.904   1.359  0.00  0.00    +0.086 C 
ATOM     16  C   UNL     1     -10.843  -2.763   1.939  0.00  0.00    -0.023 C 
ATOM     17  C   UNL     1      -9.846  -2.307   0.871  0.00  0.00    +0.058 C 
ATOM     18  C   UNL     1     -11.754  -1.595   2.324  0.00  0.00    +0.011 C 
ATOM     19  C   UNL     1     -10.085  -3.258   3.172  0.00  0.00    +0.011 C 
ATOM     20  H   UNL     1      -7.453  -2.312  -0.218  0.00  0.00    +0.153 HD
ENDROOT
BRANCH  12  21
ATOM     21  C   UNL     1      -9.011  -6.320  -1.345  0.00  0.00    -0.034 A 
ATOM     22  C   UNL     1      -8.879  -5.439  -2.402  0.00  0.00    +0.004 A 
ATOM     23  C   UNL     1      -9.252  -5.825  -3.676  0.00  0.00    +0.002 A 
ATOM     24  C   UNL     1      -9.759  -7.093  -3.893  0.00  0.00    +0.020 A 
ATOM     25  C   UNL     1      -9.891  -7.975  -2.836  0.00  0.00    +0.041 A 
ATOM     26  C   UNL     1      -9.511  -7.590  -1.562  0.00  0.00    +0.024 A 
ATOM     27 CL   UNL     1     -10.527  -9.567  -3.108  0.00  0.00    -0.084 Cl
ENDBRANCH  12  21
BRANCH   1  28
ATOM     28  S   UNL     1      -2.823  -4.407   0.005  0.00  0.00    -0.088 S 
BRANCH  28  29
ATOM     29  C   UNL     1      -2.848  -2.593   0.015  0.00  0.00    +0.077 C 
BRANCH  29  30
ATOM     30  C   UNL     1      -1.413  -2.063   0.004  0.00  0.00    +0.011 C 
BRANCH  30  31
ATOM     31  C   UNL     1      -1.433  -0.534   0.013  0.00  0.00    +0.001 C 
BRANCH  31  33
ATOM     32  C   UNL     1      -0.019   1.526   0.010  0.00  0.00    +0.004 C 
ATOM     33  C   UNL     1       0.002  -0.004   0.002  0.00  0.00    -0.003 C 
ENDBRANCH  31  33
ENDBRANCH  30  31
ENDBRANCH  29  30
ENDBRANCH  28  29
ENDBRANCH   1  28
TORSDOF 6
