REMARK  Name = ZINC09253157
REMARK  7 active torsions:
REMARK  status: ('A' for Active; 'I' for Inactive)
REMARK    1  A    between atoms: C_1  and  C_2
REMARK    2  A    between atoms: C_7  and  C_8
REMARK    3  A    between atoms: C_8  and  C_10
REMARK    4  A    between atoms: C_8  and  N_11
REMARK    5  A    between atoms: C_12  and  C_14
REMARK    6  A    between atoms: C_14  and  C_16
REMARK    7  A    between atoms: C_14  and  N_17
REMARK                            x       y       z     vdW  Elec       q    Type
REMARK                         _______ _______ _______ _____ _____    ______ ____
ROOT
ATOM      1  C   UNL     1       4.707   4.633  -0.015  0.00  0.00    +0.155 C 
ATOM      2  C   UNL     1       5.023   5.053   1.422  0.00  0.00    +0.038 C 
ENDROOT
BRANCH   1   3
ATOM      3  N   UNL     1       3.598   3.675  -0.011  0.00  0.00    -0.316 N 
ATOM      4  C   UNL     1       2.297   4.128   0.004  0.00  0.00    +0.150 C 
ATOM      5  N   UNL     1       2.045   5.398   0.014  0.00  0.00    -0.113 NA
ATOM      6  S   UNL     1       0.377   5.534   0.030  0.00  0.00    +0.101 S 
ATOM      7  O   UNL     1      -0.001   6.075   1.288  0.00  0.00    -0.146 OA
ATOM      8  O   UNL     1      -0.024   6.091  -1.214  0.00  0.00    -0.146 OA
ATOM      9  C   UNL     1      -0.067   3.819   0.024  0.00  0.00    +0.123 A 
ATOM     10  C   UNL     1       1.177   3.173   0.008  0.00  0.00    +0.043 A 
ATOM     11  C   UNL     1       1.177   1.770   0.000  0.00  0.00    +0.013 A 
ATOM     12  C   UNL     1      -0.013   1.076   0.008  0.00  0.00    +0.001 A 
ATOM     13  C   UNL     1      -1.226   1.741   0.017  0.00  0.00    +0.002 A 
ATOM     14  C   UNL     1      -1.244   3.129   0.030  0.00  0.00    +0.030 A 
ATOM     15  H   UNL     1       3.780   2.722  -0.018  0.00  0.00    +0.148 HD
ENDBRANCH   1   3
BRANCH   1  17
ATOM     16  N   UNL     1       7.071   4.688  -0.740  0.00  0.00    -0.307 N 
ATOM     17  C   UNL     1       5.923   3.990  -0.630  0.00  0.00    +0.233 C 
ATOM     18  O   UNL     1       5.869   2.845  -1.026  0.00  0.00    -0.274 OA
ATOM     19  H   UNL     1       7.114   5.604  -0.424  0.00  0.00    +0.149 HD
BRANCH  16  20
ATOM     20  C   UNL     1       8.253   4.063  -1.338  0.00  0.00    +0.100 C 
ATOM     21  C   UNL     1       9.009   3.273  -0.268  0.00  0.00    +0.033 C 
BRANCH  20  28
ATOM     22  C   UNL     1      10.084   3.425  -3.480  0.00  0.00    +0.044 C 
ATOM     23  C   UNL     1      10.030   4.826  -2.928  0.00  0.00    -0.046 A 
ATOM     24  C   UNL     1      10.853   5.806  -3.449  0.00  0.00    +0.004 A 
ATOM     25  C   UNL     1      10.807   7.090  -2.939  0.00  0.00    +0.000 A 
ATOM     26  C   UNL     1       9.935   7.395  -1.911  0.00  0.00    +0.000 A 
ATOM     27  C   UNL     1       9.109   6.415  -1.393  0.00  0.00    +0.006 A 
ATOM     28  C   UNL     1       9.154   5.131  -1.903  0.00  0.00    -0.025 A 
ENDBRANCH  20  28
ENDBRANCH  16  20
ENDBRANCH   1  17
TORSDOF 4
