REMARK  Name = ZINC02503704
REMARK  9 active torsions:
REMARK  status: ('A' for Active; 'I' for Inactive)
REMARK    1  A    between atoms: C_2  and  C_3
REMARK    2  A    between atoms: C_3  and  N_4
REMARK    3  A    between atoms: C_5  and  C_24
REMARK    4  A    between atoms: C_8  and  S_9
REMARK    5  A    between atoms: S_9  and  C_10
REMARK    6  A    between atoms: C_10  and  C_11
REMARK    7  A    between atoms: N_13  and  C_14
REMARK    8  A    between atoms: C_17  and  S_20
REMARK    9  A    between atoms: S_20  and  N_23
REMARK                            x       y       z     vdW  Elec       q    Type
REMARK                         _______ _______ _______ _____ _____    ______ ____
ROOT
ATOM      1  C   UNL     1      -6.622  -3.938   0.263  0.00  0.00    +0.227 C 
ATOM      2  O   UNL     1      -7.427  -3.094   0.594  0.00  0.00    -0.275 OA
ATOM      3  N   UNL     1      -7.024  -5.207   0.050  0.00  0.00    -0.285 N 
ATOM      4  H   UNL     1      -6.394  -5.867  -0.280  0.00  0.00    +0.155 HD
ENDROOT
BRANCH   3   5
ATOM      5  C   UNL     1      -8.351  -5.572   0.304  0.00  0.00    +0.034 A 
ATOM      6  C   UNL     1      -8.643  -6.838   0.793  0.00  0.00    +0.025 A 
ATOM      7  C   UNL     1      -9.953  -7.193   1.049  0.00  0.00    +0.030 A 
ATOM      8  C   UNL     1     -10.974  -6.293   0.808  0.00  0.00    +0.105 A 
ATOM      9  C   UNL     1     -10.688  -5.033   0.316  0.00  0.00    +0.030 A 
ATOM     10  C   UNL     1      -9.379  -4.670   0.064  0.00  0.00    +0.025 A 
BRANCH   8  11
ATOM     11  S   UNL     1     -12.645  -6.752   1.129  0.00  0.00    +0.056 S 
ATOM     12  O   UNL     1     -12.602  -7.790   2.098  0.00  0.00    -0.153 OA
ATOM     13  O   UNL     1     -13.365  -5.545   1.337  0.00  0.00    -0.153 OA
BRANCH  11  14
ATOM     14  N   UNL     1     -13.243  -7.427  -0.260  0.00  0.00    -0.204 NA
ATOM     15  H   UNL     1     -12.678  -7.501  -1.045  0.00  0.00    +0.144 HD
ATOM     16  H   UNL     1     -14.158  -7.747  -0.289  0.00  0.00    +0.144 HD
ENDBRANCH  11  14
ENDBRANCH   8  11
ENDBRANCH   3   5
BRANCH   1  17
ATOM     17  C   UNL     1      -5.171  -3.569   0.089  0.00  0.00    +0.173 C 
BRANCH  17  18
ATOM     18  S   UNL     1      -4.950  -1.808   0.444  0.00  0.00    -0.077 S 
BRANCH  18  23
ATOM     19  N   UNL     1      -2.473  -0.516   0.295  0.00  0.00    -0.296 N 
ATOM     20  C   UNL     1      -1.180  -0.879  -0.015  0.00  0.00    +0.201 A 
ATOM     21  N   UNL     1      -1.201  -2.162  -0.305  0.00  0.00    -0.125 NA
ATOM     22  N   UNL     1      -2.397  -2.619  -0.189  0.00  0.00    -0.122 NA
ATOM     23  C   UNL     1      -3.216  -1.656   0.171  0.00  0.00    +0.193 A 
BRANCH  20  24
ATOM     24  C   UNL     1      -0.002   0.002  -0.026  0.00  0.00    +0.172 A 
ATOM     25  C   UNL     1       1.299  -0.403  -0.051  0.00  0.00    +0.053 A 
ATOM     26  C   UNL     1       2.086   0.765  -0.053  0.00  0.00    +0.042 A 
ATOM     27  C   UNL     1       1.239   1.813  -0.031  0.00  0.00    +0.196 A 
ATOM     28  O   UNL     1      -0.021   1.349  -0.014  0.00  0.00    -0.460 OA
ENDBRANCH  20  24
BRANCH  19  29
ATOM     29  C   UNL     1      -2.950   0.815   0.678  0.00  0.00    +0.152 C 
BRANCH  29  31
ATOM     30  C   UNL     1      -4.560   2.087  -0.647  0.00  0.00    +0.005 C 
ATOM     31  C   UNL     1      -3.356   1.577  -0.557  0.00  0.00    -0.013 C 
ENDBRANCH  29  31
ENDBRANCH  19  29
ENDBRANCH  18  23
ENDBRANCH  17  18
ENDBRANCH   1  17
TORSDOF 9
