REMARK  Name = ZINC36116283
REMARK  14 active torsions:
REMARK  status: ('A' for Active; 'I' for Inactive)
REMARK    1  A    between atoms: C_1  and  C_2
REMARK    2  A    between atoms: C_2  and  C_3
REMARK    3  A    between atoms: N_9  and  C_10
REMARK    4  A    between atoms: C_10  and  C_11
REMARK    5  A    between atoms: C_11  and  C_12
REMARK    6  A    between atoms: C_12  and  N_13
REMARK    7  A    between atoms: C_14  and  C_16
REMARK    8  A    between atoms: C_16  and  N_17
REMARK    9  A    between atoms: N_17  and  C_18
REMARK   10  A    between atoms: N_17  and  S_27
REMARK   11  A    between atoms: C_23  and  O_24
REMARK   12  A    between atoms: O_24  and  C_25
REMARK   13  A    between atoms: C_25  and  C_26
REMARK   14  A    between atoms: S_27  and  C_30
REMARK                            x       y       z     vdW  Elec       q    Type
REMARK                         _______ _______ _______ _____ _____    ______ ____
ROOT
ATOM      1  N   UNL     1       7.537   6.333  -0.412  0.00  0.00    -0.191 N 
ENDROOT
BRANCH   1   2
ATOM      2  C   UNL     1       7.449   6.974   0.829  0.00  0.00    +0.093 A 
ATOM      3  C   UNL     1       8.561   7.045   1.655  0.00  0.00    +0.028 A 
ATOM      4  C   UNL     1       8.472   7.679   2.881  0.00  0.00    +0.002 A 
ATOM      5  C   UNL     1       7.276   8.242   3.286  0.00  0.00    +0.004 A 
ATOM      6  C   UNL     1       6.163   8.175   2.467  0.00  0.00    +0.047 A 
ATOM      7  C   UNL     1       6.246   7.546   1.236  0.00  0.00    +0.143 A 
BRANCH   7   8
ATOM      8  O   UNL     1       5.153   7.484   0.428  0.00  0.00    -0.490 OA
BRANCH   8   9
ATOM      9  C   UNL     1       3.954   8.093   0.910  0.00  0.00    +0.226 C 
ATOM     10  C   UNL     1       2.843   7.923  -0.127  0.00  0.00    +0.048 C 
ENDBRANCH   8   9
ENDBRANCH   7   8
ENDBRANCH   1   2
BRANCH   1  11
ATOM     11  S   UNL     1       7.850   7.215  -1.778  0.00  0.00    +0.075 S 
ATOM     12  O   UNL     1       8.513   8.398  -1.355  0.00  0.00    -0.150 OA
ATOM     13  O   UNL     1       8.422   6.316  -2.719  0.00  0.00    -0.150 OA
BRANCH  11  14
ATOM     14  C   UNL     1       6.297   7.717  -2.442  0.00  0.00    +0.109 A 
ATOM     15  C   UNL     1       5.641   6.910  -3.353  0.00  0.00    +0.030 A 
ATOM     16  C   UNL     1       4.423   7.304  -3.874  0.00  0.00    +0.022 A 
ATOM     17  C   UNL     1       3.859   8.505  -3.482  0.00  0.00    +0.041 A 
ATOM     18  C   UNL     1       4.516   9.312  -2.570  0.00  0.00    +0.022 A 
ATOM     19  C   UNL     1       5.731   8.915  -2.046  0.00  0.00    +0.030 A 
ATOM     20 CL   UNL     1       2.329   9.001  -4.136  0.00  0.00    -0.084 Cl
ENDBRANCH  11  14
ENDBRANCH   1  11
BRANCH   1  21
ATOM     21  C   UNL     1       7.352   4.882  -0.502  0.00  0.00    +0.227 C 
BRANCH  21  23
ATOM     22  N   UNL     1       5.470   3.289  -0.702  0.00  0.00    -0.314 N 
ATOM     23  C   UNL     1       5.881   4.569  -0.607  0.00  0.00    +0.232 C 
ATOM     24  O   UNL     1       5.068   5.469  -0.606  0.00  0.00    -0.274 OA
ATOM     25  H   UNL     1       6.121   2.570  -0.703  0.00  0.00    +0.149 HD
BRANCH  22  26
ATOM     26  C   UNL     1       4.041   2.985  -0.804  0.00  0.00    +0.102 C 
BRANCH  26  27
ATOM     27  C   UNL     1       3.848   1.470  -0.898  0.00  0.00    +0.000 C 
BRANCH  27  28
ATOM     28  C   UNL     1       2.355   1.151  -1.004  0.00  0.00    -0.077 C 
BRANCH  28  34
ATOM     29  C   UNL     1       0.735  -0.614  -1.081  0.00  0.00    -0.069 C 
ATOM     30  C   UNL     1       0.538  -2.131  -1.094  0.00  0.00    -0.015 C 
ATOM     31  C   UNL     1       1.176  -2.713  -2.358  0.00  0.00    -0.003 C 
ATOM     32  C   UNL     1       2.656  -2.319  -2.400  0.00  0.00    -0.019 C 
ATOM     33  C   UNL     1       2.774  -0.794  -2.339  0.00  0.00    -0.078 C 
ATOM     34  N   UNL     1       2.170  -0.303  -1.095  0.00  0.00    +0.382 N 
ATOM     35  H   UNL     1       2.616  -0.747  -0.307  0.00  0.00    -0.081 HD
BRANCH  29  37
ATOM     36  C   UNL     1      -1.411  -0.273   0.152  0.00  0.00    +0.002 C 
ATOM     37  C   UNL     1       0.099  -0.028   0.181  0.00  0.00    -0.019 C 
ENDBRANCH  29  37
ENDBRANCH  28  34
ENDBRANCH  27  28
ENDBRANCH  26  27
ENDBRANCH  22  26
ENDBRANCH  21  23
ENDBRANCH   1  21
TORSDOF 12
