REMARK  Name = ZINC05447866
REMARK  4 active torsions:
REMARK  status: ('A' for Active; 'I' for Inactive)
REMARK    1  A    between atoms: C_6  and  N_7
REMARK    2  A    between atoms: C_8  and  C_10
REMARK    3  A    between atoms: C_10  and  C_11
REMARK    4  A    between atoms: N_16  and  N_17
REMARK                            x       y       z     vdW  Elec       q    Type
REMARK                         _______ _______ _______ _____ _____    ______ ____
ROOT
ATOM      1  C   UNL     1      -2.182  -4.324  -0.316  0.00  0.00    +0.149 C 
ATOM      2  C   UNL     1      -3.463  -5.132  -0.453  0.00  0.00    +0.233 C 
ATOM      3  N   UNL     1      -3.707  -5.995   0.519  0.00  0.00    -0.263 N 
ATOM      4  C   UNL     1      -2.857  -6.159   1.592  0.00  0.00    +0.183 C 
ATOM      5  N   UNL     1      -2.988  -6.978   2.613  0.00  0.00    -0.127 NA
ATOM      6  S   UNL     1      -1.537  -4.997   1.271  0.00  0.00    -0.075 S 
ATOM      7  O   UNL     1      -4.215  -4.993  -1.395  0.00  0.00    -0.274 OA
ATOM      8  H   UNL     1      -4.512  -6.533   0.474  0.00  0.00    +0.157 HD
ENDROOT
BRANCH   5   9
ATOM      9  N   UNL     1      -2.012  -7.005   3.619  0.00  0.00    -0.156 NA
ATOM     10  C   UNL     1      -2.141  -7.811   4.623  0.00  0.00    +0.041 C 
ATOM     11  C   UNL     1      -3.333  -8.736   4.727  0.00  0.00    +0.053 C 
ATOM     12  C   UNL     1      -2.823 -10.160   4.975  0.00  0.00    +0.006 C 
ATOM     13  C   UNL     1      -1.910 -10.167   6.202  0.00  0.00    +0.001 C 
ATOM     14  C   UNL     1      -0.674  -9.307   5.933  0.00  0.00    +0.006 C 
ATOM     15  C   UNL     1      -1.099  -7.856   5.719  0.00  0.00    +0.053 C 
ENDBRANCH   5   9
BRANCH   1  16
ATOM     16  C   UNL     1      -2.480  -2.828  -0.204  0.00  0.00    +0.120 C 
BRANCH  16  18
ATOM     17  N   UNL     1      -1.200  -0.722   0.010  0.00  0.00    -0.285 N 
ATOM     18  C   UNL     1      -1.184  -2.065  -0.099  0.00  0.00    +0.219 C 
ATOM     19  O   UNL     1      -0.127  -2.660  -0.113  0.00  0.00    -0.275 OA
ATOM     20  H   UNL     1      -2.045  -0.252   0.098  0.00  0.00    +0.155 HD
BRANCH  17  26
ATOM     21  C   UNL     1       1.071  -0.454  -0.766  0.00  0.00    +0.026 A 
ATOM     22  C   UNL     1       2.256   0.256  -0.779  0.00  0.00    +0.040 A 
ATOM     23  C   UNL     1       2.378   1.416  -0.032  0.00  0.00    +0.124 A 
ATOM     24  C   UNL     1       1.312   1.866   0.730  0.00  0.00    +0.040 A 
ATOM     25  C   UNL     1       0.126   1.159   0.745  0.00  0.00    +0.026 A 
ATOM     26  C   UNL     1       0.002  -0.004  -0.004  0.00  0.00    +0.034 A 
ATOM     27  F   UNL     1       3.538   2.108  -0.045  0.00  0.00    -0.205 F 
ENDBRANCH  17  26
ENDBRANCH  16  18
ENDBRANCH   1  16
TORSDOF 4
