REMARK  Name = ZINC39505257
REMARK  7 active torsions:
REMARK  status: ('A' for Active; 'I' for Inactive)
REMARK    1  A    between atoms: C_1  and  C_2
REMARK    2  A    between atoms: C_2  and  C_3
REMARK    3  A    between atoms: C_2  and  S_4
REMARK    4  A    between atoms: S_4  and  C_7
REMARK    5  A    between atoms: C_13  and  O_16
REMARK    6  A    between atoms: O_16  and  C_17
REMARK    7  A    between atoms: N_18  and  O_20
REMARK                            x       y       z     vdW  Elec       q    Type
REMARK                         _______ _______ _______ _____ _____    ______ ____
ROOT
ATOM      1  C   UNL     1      -2.287  -0.144  -1.664  0.00  0.00    +0.149 C 
ATOM      2  C   UNL     1      -3.816  -0.390  -1.782  0.00  0.00    +0.052 C 
ATOM      3  C   UNL     1      -4.267   0.714  -2.752  0.00  0.00    +0.051 C 
ATOM      4  C   UNL     1      -4.414   0.148  -4.170  0.00  0.00    +0.027 C 
ATOM      5  C   UNL     1      -5.888   0.368  -4.575  0.00  0.00    +0.033 C 
ATOM      6  C   UNL     1      -6.642   0.473  -3.226  0.00  0.00    +0.120 C 
ATOM      7  C   UNL     1      -5.644   1.255  -2.334  0.00  0.00    +0.056 C 
ATOM      8  N   UNL     1      -3.259   1.782  -2.718  0.00  0.00    -0.183 NA
ATOM      9  C   UNL     1      -2.210   1.402  -1.746  0.00  0.00    +0.141 C 
ENDROOT
BRANCH   1  10
ATOM     10  S   UNL     1      -1.653  -0.743  -0.073  0.00  0.00    -0.025 S 
ATOM     11  O   UNL     1      -1.644  -2.163  -0.100  0.00  0.00    -0.174 OA
ATOM     12  O   UNL     1      -2.351  -0.075   0.969  0.00  0.00    -0.174 OA
BRANCH  10  14
ATOM     13  C   UNL     1       0.745  -0.560   1.229  0.00  0.00    +0.031 C 
ATOM     14  C   UNL     1       0.064  -0.158  -0.081  0.00  0.00    +0.125 C 
ATOM     15  C   UNL     1       0.812  -0.786  -1.258  0.00  0.00    +0.031 C 
ENDBRANCH  10  14
ENDBRANCH   1  10
BRANCH   6  16
ATOM     16  O   UNL     1      -7.862   1.200  -3.383  0.00  0.00    -0.380 OA
ATOM     17  C   UNL     1      -8.994   0.379  -3.680  0.00  0.00    +0.194 C 
ENDBRANCH   6  16
BRANCH   8  18
ATOM     18  O   UNL     1      -3.866   3.064  -2.361  0.00  0.00    -0.312 OA
ATOM     19  H   UNL     1      -3.240   3.800  -2.325  0.00  0.00    +0.237 HD
ENDBRANCH   8  18
TORSDOF 4
