REMARK  Name = ZINC13027536
REMARK  11 active torsions:
REMARK  status: ('A' for Active; 'I' for Inactive)
REMARK    1  A    between atoms: C_1  and  C_2
REMARK    2  A    between atoms: C_2  and  N_3
REMARK    3  A    between atoms: C_4  and  N_37
REMARK    4  A    between atoms: C_5  and  C_12
REMARK    5  A    between atoms: C_12  and  C_14
REMARK    6  A    between atoms: C_14  and  O_15
REMARK    7  A    between atoms: O_15  and  C_16
REMARK    8  A    between atoms: C_16  and  C_18
REMARK    9  A    between atoms: N_21  and  C_24
REMARK   10  A    between atoms: C_27  and  C_33
REMARK   11  A    between atoms: C_29  and  N_30
REMARK                            x       y       z     vdW  Elec       q    Type
REMARK                         _______ _______ _______ _____ _____    ______ ____
ROOT
ATOM      1  C   UNL     1      -2.152   3.440  -1.993  0.00  0.00    +0.311 C 
ATOM      2  O   UNL     1      -2.559   2.641  -2.804  0.00  0.00    -0.251 OA
ENDROOT
BRANCH   1   3
ATOM      3  C   UNL     1      -1.508   2.959  -0.719  0.00  0.00    +0.101 C 
ATOM      4  C   UNL     1      -1.493   1.428  -0.699  0.00  0.00    +0.033 C 
ATOM      5  C   UNL     1      -0.892   0.945   0.623  0.00  0.00    +0.106 C 
ATOM      6  N   UNL     1      -1.692   1.460   1.742  0.00  0.00    -0.328 N 
ATOM      7  C   UNL     1      -1.681   2.928   1.772  0.00  0.00    +0.106 C 
ATOM      8  C   UNL     1      -2.305   3.470   0.484  0.00  0.00    +0.033 C 
BRANCH   6   9
ATOM      9  C   UNL     1      -1.250   0.932   2.957  0.00  0.00    +0.060 A 
ATOM     10  C   UNL     1       0.028   1.224   3.420  0.00  0.00    +0.026 A 
ATOM     11  C   UNL     1       0.461   0.700   4.622  0.00  0.00    +0.014 A 
ATOM     12  C   UNL     1      -0.374  -0.115   5.365  0.00  0.00    +0.057 A 
ATOM     13  C   UNL     1      -1.645  -0.407   4.907  0.00  0.00    +0.047 A 
ATOM     14  C   UNL     1      -2.088   0.118   3.709  0.00  0.00    +0.148 A 
BRANCH  12  15
ATOM     15  C   UNL     1       0.103  -0.684   6.676  0.00  0.00    +0.417 C 
ATOM     16  F   UNL     1       1.409  -0.251   6.925  0.00  0.00    -0.166 F 
ATOM     17  F   UNL     1      -0.737  -0.248   7.707  0.00  0.00    -0.166 F 
ATOM     18  F   UNL     1       0.079  -2.081   6.614  0.00  0.00    -0.166 F 
ENDBRANCH  12  15
BRANCH  14  19
ATOM     19  N   UNL     1      -3.451  -0.191   3.223  0.00  0.00    +0.058 N 
ATOM     20  O   UNL     1      -4.141  -0.999   3.817  0.00  0.00    -0.126 OA
ATOM     21  O   UNL     1      -3.883   0.364   2.228  0.00  0.00    -0.126 OA
ENDBRANCH  14  19
ENDBRANCH   6   9
ENDBRANCH   1   3
BRANCH   1  22
ATOM     22  O   UNL     1      -2.274   4.756  -2.228  0.00  0.00    -0.456 OA
BRANCH  22  23
ATOM     23  C   UNL     1      -2.905   5.147  -3.477  0.00  0.00    +0.311 C 
BRANCH  23  24
ATOM     24  C   UNL     1      -2.954   6.650  -3.565  0.00  0.00    +0.209 C 
ATOM     25  O   UNL     1      -2.501   7.327  -2.664  0.00  0.00    -0.288 OA
BRANCH  24  28
ATOM     26  N   UNL     1      -4.222   9.225  -5.878  0.00  0.00    -0.282 N 
ATOM     27  C   UNL     1      -3.667   8.669  -4.761  0.00  0.00    +0.116 A 
ATOM     28  C   UNL     1      -3.526   7.272  -4.696  0.00  0.00    +0.123 A 
ATOM     29  C   UNL     1      -3.997   6.480  -5.839  0.00  0.00    +0.266 A 
ATOM     30  O   UNL     1      -3.904   5.267  -5.835  0.00  0.00    -0.267 OA
ATOM     31  N   UNL     1      -4.536   7.126  -6.894  0.00  0.00    -0.274 N 
ATOM     32  H   UNL     1      -4.862   6.601  -7.680  0.00  0.00    +0.173 HD
ATOM     33  C   UNL     1      -4.640   8.465  -6.902  0.00  0.00    +0.331 A 
ATOM     34  O   UNL     1      -5.131   9.008  -7.872  0.00  0.00    -0.246 OA
BRANCH  27  35
ATOM     35  N   UNL     1      -3.254   9.455  -3.730  0.00  0.00    -0.344 N 
ATOM     36  H   UNL     1      -2.711   9.078  -3.020  0.00  0.00    +0.144 HD
ATOM     37  H   UNL     1      -3.502  10.393  -3.705  0.00  0.00    +0.144 HD
ENDBRANCH  27  35
BRANCH  26  39
ATOM     38  C   UNL     1      -5.725  11.089  -5.380  0.00  0.00    +0.027 C 
ATOM     39  C   UNL     1      -4.369  10.681  -5.959  0.00  0.00    +0.125 C 
ENDBRANCH  26  39
ENDBRANCH  24  28
ENDBRANCH  23  24
ENDBRANCH  22  23
ENDBRANCH   1  22
TORSDOF 10
