REMARK  Name = ZINC03665818
REMARK  7 active torsions:
REMARK  status: ('A' for Active; 'I' for Inactive)
REMARK    1  A    between atoms: C_1  and  C_2
REMARK    2  A    between atoms: C_2  and  C_3
REMARK    3  A    between atoms: C_6  and  N_9
REMARK    4  A    between atoms: C_19  and  C_20
REMARK    5  A    between atoms: C_19  and  O_31
REMARK    6  A    between atoms: N_22  and  C_23
REMARK    7  A    between atoms: C_23  and  C_24
REMARK                            x       y       z     vdW  Elec       q    Type
REMARK                         _______ _______ _______ _____ _____    ______ ____
ROOT
ATOM      1  N   UNL     1      -1.328   2.861   1.172  0.00  0.00    -0.214 N 
ATOM      2  C   UNL     1      -1.870   4.076   0.973  0.00  0.00    +0.314 C 
ATOM      3  O   UNL     1      -2.199   4.730   1.945  0.00  0.00    -0.252 OA
ATOM      4  N   UNL     1      -2.065   4.600  -0.244  0.00  0.00    -0.269 N 
ATOM      5  C   UNL     1      -1.723   3.933  -1.421  0.00  0.00    +0.043 A 
ATOM      6  C   UNL     1      -1.945   4.521  -2.659  0.00  0.00    +0.024 A 
ATOM      7  C   UNL     1      -1.601   3.843  -3.812  0.00  0.00    +0.002 A 
ATOM      8  C   UNL     1      -1.035   2.584  -3.741  0.00  0.00    +0.001 A 
ATOM      9  C   UNL     1      -0.811   1.994  -2.508  0.00  0.00    +0.010 A 
ATOM     10  C   UNL     1      -1.153   2.666  -1.358  0.00  0.00    +0.033 A 
ATOM     11  C   UNL     1      -0.925   2.056   0.006  0.00  0.00    +0.247 C 
ATOM     12  H   UNL     1      -2.513   5.599  -0.347  0.00  0.00    +0.156 HD
ENDROOT
BRANCH   1  16
ATOM     13  C   UNL     1      -0.799   1.394   5.035  0.00  0.00    -0.048 A 
ATOM     14  C   UNL     1       0.150   2.231   4.479  0.00  0.00    +0.005 A 
ATOM     15  C   UNL     1      -0.022   2.719   3.198  0.00  0.00    +0.024 A 
ATOM     16  C   UNL     1      -1.150   2.368   2.469  0.00  0.00    +0.041 A 
ATOM     17  C   UNL     1      -2.105   1.531   3.032  0.00  0.00    +0.024 A 
ATOM     18  C   UNL     1      -1.924   1.042   4.311  0.00  0.00    +0.005 A 
BRANCH  13  20
ATOM     19  C   UNL     1      -1.242   1.829   7.436  0.00  0.00    +0.009 C 
ATOM     20  C   UNL     1      -0.608   0.863   6.432  0.00  0.00    +0.032 C 
ENDBRANCH  13  20
ENDBRANCH   1  16
BRANCH  11  21
ATOM     21  C   UNL     1       0.545   1.751   0.138  0.00  0.00    +0.269 C 
ATOM     22  O   UNL     1       0.931   0.602   0.105  0.00  0.00    -0.270 OA
ATOM     23  N   UNL     1       1.431   2.755   0.288  0.00  0.00    -0.307 N 
ATOM     24  H   UNL     1       1.081   3.798   0.318  0.00  0.00    +0.149 HD
BRANCH  23  25
ATOM     25  C   UNL     1       2.861   2.459   0.410  0.00  0.00    +0.141 C 
BRANCH  25  26
ATOM     26  C   UNL     1       3.629   3.746   0.566  0.00  0.00    -0.012 A 
ATOM     27  C   UNL     1       4.133   4.105   1.802  0.00  0.00    +0.006 A 
ATOM     28  C   UNL     1       4.837   5.286   1.945  0.00  0.00    +0.000 A 
ATOM     29  C   UNL     1       5.039   6.108   0.851  0.00  0.00    +0.001 A 
ATOM     30  C   UNL     1       4.536   5.750  -0.385  0.00  0.00    +0.020 A 
ATOM     31  C   UNL     1       3.835   4.566  -0.530  0.00  0.00    +0.046 A 
ATOM     32 CL   UNL     1       3.209   4.111  -2.084  0.00  0.00    -0.083 Cl
ENDBRANCH  25  26
ENDBRANCH  23  25
ENDBRANCH  11  21
BRANCH  11  33
ATOM     33  O   UNL     1      -1.635   0.817   0.059  0.00  0.00    -0.360 OA
ATOM     34  H   UNL     1      -1.480   0.061  -0.725  0.00  0.00    +0.213 HD
ENDBRANCH  11  33
TORSDOF 6
