REMARK  Name = ZINC14920968
REMARK  12 active torsions:
REMARK  status: ('A' for Active; 'I' for Inactive)
REMARK    1  A    between atoms: C_1  and  C_2
REMARK    2  A    between atoms: C_2  and  N_3
REMARK    3  A    between atoms: N_3  and  C_4
REMARK    4  A    between atoms: N_3  and  C_6
REMARK    5  A    between atoms: C_4  and  C_5
REMARK    6  A    between atoms: C_9  and  C_12
REMARK    7  A    between atoms: C_13  and  C_14
REMARK    8  A    between atoms: C_13  and  N_29
REMARK    9  A    between atoms: N_16  and  N_17
REMARK   10  A    between atoms: C_18  and  C_19
REMARK   11  A    between atoms: N_21  and  C_28
REMARK   12  A    between atoms: C_30  and  C_32
REMARK                            x       y       z     vdW  Elec       q    Type
REMARK                         _______ _______ _______ _____ _____    ______ ____
ROOT
ATOM      1  C   UNL     1      -1.216  -0.376  -0.400  0.00  0.00    +0.036 C 
ATOM      2  C   UNL     1      -0.027   0.267  -0.317  0.00  0.00    +0.098 C 
ENDROOT
BRANCH   1   6
ATOM      3  C   UNL     1      -4.835   1.790   0.047  0.00  0.00    +0.030 A 
ATOM      4  C   UNL     1      -4.787   0.687  -0.800  0.00  0.00    +0.024 A 
ATOM      5  C   UNL     1      -3.615  -0.019  -0.948  0.00  0.00    +0.010 A 
ATOM      6  C   UNL     1      -2.470   0.375  -0.246  0.00  0.00    -0.023 A 
ATOM      7  C   UNL     1      -2.524   1.482   0.609  0.00  0.00    +0.010 A 
ATOM      8  C   UNL     1      -3.699   2.185   0.747  0.00  0.00    +0.024 A 
BRANCH   3   9
ATOM      9  N   UNL     1      -6.024   2.501   0.195  0.00  0.00    -0.330 N 
BRANCH   9  11
ATOM     10  C   UNL     1      -5.718   4.926   0.299  0.00  0.00    +0.024 C 
ATOM     11  C   UNL     1      -6.077   3.663   1.086  0.00  0.00    +0.102 C 
ENDBRANCH   9  11
BRANCH   9  12
ATOM     12  C   UNL     1      -7.221   2.087  -0.541  0.00  0.00    +0.102 C 
ATOM     13  C   UNL     1      -8.015   1.085   0.299  0.00  0.00    +0.024 C 
ENDBRANCH   9  12
ENDBRANCH   3   9
ENDBRANCH   1   6
BRANCH   2  14
ATOM     14  C   UNL     1       0.010   1.730  -0.206  0.00  0.00    +0.277 C 
ATOM     15  O   UNL     1       0.291   2.253   0.858  0.00  0.00    -0.267 OA
ATOM     16  N   UNL     1      -0.272   2.495  -1.279  0.00  0.00    -0.202 N 
ATOM     17  H   UNL     1      -0.568   2.082  -2.105  0.00  0.00    +0.178 HD
BRANCH  16  18
ATOM     18  N   UNL     1      -0.139   3.888  -1.201  0.00  0.00    -0.187 NA
ATOM     19  C   UNL     1      -0.411   4.625  -2.236  0.00  0.00    +0.140 C 
BRANCH  19  20
ATOM     20  C   UNL     1      -0.270   6.088  -2.154  0.00  0.00    +0.020 A 
ATOM     21  C   UNL     1      -0.517   6.985  -3.146  0.00  0.00    +0.096 A 
ATOM     22  N   UNL     1      -0.274   8.248  -2.694  0.00  0.00    -0.349 N 
ATOM     23  C   UNL     1       0.143   8.214  -1.381  0.00  0.00    +0.049 A 
ATOM     24  C   UNL     1       0.159   6.867  -0.979  0.00  0.00    +0.008 A 
ATOM     25  C   UNL     1       0.551   6.530   0.314  0.00  0.00    +0.010 A 
ATOM     26  C   UNL     1       0.912   7.522   1.199  0.00  0.00    +0.001 A 
ATOM     27  C   UNL     1       0.890   8.853   0.805  0.00  0.00    +0.002 A 
ATOM     28  C   UNL     1       0.510   9.201  -0.472  0.00  0.00    +0.026 A 
ATOM     29  C   UNL     1      -0.432   9.468  -3.491  0.00  0.00    +0.149 C 
ENDBRANCH  19  20
ENDBRANCH  16  18
ENDBRANCH   2  14
BRANCH   2  30
ATOM     30  N   UNL     1       1.166  -0.463  -0.338  0.00  0.00    -0.277 N 
ATOM     31  C   UNL     1       2.350   0.178  -0.279  0.00  0.00    +0.248 C 
ATOM     32  O   UNL     1       2.382   1.383  -0.114  0.00  0.00    -0.270 OA
ATOM     33  H   UNL     1       1.142  -1.431  -0.395  0.00  0.00    +0.155 HD
BRANCH  31  34
ATOM     34  C   UNL     1       3.610  -0.582  -0.416  0.00  0.00    +0.037 A 
ATOM     35  C   UNL     1       3.578  -1.965  -0.600  0.00  0.00    +0.013 A 
ATOM     36  C   UNL     1       4.758  -2.668  -0.731  0.00  0.00    +0.001 A 
ATOM     37  C   UNL     1       5.971  -2.006  -0.671  0.00  0.00    +0.000 A 
ATOM     38  C   UNL     1       6.011  -0.636  -0.482  0.00  0.00    +0.001 A 
ATOM     39  C   UNL     1       4.838   0.079  -0.355  0.00  0.00    +0.013 A 
ENDBRANCH  31  34
ENDBRANCH   2  30
TORSDOF 9
