REMARK  Name = ZINC38596573
REMARK  9 active torsions:
REMARK  status: ('A' for Active; 'I' for Inactive)
REMARK    1  A    between atoms: C_1  and  O_2
REMARK    2  A    between atoms: O_2  and  C_3
REMARK    3  A    between atoms: C_3  and  C_5
REMARK    4  A    between atoms: C_7  and  N_15
REMARK    5  A    between atoms: C_16  and  C_18
REMARK    6  A    between atoms: C_18  and  N_19
REMARK    7  A    between atoms: N_22  and  C_25
REMARK    8  A    between atoms: C_25  and  C_26
REMARK    9  A    between atoms: C_27  and  C_28
REMARK                            x       y       z     vdW  Elec       q    Type
REMARK                         _______ _______ _______ _____ _____    ______ ____
ROOT
ATOM      1  N   UNL     1      -1.699  -2.555   0.943  0.00  0.00    -0.285 N 
ATOM      2  C   UNL     1      -2.833  -3.003   1.517  0.00  0.00    +0.231 C 
ATOM      3  O   UNL     1      -2.806  -3.446   2.645  0.00  0.00    -0.274 OA
ATOM      4  H   UNL     1      -1.732  -2.124   0.074  0.00  0.00    +0.155 HD
ENDROOT
BRANCH   1   6
ATOM      5  C   UNL     1      -0.238  -3.503   2.840  0.00  0.00    +0.234 C 
ATOM      6  C   UNL     1      -0.505  -2.707   1.582  0.00  0.00    +0.053 C 
ATOM      7  C   UNL     1       0.714  -2.164   1.215  0.00  0.00    +0.018 A 
ATOM      8  C   UNL     1       1.104  -1.333   0.137  0.00  0.00    +0.011 A 
ATOM      9  C   UNL     1       2.398  -0.945   0.022  0.00  0.00    +0.001 A 
ATOM     10  C   UNL     1       3.368  -1.345   0.946  0.00  0.00    +0.002 A 
ATOM     11  C   UNL     1       3.067  -2.139   2.001  0.00  0.00    +0.026 A 
ATOM     12  C   UNL     1       1.734  -2.587   2.190  0.00  0.00    +0.045 A 
ATOM     13  N   UNL     1       1.193  -3.351   3.119  0.00  0.00    -0.367 N 
ATOM     14  H   UNL     1       1.666  -3.749   3.868  0.00  0.00    +0.161 HD
BRANCH   5  15
ATOM     15  C   UNL     1      -0.572  -4.955   2.615  0.00  0.00    +0.335 C 
ATOM     16  O   UNL     1       0.287  -5.723   2.251  0.00  0.00    -0.248 OA
BRANCH  15  18
ATOM     17  C   UNL     1      -2.068  -6.785   2.586  0.00  0.00    +0.280 C 
ATOM     18  O   UNL     1      -1.823  -5.396   2.819  0.00  0.00    -0.466 OA
ENDBRANCH  15  18
ENDBRANCH   5  15
ENDBRANCH   1   6
BRANCH   2  19
ATOM     19  C   UNL     1      -4.133  -2.952   0.757  0.00  0.00    +0.180 C 
BRANCH  19  20
ATOM     20  N   UNL     1      -5.211  -3.494   1.595  0.00  0.00    -0.298 NA
ATOM     21  C   UNL     1      -5.014  -4.929   1.845  0.00  0.00    +0.066 C 
ATOM     22  C   UNL     1      -6.122  -5.440   2.768  0.00  0.00    -0.063 C 
ATOM     23  N   UNL     1      -7.429  -5.211   2.138  0.00  0.00    +0.384 N 
ATOM     24  C   UNL     1      -7.622  -3.771   1.918  0.00  0.00    -0.063 C 
ATOM     25  C   UNL     1      -6.526  -3.246   0.988  0.00  0.00    +0.066 C 
ATOM     26  H   UNL     1      -7.465  -5.694   1.254  0.00  0.00    -0.081 HD
BRANCH  23  27
ATOM     27  C   UNL     1      -8.491  -5.718   3.017  0.00  0.00    -0.051 C 
BRANCH  27  28
ATOM     28  C   UNL     1      -9.821  -5.595   2.319  0.00  0.00    -0.045 C 
ATOM     29  C   UNL     1     -10.595  -6.661   2.175  0.00  0.00    +0.002 C 
BRANCH  29  30
ATOM     30  C   UNL     1     -11.900  -6.541   1.490  0.00  0.00    -0.025 A 
ATOM     31  C   UNL     1     -12.317  -5.307   0.990  0.00  0.00    +0.008 A 
ATOM     32  C   UNL     1     -13.536  -5.201   0.352  0.00  0.00    +0.001 A 
ATOM     33  C   UNL     1     -14.344  -6.314   0.208  0.00  0.00    +0.000 A 
ATOM     34  C   UNL     1     -13.936  -7.541   0.703  0.00  0.00    +0.001 A 
ATOM     35  C   UNL     1     -12.717  -7.661   1.337  0.00  0.00    +0.008 A 
ENDBRANCH  29  30
ENDBRANCH  27  28
ENDBRANCH  23  27
ENDBRANCH  19  20
ENDBRANCH   2  19
TORSDOF 8
