REMARK  Name = ZINC06198126
REMARK  15 active torsions:
REMARK  status: ('A' for Active; 'I' for Inactive)
REMARK    1  A    between atoms: C_1  and  C_2
REMARK    2  A    between atoms: C_2  and  C_3
REMARK    3  A    between atoms: C_10  and  C_15
REMARK    4  A    between atoms: C_15  and  C_17
REMARK    5  A    between atoms: C_15  and  N_77
REMARK    6  A    between atoms: N_21  and  C_22
REMARK    7  A    between atoms: C_22  and  C_23
REMARK    8  A    between atoms: C_22  and  C_24
REMARK    9  A    between atoms: C_22  and  C_25
REMARK   10  A    between atoms: C_26  and  C_27
REMARK   11  A    between atoms: C_26  and  N_77
REMARK   12  A    between atoms: C_30  and  O_33
REMARK   13  A    between atoms: O_33  and  C_34
REMARK   14  A    between atoms: C_35  and  C_36
REMARK   15  A    between atoms: C_35  and  N_77
REMARK                            x       y       z     vdW  Elec       q    Type
REMARK                         _______ _______ _______ _____ _____    ______ ____
ROOT
ATOM      1  C   UNL     1       0.109   1.487  -0.504  0.00  0.00    +0.039 C 
ENDROOT
BRANCH   1   9
ATOM      2  C   UNL     1      -2.091   1.287  -6.284  0.00  0.00    -0.047 A 
ATOM      3  C   UNL     1      -2.350   2.646  -6.399  0.00  0.00    +0.005 A 
ATOM      4  C   UNL     1      -2.082   3.504  -5.354  0.00  0.00    +0.026 A 
ATOM      5  C   UNL     1      -1.547   3.005  -4.171  0.00  0.00    +0.049 A 
ATOM      6  C   UNL     1      -1.286   1.627  -4.058  0.00  0.00    -0.001 A 
ATOM      7  C   UNL     1      -1.566   0.774  -5.132  0.00  0.00    +0.013 A 
ATOM      8  C   UNL     1      -0.718   1.112  -2.811  0.00  0.00    +0.017 A 
ATOM      9  C   UNL     1      -0.472   1.984  -1.803  0.00  0.00    +0.011 A 
ATOM     10  C   UNL     1      -0.752   3.358  -1.967  0.00  0.00    +0.251 A 
ATOM     11  O   UNL     1      -0.519   4.126  -1.050  0.00  0.00    -0.268 OA
ATOM     12  N   UNL     1      -1.269   3.840  -3.110  0.00  0.00    -0.322 N 
ATOM     13  H   UNL     1      -1.456   4.819  -3.192  0.00  0.00    +0.169 HD
BRANCH   2  15
ATOM     14  C   UNL     1      -1.163   0.268  -8.346  0.00  0.00    +0.009 C 
ATOM     15  C   UNL     1      -2.393   0.369  -7.440  0.00  0.00    +0.032 C 
ENDBRANCH   2  15
ENDBRANCH   1   9
BRANCH   1  16
ATOM     16  C   UNL     1      -0.891   1.694   0.605  0.00  0.00    +0.143 A 
ATOM     17  N   UNL     1      -1.171   2.825   1.205  0.00  0.00    -0.115 NA
ATOM     18  N   UNL     1      -2.075   2.591   2.092  0.00  0.00    -0.023 NA
ATOM     19  N   UNL     1      -2.374   1.339   2.079  0.00  0.00    -0.043 NA
ATOM     20  N   UNL     1      -1.665   0.752   1.175  0.00  0.00    -0.225 N 
BRANCH  20  21
ATOM     21  C   UNL     1      -1.696  -0.673   0.834  0.00  0.00    +0.059 C 
ATOM     22  C   UNL     1      -0.339  -1.303   1.151  0.00  0.00    +0.036 C 
ATOM     23  C   UNL     1      -2.785  -1.369   1.652  0.00  0.00    +0.036 C 
ATOM     24  C   UNL     1      -1.997  -0.833  -0.658  0.00  0.00    +0.036 C 
ENDBRANCH  20  21
ENDBRANCH   1  16
BRANCH   1  25
ATOM     25  N   UNL     1       1.331   2.258  -0.194  0.00  0.00    +0.394 N 
ATOM     26  H   UNL     1       1.067   3.224   0.031  0.00  0.00    -0.080 HD
BRANCH  25  27
ATOM     27  C   UNL     1       2.020   1.665   0.971  0.00  0.00    -0.041 C 
BRANCH  27  28
ATOM     28  C   UNL     1       1.341   2.145   2.228  0.00  0.00    -0.064 A 
ATOM     29  C   UNL     1       1.498   3.455   2.640  0.00  0.00    +0.005 A 
ATOM     30  C   UNL     1       0.872   3.899   3.788  0.00  0.00    +0.046 A 
ATOM     31  C   UNL     1       0.094   3.026   4.535  0.00  0.00    +0.120 A 
ATOM     32  C   UNL     1      -0.057   1.710   4.123  0.00  0.00    +0.046 A 
ATOM     33  C   UNL     1       0.567   1.272   2.971  0.00  0.00    +0.005 A 
BRANCH  31  34
ATOM     34  O   UNL     1      -0.518   3.459   5.668  0.00  0.00    -0.495 OA
ATOM     35  C   UNL     1      -0.319   4.826   6.032  0.00  0.00    +0.277 C 
ENDBRANCH  31  34
ENDBRANCH  27  28
ENDBRANCH  25  27
BRANCH  25  36
ATOM     36  C   UNL     1       2.233   2.266  -1.364  0.00  0.00    -0.045 C 
BRANCH  36  37
ATOM     37  C   UNL     1       3.262   3.384  -1.183  0.00  0.00    +0.102 C 
ATOM     38  C   UNL     1       4.105   3.553  -2.467  0.00  0.00    +0.032 C 
ATOM     39  C   UNL     1       5.523   3.874  -1.945  0.00  0.00    +0.030 C 
ATOM     40  C   UNL     1       5.370   3.862  -0.408  0.00  0.00    +0.160 C 
ATOM     41  O   UNL     1       4.215   3.030  -0.157  0.00  0.00    -0.378 OA
ENDBRANCH  36  37
ENDBRANCH  25  36
ENDBRANCH   1  25
TORSDOF 10
