REMARK  Name = ZINC09185294
REMARK  6 active torsions:
REMARK  status: ('A' for Active; 'I' for Inactive)
REMARK    1  A    between atoms: C_1  and  O_2
REMARK    2  A    between atoms: O_2  and  C_3
REMARK    3  A    between atoms: C_6  and  C_9
REMARK    4  A    between atoms: C_26  and  C_31
REMARK    5  A    between atoms: C_36  and  O_37
REMARK    6  A    between atoms: O_37  and  C_38
REMARK                            x       y       z     vdW  Elec       q    Type
REMARK                         _______ _______ _______ _____ _____    ______ ____
ROOT
ATOM      1  C   UNL     1      -2.507   4.258   0.058  0.00  0.00    +0.091 C 
ATOM      2  C   UNL     1      -1.217   3.477   0.037  0.00  0.00    +0.008 A 
ATOM      3  C   UNL     1      -0.007   4.172   0.031  0.00  0.00    +0.009 A 
ATOM      4  C   UNL     1       1.185   3.517   0.013  0.00  0.00    +0.009 A 
ATOM      5  C   UNL     1       1.207   2.112   0.002  0.00  0.00    -0.014 A 
ATOM      6  C   UNL     1       2.419   1.400  -0.016  0.00  0.00    +0.008 A 
ATOM      7  C   UNL     1       2.399   0.039  -0.023  0.00  0.00    +0.001 A 
ATOM      8  C   UNL     1       1.194  -0.661  -0.014  0.00  0.00    +0.001 A 
ATOM      9  C   UNL     1       0.002  -0.004   0.002  0.00  0.00    +0.012 A 
ATOM     10  C   UNL     1      -0.017   1.400   0.010  0.00  0.00    +0.025 A 
ATOM     11  C   UNL     1      -1.237   2.112   0.031  0.00  0.00    +0.142 A 
ATOM     12  O   UNL     1      -2.402   1.425   0.040  0.00  0.00    -0.437 OA
ATOM     13  C   UNL     1      -3.554   2.021  -0.346  0.00  0.00    +0.230 A 
ATOM     14  C   UNL     1      -3.652   3.387  -0.345  0.00  0.00    +0.070 A 
ATOM     15  C   UNL     1      -4.880   3.934  -0.752  0.00  0.00    +0.167 A 
ATOM     16  N   UNL     1      -5.314   5.165  -0.867  0.00  0.00    -0.206 NA
ATOM     17  C   UNL     1      -6.580   5.155  -1.301  0.00  0.00    +0.186 A 
ATOM     18  N   UNL     1      -6.978   3.903  -1.472  0.00  0.00    -0.143 NA
ATOM     19  N   UNL     1      -5.909   3.088  -1.129  0.00  0.00    -0.201 N 
ATOM     20  C   UNL     1      -5.746   1.742  -1.112  0.00  0.00    +0.229 A 
ATOM     21  N   UNL     1      -4.590   1.258  -0.726  0.00  0.00    -0.201 NA
ENDROOT
BRANCH   1  25
ATOM     22  C   UNL     1      -3.215   5.714   4.012  0.00  0.00    +0.120 A 
ATOM     23  C   UNL     1      -3.086   6.605   2.957  0.00  0.00    +0.046 A 
ATOM     24  C   UNL     1      -2.857   6.131   1.679  0.00  0.00    +0.008 A 
ATOM     25  C   UNL     1      -2.756   4.771   1.452  0.00  0.00    -0.035 A 
ATOM     26  C   UNL     1      -2.890   3.881   2.502  0.00  0.00    +0.008 A 
ATOM     27  C   UNL     1      -3.113   4.349   3.782  0.00  0.00    +0.046 A 
BRANCH  22  29
ATOM     28  C   UNL     1      -3.561   5.202   6.308  0.00  0.00    +0.277 C 
ATOM     29  O   UNL     1      -3.440   6.177   5.270  0.00  0.00    -0.495 OA
ENDBRANCH  22  29
ENDBRANCH   1  25
BRANCH  17  30
ATOM     30  C   UNL     1      -7.410   6.359  -1.552  0.00  0.00    +0.062 A 
ATOM     31  C   UNL     1      -6.884   7.629  -1.330  0.00  0.00    +0.015 A 
ATOM     32  C   UNL     1      -7.658   8.746  -1.569  0.00  0.00    +0.001 A 
ATOM     33  C   UNL     1      -8.959   8.609  -2.020  0.00  0.00    +0.004 A 
ATOM     34  C   UNL     1      -9.492   7.353  -2.238  0.00  0.00    +0.046 A 
ATOM     35  C   UNL     1      -8.725   6.223  -2.007  0.00  0.00    +0.131 A 
BRANCH  35  36
ATOM     36  O   UNL     1      -9.248   4.988  -2.221  0.00  0.00    -0.494 OA
ATOM     37  C   UNL     1     -10.598   4.927  -2.686  0.00  0.00    +0.277 C 
ENDBRANCH  35  36
ENDBRANCH  17  30
TORSDOF 4
