REMARK  Name = ZINC36899378
REMARK  3 active torsions:
REMARK  status: ('A' for Active; 'I' for Inactive)
REMARK    1  A    between atoms: C_1  and  O_2
REMARK    2  A    between atoms: O_2  and  C_3
REMARK    3  A    between atoms: C_8  and  N_9
REMARK                            x       y       z     vdW  Elec       q    Type
REMARK                         _______ _______ _______ _____ _____    ______ ____
ROOT
ATOM      1  N   UNL     1      -0.072  -2.780  -0.012  0.00  0.00    -0.277 N 
ATOM      2  C   UNL     1       0.631  -3.232   1.095  0.00  0.00    +0.075 A 
ATOM      3  C   UNL     1       0.443  -3.120   2.464  0.00  0.00    +0.029 A 
ATOM      4  C   UNL     1       1.347  -3.697   3.331  0.00  0.00    +0.017 A 
ATOM      5  C   UNL     1       2.445  -4.391   2.842  0.00  0.00    +0.020 A 
ATOM      6  C   UNL     1       2.648  -4.512   1.485  0.00  0.00    +0.045 A 
ATOM      7  C   UNL     1       1.741  -3.933   0.594  0.00  0.00    +0.092 A 
ATOM      8  N   UNL     1       1.669  -3.880  -0.762  0.00  0.00    -0.214 NA
ATOM      9  C   UNL     1       0.603  -3.209  -1.122  0.00  0.00    +0.199 A 
ATOM     10  N   UNL     1       0.220  -2.969  -2.425  0.00  0.00    -0.329 N 
ATOM     11 BR   UNL     1       3.673  -5.175   4.048  0.00  0.00    -0.050 Br
ATOM     12  H   UNL     1      -0.585  -2.459  -2.607  0.00  0.00    +0.145 HD
ATOM     13  H   UNL     1       0.755  -3.309  -3.158  0.00  0.00    +0.145 HD
ENDROOT
BRANCH   1  19
ATOM     14  C   UNL     1      -1.201  -0.638   0.010  0.00  0.00    +0.144 A 
ATOM     15  C   UNL     1      -2.374   0.100   0.019  0.00  0.00    +0.049 A 
ATOM     16  C   UNL     1      -3.597  -0.546   0.027  0.00  0.00    +0.024 A 
ATOM     17  C   UNL     1      -3.653  -1.928   0.026  0.00  0.00    +0.043 A 
ATOM     18  C   UNL     1      -2.486  -2.671   0.017  0.00  0.00    +0.050 A 
ATOM     19  C   UNL     1      -1.257  -2.029   0.003  0.00  0.00    +0.093 A 
ATOM     20 CL   UNL     1      -5.191  -2.732   0.035  0.00  0.00    -0.083 Cl
BRANCH  14  22
ATOM     21  C   UNL     1      -0.017   1.425   0.010  0.00  0.00    +0.277 C 
ATOM     22  O   UNL     1       0.002  -0.004   0.002  0.00  0.00    -0.493 OA
ENDBRANCH  14  22
ENDBRANCH   1  19
TORSDOF 2
