REMARK  Name = ZINC40661917
REMARK  7 active torsions:
REMARK  status: ('A' for Active; 'I' for Inactive)
REMARK    1  A    between atoms: C_1  and  C_2
REMARK    2  A    between atoms: C_2  and  N_3
REMARK    3  A    between atoms: N_3  and  C_4
REMARK    4  A    between atoms: C_8  and  C_10
REMARK    5  A    between atoms: C_12  and  N_29
REMARK    6  A    between atoms: C_13  and  O_17
REMARK    7  A    between atoms: O_17  and  C_18
REMARK                            x       y       z     vdW  Elec       q    Type
REMARK                         _______ _______ _______ _____ _____    ______ ____
ROOT
ATOM      1  N   UNL     1      -1.260  -0.685   0.015  0.00  0.00    -0.284 N 
ATOM      2  C   UNL     1      -1.826  -0.896   1.267  0.00  0.00    +0.153 A 
ATOM      3  C   UNL     1      -1.155  -0.496   2.426  0.00  0.00    +0.128 A 
ATOM      4  C   UNL     1      -1.768  -0.731   3.656  0.00  0.00    +0.246 A 
ATOM      5  N   UNL     1      -2.958  -1.323   3.680  0.00  0.00    -0.199 NA
ATOM      6  C   UNL     1      -3.558  -1.686   2.565  0.00  0.00    +0.227 A 
ATOM      7  N   UNL     1      -3.017  -1.478   1.381  0.00  0.00    -0.218 NA
ENDROOT
BRANCH   1   8
ATOM      8  C   UNL     1      -0.520  -1.701  -0.597  0.00  0.00    +0.035 A 
ATOM      9  C   UNL     1       0.137  -1.457  -1.797  0.00  0.00    +0.023 A 
ATOM     10  C   UNL     1       0.867  -2.462  -2.400  0.00  0.00    +0.002 A 
ATOM     11  C   UNL     1       0.945  -3.711  -1.810  0.00  0.00    +0.003 A 
ATOM     12  C   UNL     1       0.292  -3.957  -0.616  0.00  0.00    -0.049 A 
ATOM     13  C   UNL     1      -0.435  -2.954  -0.005  0.00  0.00    +0.026 A 
ATOM     14  C   UNL     1       0.380  -5.319   0.023  0.00  0.00    +0.044 C 
ENDBRANCH   1   8
BRANCH   3  15
ATOM     15  N   UNL     1       0.101   0.126   2.353  0.00  0.00    -0.351 N 
ATOM     16  H   UNL     1       0.548   0.217   1.498  0.00  0.00    +0.143 HD
ATOM     17  H   UNL     1       0.522   0.465   3.159  0.00  0.00    +0.143 HD
ENDBRANCH   3  15
BRANCH   1  19
ATOM     18  C   UNL     1      -2.622   0.508  -1.628  0.00  0.00    +0.025 C 
ATOM     19  C   UNL     1      -1.439   0.601  -0.662  0.00  0.00    +0.109 C 
ENDBRANCH   1  19
BRANCH   4  20
ATOM     20  O   UNL     1      -1.158  -0.362   4.810  0.00  0.00    -0.434 OA
BRANCH  20  21
ATOM     21  C   UNL     1      -1.750  -0.709   5.983  0.00  0.00    +0.156 A 
ATOM     22  C   UNL     1      -2.591   0.173   6.622  0.00  0.00    +0.049 A 
ATOM     23  C   UNL     1      -3.203  -0.168   7.824  0.00  0.00    +0.019 A 
ATOM     24  C   UNL     1      -2.988  -1.384   8.400  0.00  0.00    +0.027 A 
ATOM     25  C   UNL     1      -2.137  -2.312   7.777  0.00  0.00    +0.018 A 
ATOM     26  C   UNL     1      -1.512  -1.978   6.550  0.00  0.00    +0.114 A 
ATOM     27  N   UNL     1      -0.705  -2.860   5.953  0.00  0.00    -0.251 NA
ATOM     28  C   UNL     1      -0.479  -4.040   6.475  0.00  0.00    +0.111 A 
ATOM     29  C   UNL     1      -1.067  -4.435   7.676  0.00  0.00    +0.020 A 
ATOM     30  C   UNL     1      -1.892  -3.576   8.345  0.00  0.00    +0.013 A 
ATOM     31 BR   UNL     1      -3.833  -1.822  10.034  0.00  0.00    -0.050 Br
ENDBRANCH  20  21
ENDBRANCH   4  20
TORSDOF 5
