REMARK  Name = ZINC39989665
REMARK  8 active torsions:
REMARK  status: ('A' for Active; 'I' for Inactive)
REMARK    1  A    between atoms: C_1  and  C_2
REMARK    2  A    between atoms: C_2  and  N_3
REMARK    3  A    between atoms: C_4  and  N_31
REMARK    4  A    between atoms: C_5  and  C_13
REMARK    5  A    between atoms: C_6  and  C_12
REMARK    6  A    between atoms: C_7  and  C_10
REMARK    7  A    between atoms: N_17  and  C_21
REMARK    8  A    between atoms: C_21  and  C_22
REMARK                            x       y       z     vdW  Elec       q    Type
REMARK                         _______ _______ _______ _____ _____    ______ ____
ROOT
ATOM      1  C   UNL     1      -3.718  -1.233   2.903  0.00  0.00    +0.032 C 
ATOM      2  C   UNL     1      -4.767  -0.461   3.299  0.00  0.00    +0.077 C 
ATOM      3  C   UNL     1      -5.374  -0.345   4.587  0.00  0.00    +0.259 C 
ATOM      4  O   UNL     1      -4.964  -0.991   5.534  0.00  0.00    -0.269 OA
ATOM      5  N   UNL     1      -6.393   0.486   4.719  0.00  0.00    -0.251 N 
ATOM      6  C   UNL     1      -6.848   1.203   3.668  0.00  0.00    +0.121 C 
ATOM      7  S   UNL     1      -8.140   2.325   3.612  0.00  0.00    -0.027 S 
ATOM      8  S   UNL     1      -5.754   0.689   2.352  0.00  0.00    -0.061 S 
ENDROOT
BRANCH   1  11
ATOM      9  N   UNL     1      -1.419  -0.490   0.056  0.00  0.00    -0.295 N 
ATOM     10  C   UNL     1      -1.908  -0.601   1.318  0.00  0.00    +0.112 A 
ATOM     11  C   UNL     1      -3.196  -1.115   1.540  0.00  0.00    +0.019 A 
ATOM     12  C   UNL     1      -3.979  -1.516   0.445  0.00  0.00    -0.017 A 
ATOM     13  C   UNL     1      -3.454  -1.392  -0.839  0.00  0.00    +0.120 A 
ATOM     14  C   UNL     1      -2.150  -0.862  -1.010  0.00  0.00    +0.270 A 
ATOM     15  O   UNL     1      -1.687  -0.746  -2.131  0.00  0.00    -0.266 OA
ATOM     16  C   UNL     1      -5.364  -2.071   0.655  0.00  0.00    +0.046 C 
BRANCH  10  17
ATOM     17  N   UNL     1      -1.143  -0.210   2.377  0.00  0.00    -0.316 N 
ATOM     18  C   UNL     1      -0.124  -1.032   3.048  0.00  0.00    +0.106 C 
ATOM     19  C   UNL     1       0.460  -0.187   4.200  0.00  0.00    +0.020 C 
ATOM     20  C   UNL     1      -0.658   0.855   4.469  0.00  0.00    +0.020 C 
ATOM     21  C   UNL     1      -1.196   1.108   3.036  0.00  0.00    +0.106 C 
ENDBRANCH  10  17
BRANCH   9  23
ATOM     22  C   UNL     1      -0.140   1.575  -0.229  0.00  0.00    +0.027 C 
ATOM     23  C   UNL     1      -0.072   0.049  -0.148  0.00  0.00    +0.123 C 
ENDBRANCH   9  23
BRANCH  13  24
ATOM     24  C   UNL     1      -4.227  -1.791  -1.976  0.00  0.00    +0.105 C 
ATOM     25  N   UNL     1      -4.839  -2.108  -2.879  0.00  0.00    -0.191 NA
ENDBRANCH  13  24
ENDBRANCH   1  11
BRANCH   5  26
ATOM     26  C   UNL     1      -7.040   0.631   6.026  0.00  0.00    +0.150 C 
BRANCH  26  27
ATOM     27  C   UNL     1      -6.364   1.732   6.802  0.00  0.00    -0.026 A 
ATOM     28  C   UNL     1      -5.288   1.438   7.619  0.00  0.00    +0.009 A 
ATOM     29  C   UNL     1      -4.664   2.445   8.333  0.00  0.00    +0.050 A 
ATOM     30  C   UNL     1      -5.116   3.750   8.231  0.00  0.00    +0.166 A 
ATOM     31  C   UNL     1      -6.200   4.046   7.407  0.00  0.00    +0.167 A 
ATOM     32  C   UNL     1      -6.817   3.033   6.690  0.00  0.00    +0.054 A 
ATOM     33  O   UNL     1      -6.449   5.386   7.478  0.00  0.00    -0.453 OA
ATOM     34  C   UNL     1      -5.769   5.841   8.663  0.00  0.00    +0.466 C 
ATOM     35  O   UNL     1      -4.686   4.905   8.817  0.00  0.00    -0.453 OA
ENDBRANCH  26  27
ENDBRANCH   5  26
TORSDOF 6
