REMARK  Name = ZINC20569101
REMARK  13 active torsions:
REMARK  status: ('A' for Active; 'I' for Inactive)
REMARK    1  A    between atoms: C_1  and  C_2
REMARK    2  A    between atoms: C_3  and  C_24
REMARK    3  A    between atoms: C_12  and  N_20
REMARK    4  A    between atoms: C_13  and  C_14
REMARK    5  A    between atoms: C_14  and  O_16
REMARK    6  A    between atoms: O_16  and  C_17
REMARK    7  A    between atoms: C_17  and  C_18
REMARK    8  A    between atoms: C_17  and  C_19
REMARK    9  A    between atoms: C_24  and  O_26
REMARK   10  A    between atoms: O_26  and  C_27
REMARK   11  A    between atoms: C_27  and  C_28
REMARK   12  A    between atoms: C_27  and  C_29
REMARK   13  A    between atoms: C_27  and  C_30
REMARK                            x       y       z     vdW  Elec       q    Type
REMARK                         _______ _______ _______ _____ _____    ______ ____
ROOT
ATOM      1  C   UNL     1       2.346   7.229   1.609  0.00  0.00    +0.087 C 
ATOM      2  C   UNL     1       2.246   6.050   0.676  0.00  0.00    +0.117 C 
ATOM      3  C   UNL     1       2.443   4.777   1.061  0.00  0.00    +0.100 C 
ATOM      4  C   UNL     1       2.242   3.938  -0.183  0.00  0.00    +0.164 C 
ATOM      5  C   UNL     1       1.084   3.003   0.003  0.00  0.00    -0.000 A 
ATOM      6  C   UNL     1      -0.206   3.504   0.013  0.00  0.00    +0.007 A 
ATOM      7  C   UNL     1      -1.282   2.654   0.185  0.00  0.00    +0.000 A 
ATOM      8  C   UNL     1      -1.076   1.296   0.344  0.00  0.00    +0.002 A 
ATOM      9  C   UNL     1       0.207   0.788   0.340  0.00  0.00    +0.023 A 
ATOM     10  C   UNL     1       1.291   1.640   0.168  0.00  0.00    +0.037 A 
ATOM     11  N   UNL     1       2.588   1.119   0.159  0.00  0.00    -0.302 N 
ATOM     12  C   UNL     1       3.626   1.854  -0.347  0.00  0.00    +0.097 C 
ATOM     13  C   UNL     1       3.502   3.209  -0.531  0.00  0.00    +0.098 C 
ATOM     14  C   UNL     1       1.917   4.965  -1.247  0.00  0.00    +0.332 C 
ATOM     15  O   UNL     1       1.679   4.757  -2.413  0.00  0.00    -0.249 OA
ATOM     16  O   UNL     1       1.949   6.156  -0.625  0.00  0.00    -0.429 OA
ATOM     17  H   UNL     1       2.779   0.112   0.561  0.00  0.00    +0.153 HD
ENDROOT
BRANCH  12  18
ATOM     18  N   UNL     1       4.802   1.231  -0.674  0.00  0.00    -0.346 N 
ATOM     19  H   UNL     1       5.640   1.816  -1.081  0.00  0.00    +0.143 HD
ATOM     20  H   UNL     1       4.908   0.146  -0.529  0.00  0.00    +0.143 HD
ENDBRANCH  12  18
BRANCH  13  21
ATOM     21  C   UNL     1       4.582   3.927  -1.058  0.00  0.00    +0.340 C 
ATOM     22  O   UNL     1       5.571   3.336  -1.455  0.00  0.00    -0.245 OA
BRANCH  21  23
ATOM     23  O   UNL     1       4.528   5.275  -1.127  0.00  0.00    -0.459 OA
BRANCH  23  24
ATOM     24  C   UNL     1       5.665   5.942  -1.677  0.00  0.00    +0.171 C 
ATOM     25  C   UNL     1       5.217   7.237  -2.358  0.00  0.00    +0.052 C 
ATOM     26  C   UNL     1       6.654   6.271  -0.556  0.00  0.00    +0.052 C 
ENDBRANCH  23  24
ENDBRANCH  21  23
ENDBRANCH  13  21
BRANCH   3  27
ATOM     27  C   UNL     1       2.770   4.316   2.361  0.00  0.00    +0.341 C 
ATOM     28  O   UNL     1       2.901   5.111   3.273  0.00  0.00    -0.245 OA
BRANCH  27  29
ATOM     29  O   UNL     1       2.936   2.997   2.587  0.00  0.00    -0.456 OA
BRANCH  29  30
ATOM     30  C   UNL     1       3.265   2.603   3.921  0.00  0.00    +0.106 C 
ATOM     31  C   UNL     1       2.151   3.046   4.872  0.00  0.00    +0.055 C 
ATOM     32  C   UNL     1       3.412   1.081   3.982  0.00  0.00    +0.055 C 
ATOM     33  C   UNL     1       4.582   3.260   4.336  0.00  0.00    +0.055 C 
ENDBRANCH  29  30
ENDBRANCH  27  29
ENDBRANCH   3  27
TORSDOF 7
