REMARK  Name = ZINC15733767
REMARK  9 active torsions:
REMARK  status: ('A' for Active; 'I' for Inactive)
REMARK    1  A    between atoms: C_1  and  C_2
REMARK    2  A    between atoms: C_7  and  S_8
REMARK    3  A    between atoms: S_8  and  N_11
REMARK    4  A    between atoms: N_11  and  C_12
REMARK    5  A    between atoms: C_12  and  C_13
REMARK    6  A    between atoms: C_13  and  C_14
REMARK    7  A    between atoms: C_14  and  N_66
REMARK    8  A    between atoms: C_28  and  C_30
REMARK    9  A    between atoms: C_28  and  C_31
REMARK                            x       y       z     vdW  Elec       q    Type
REMARK                         _______ _______ _______ _____ _____    ______ ____
ROOT
ATOM      1  C   UNL     1       2.381   1.967  -2.454  0.00  0.00    +0.046 C 
ATOM      2  C   UNL     1       2.024   1.114  -1.264  0.00  0.00    -0.023 A 
ATOM      3  C   UNL     1       2.346  -0.226  -1.259  0.00  0.00    +0.016 A 
ATOM      4  C   UNL     1       2.022  -1.013  -0.157  0.00  0.00    +0.011 A 
ATOM      5  C   UNL     1       1.367  -0.437   0.948  0.00  0.00    +0.049 A 
ATOM      6  C   UNL     1       1.053   0.917   0.923  0.00  0.00    +0.055 A 
ATOM      7  C   UNL     1       1.379   1.682  -0.175  0.00  0.00    +0.110 A 
ATOM      8  N   UNL     1       1.168  -1.433   1.887  0.00  0.00    -0.357 N 
ATOM      9  H   UNL     1       0.737  -1.302   2.746  0.00  0.00    +0.166 HD
ATOM     10  C   UNL     1       1.651  -2.602   1.448  0.00  0.00    +0.028 A 
ATOM     11  C   UNL     1       2.202  -2.425   0.187  0.00  0.00    +0.046 A 
ATOM     12  C   UNL     1       2.802  -3.481  -0.540  0.00  0.00    +0.166 C 
ATOM     13  O   UNL     1       3.244  -3.304  -1.657  0.00  0.00    -0.292 OA
ATOM     14  C   UNL     1       2.871  -4.839   0.125  0.00  0.00    +0.086 C 
ATOM     15  C   UNL     1       1.666  -5.033   1.046  0.00  0.00    -0.023 C 
ATOM     16  C   UNL     1       1.639  -3.950   2.131  0.00  0.00    +0.060 C 
ATOM     17  C   UNL     1       0.381  -4.952   0.220  0.00  0.00    +0.011 C 
ATOM     18  C   UNL     1       1.754  -6.409   1.709  0.00  0.00    +0.011 C 
ENDROOT
BRANCH   7  19
ATOM     19  S   UNL     1       0.976   3.397  -0.196  0.00  0.00    +0.059 S 
ATOM     20  O   UNL     1       0.268   3.662   1.007  0.00  0.00    -0.153 OA
ATOM     21  O   UNL     1       2.165   4.090  -0.549  0.00  0.00    -0.153 OA
BRANCH  19  22
ATOM     22  N   UNL     1      -0.095   3.632  -1.437  0.00  0.00    -0.190 NA
ATOM     23  H   UNL     1       0.163   4.163  -2.207  0.00  0.00    +0.148 HD
BRANCH  22  24
ATOM     24  C   UNL     1      -1.433   3.039  -1.373  0.00  0.00    +0.104 C 
BRANCH  24  25
ATOM     25  C   UNL     1      -2.324   3.673  -2.443  0.00  0.00    -0.002 C 
BRANCH  25  26
ATOM     26  C   UNL     1      -3.721   3.053  -2.376  0.00  0.00    -0.078 C 
BRANCH  26  33
ATOM     27  C   UNL     1      -4.720   5.118  -3.180  0.00  0.00    -0.079 C 
ATOM     28  C   UNL     1      -5.793   5.736  -4.034  0.00  0.00    -0.019 C 
ATOM     29  C   UNL     1      -7.107   5.766  -3.224  0.00  0.00    -0.002 C 
ATOM     30  C   UNL     1      -7.766   4.465  -3.197  0.00  0.00    -0.002 C 
ATOM     31  C   UNL     1      -6.890   3.381  -2.535  0.00  0.00    -0.019 C 
ATOM     32  C   UNL     1      -5.856   2.929  -3.530  0.00  0.00    -0.079 C 
ATOM     33  N   UNL     1      -4.540   3.649  -3.443  0.00  0.00    +0.380 N 
ATOM     34  H   UNL     1      -4.050   3.538  -4.338  0.00  0.00    -0.082 HD
ENDBRANCH  26  33
ENDBRANCH  25  26
ENDBRANCH  24  25
ENDBRANCH  22  24
ENDBRANCH  19  22
ENDBRANCH   7  19
TORSDOF 6
