REMARK  Name = ZINC01147393
REMARK  8 active torsions:
REMARK  status: ('A' for Active; 'I' for Inactive)
REMARK    1  A    between atoms: C_1  and  C_2
REMARK    2  A    between atoms: C_5  and  S_8
REMARK    3  A    between atoms: S_8  and  N_11
REMARK    4  A    between atoms: N_11  and  C_12
REMARK    5  A    between atoms: C_15  and  S_18
REMARK    6  A    between atoms: S_18  and  N_21
REMARK    7  A    between atoms: N_21  and  C_22
REMARK    8  A    between atoms: C_25  and  C_29
REMARK                            x       y       z     vdW  Elec       q    Type
REMARK                         _______ _______ _______ _____ _____    ______ ____
ROOT
ATOM      1  C   UNL     1       2.536  -1.008   3.582  0.00  0.00    +0.048 A 
ATOM      2  C   UNL     1       1.170  -0.816   3.745  0.00  0.00    +0.026 A 
ATOM      3  C   UNL     1       0.390  -0.460   2.662  0.00  0.00    +0.030 A 
ATOM      4  C   UNL     1       0.968  -0.296   1.416  0.00  0.00    +0.109 A 
ATOM      5  C   UNL     1       2.326  -0.491   1.249  0.00  0.00    +0.030 A 
ATOM      6  C   UNL     1       3.113  -0.842   2.329  0.00  0.00    +0.026 A 
ENDROOT
BRANCH   4   7
ATOM      7  S   UNL     1      -0.031   0.158   0.037  0.00  0.00    +0.072 S 
ATOM      8  O   UNL     1      -1.373  -0.145   0.391  0.00  0.00    -0.150 OA
ATOM      9  O   UNL     1       0.595  -0.389  -1.115  0.00  0.00    -0.150 OA
BRANCH   7  10
ATOM     10  N   UNL     1       0.059   1.805  -0.112  0.00  0.00    -0.216 N 
ATOM     11  H   UNL     1       0.451   2.199  -0.907  0.00  0.00    +0.174 HD
BRANCH  10  12
ATOM     12  C   UNL     1      -0.424   2.626   0.910  0.00  0.00    +0.049 A 
ATOM     13  C   UNL     1      -1.661   2.366   1.486  0.00  0.00    +0.025 A 
ATOM     14  C   UNL     1      -2.133   3.176   2.500  0.00  0.00    +0.006 A 
ATOM     15  C   UNL     1      -1.381   4.252   2.934  0.00  0.00    -0.032 A 
ATOM     16  C   UNL     1      -0.151   4.518   2.359  0.00  0.00    +0.046 A 
ATOM     17  C   UNL     1       0.330   3.707   1.348  0.00  0.00    +0.044 A 
ATOM     18 CL   UNL     1       0.789   5.870   2.908  0.00  0.00    -0.083 Cl
ATOM     19  C   UNL     1      -1.903   5.137   4.037  0.00  0.00    +0.045 C 
ENDBRANCH  10  12
ENDBRANCH   7  10
ENDBRANCH   4   7
BRANCH   1  20
ATOM     20  N   UNL     1       3.328  -1.368   4.675  0.00  0.00    -0.216 N 
ATOM     21  H   UNL     1       3.232  -0.898   5.518  0.00  0.00    +0.174 HD
BRANCH  20  22
ATOM     22  S   UNL     1       4.430  -2.595   4.531  0.00  0.00    +0.072 S 
ATOM     23  O   UNL     1       5.220  -2.300   3.388  0.00  0.00    -0.150 OA
ATOM     24  O   UNL     1       4.996  -2.787   5.820  0.00  0.00    -0.150 OA
BRANCH  22  29
ATOM     25  C   UNL     1       1.346  -7.618   3.240  0.00  0.00    +0.044 C 
ATOM     26  C   UNL     1       2.116  -6.364   3.563  0.00  0.00    -0.050 A 
ATOM     27  C   UNL     1       2.670  -5.612   2.543  0.00  0.00    +0.005 A 
ATOM     28  C   UNL     1       3.376  -4.461   2.839  0.00  0.00    +0.029 A 
ATOM     29  C   UNL     1       3.529  -4.062   4.154  0.00  0.00    +0.109 A 
ATOM     30  C   UNL     1       2.979  -4.817   5.173  0.00  0.00    +0.029 A 
ATOM     31  C   UNL     1       2.269  -5.965   4.877  0.00  0.00    +0.005 A 
ENDBRANCH  22  29
ENDBRANCH  20  22
ENDBRANCH   1  20
TORSDOF 6
