REMARK  Name = ZINC59645460
REMARK  6 active torsions:
REMARK  status: ('A' for Active; 'I' for Inactive)
REMARK    1  A    between atoms: C_6  and  C_11
REMARK    2  A    between atoms: C_11  and  N_12
REMARK    3  A    between atoms: C_14  and  C_21
REMARK    4  A    between atoms: N_22  and  N_23
REMARK    5  A    between atoms: C_24  and  C_26
REMARK    6  A    between atoms: C_26  and  C_27
REMARK                            x       y       z     vdW  Elec       q    Type
REMARK                         _______ _______ _______ _____ _____    ______ ____
ROOT
ATOM      1  N   UNL     1       5.450  -2.942   1.315  0.00  0.00    -0.342 N 
ATOM      2  C   UNL     1       6.296  -2.135   2.015  0.00  0.00    +0.096 A 
ATOM      3  C   UNL     1       6.497  -2.648   3.259  0.00  0.00    +0.020 A 
ATOM      4  C   UNL     1       5.703  -3.887   3.335  0.00  0.00    +0.009 A 
ATOM      5  C   UNL     1       5.065  -4.016   2.090  0.00  0.00    +0.050 A 
ATOM      6  C   UNL     1       4.229  -5.104   1.860  0.00  0.00    +0.026 A 
ATOM      7  C   UNL     1       4.032  -6.041   2.851  0.00  0.00    +0.002 A 
ATOM      8  C   UNL     1       4.660  -5.911   4.082  0.00  0.00    +0.001 A 
ATOM      9  C   UNL     1       5.497  -4.845   4.326  0.00  0.00    +0.010 A 
ENDROOT
BRANCH   3  10
ATOM     10  C   UNL     1       7.343  -2.079   4.320  0.00  0.00    +0.140 C 
ATOM     11  N   UNL     1       7.442  -2.682   5.466  0.00  0.00    -0.188 NA
BRANCH  11  12
ATOM     12  N   UNL     1       8.247  -2.140   6.476  0.00  0.00    -0.207 N 
ATOM     13  C   UNL     1       8.350  -2.766   7.665  0.00  0.00    +0.238 C 
ATOM     14  O   UNL     1       7.745  -3.800   7.860  0.00  0.00    -0.274 OA
ATOM     15  H   UNL     1       8.730  -1.314   6.320  0.00  0.00    +0.177 HD
BRANCH  13  16
ATOM     16  C   UNL     1       9.215  -2.183   8.752  0.00  0.00    +0.153 C 
BRANCH  16  17
ATOM     17  C   UNL     1       9.158  -3.068   9.970  0.00  0.00    +0.059 A 
ATOM     18  C   UNL     1      10.283  -3.564  10.538  0.00  0.00    +0.072 A 
ATOM     19  S   UNL     1       9.589  -4.501  11.890  0.00  0.00    -0.061 S 
ATOM     20  C   UNL     1       7.966  -4.169  11.595  0.00  0.00    +0.156 A 
ATOM     21  N   UNL     1       8.007  -3.392  10.534  0.00  0.00    -0.230 NA
ATOM     22  N   UNL     1       6.856  -4.605  12.301  0.00  0.00    -0.338 N 
ATOM     23  H   UNL     1       6.968  -5.178  13.076  0.00  0.00    +0.144 HD
ATOM     24  H   UNL     1       5.967  -4.337  12.021  0.00  0.00    +0.144 HD
ENDBRANCH  16  17
ENDBRANCH  13  16
ENDBRANCH  11  12
ENDBRANCH   3  10
BRANCH   1  25
ATOM     25  C   UNL     1       5.008  -2.700  -0.060  0.00  0.00    +0.157 C 
BRANCH  25  31
ATOM     26  C   UNL     1      -0.016   1.357   0.009  0.00  0.00    +0.001 A 
ATOM     27  C   UNL     1       1.169   2.091   0.002  0.00  0.00    +0.001 A 
ATOM     28  C   UNL     1       2.378   1.468  -0.013  0.00  0.00    +0.008 A 
ATOM     29  C   UNL     1       2.438   0.063  -0.021  0.00  0.00    -0.018 A 
ATOM     30  C   UNL     1       3.668  -0.615  -0.036  0.00  0.00    +0.014 A 
ATOM     31  C   UNL     1       3.687  -1.976  -0.043  0.00  0.00    -0.027 A 
ATOM     32  C   UNL     1       2.502  -2.710  -0.036  0.00  0.00    +0.006 A 
ATOM     33  C   UNL     1       1.292  -2.087  -0.021  0.00  0.00    +0.009 A 
ATOM     34  C   UNL     1       1.233  -0.683  -0.013  0.00  0.00    -0.018 A 
ATOM     35  C   UNL     1       0.002  -0.004   0.002  0.00  0.00    +0.008 A 
ENDBRANCH  25  31
ENDBRANCH   1  25
TORSDOF 6
