REMARK  Name = ZINC46012408
REMARK  10 active torsions:
REMARK  status: ('A' for Active; 'I' for Inactive)
REMARK    1  A    between atoms: C_1  and  C_2
REMARK    2  A    between atoms: C_2  and  C_3
REMARK    3  A    between atoms: C_6  and  C_10
REMARK    4  A    between atoms: C_7  and  C_9
REMARK    5  A    between atoms: C_10  and  N_11
REMARK    6  A    between atoms: N_11  and  C_12
REMARK    7  A    between atoms: N_11  and  C_19
REMARK    8  A    between atoms: C_12  and  C_13
REMARK    9  A    between atoms: C_19  and  C_20
REMARK   10  A    between atoms: N_23  and  C_26
REMARK                            x       y       z     vdW  Elec       q    Type
REMARK                         _______ _______ _______ _____ _____    ______ ____
ROOT
ATOM      1  N   UNL     1       1.092  -0.603   5.477  0.00  0.00    -0.294 NA
ENDROOT
BRANCH   1   2
ATOM      2  C   UNL     1       0.143   0.353   4.891  0.00  0.00    +0.139 C 
BRANCH   2   6
ATOM      3  C   UNL     1       1.266   1.516   1.658  0.00  0.00    +0.084 A 
ATOM      4  N   UNL     1       0.545   0.734   2.414  0.00  0.00    -0.346 N 
ATOM      5  H   UNL     1       2.616   3.016   2.155  0.00  0.00    +0.167 HD
ATOM      6  C   UNL     1       0.777   1.026   3.702  0.00  0.00    +0.050 A 
ATOM      7  C   UNL     1       1.676   2.028   3.746  0.00  0.00    +0.035 A 
ATOM      8  N   UNL     1       1.991   2.335   2.450  0.00  0.00    -0.347 N 
ATOM      9  C   UNL     1       2.233   2.681   4.985  0.00  0.00    +0.065 C 
ATOM     10  H   UNL     1      -0.063   0.049   2.094  0.00  0.00    +0.167 HD
BRANCH   3  12
ATOM     11  C   UNL     1       0.226   2.462  -0.385  0.00  0.00    +0.012 C 
ATOM     12  C   UNL     1       1.291   1.503   0.151  0.00  0.00    +0.069 C 
ENDBRANCH   3  12
ENDBRANCH   2   6
ENDBRANCH   1   2
BRANCH   1  13
ATOM     13  C   UNL     1       1.353  -1.718   4.557  0.00  0.00    +0.116 C 
BRANCH  13  14
ATOM     14  C   UNL     1       2.633  -2.440   4.980  0.00  0.00    +0.132 C 
ATOM     15  C   UNL     1       2.991  -3.524   3.940  0.00  0.00    +0.035 C 
ATOM     16  C   UNL     1       3.496  -4.687   4.837  0.00  0.00    +0.031 C 
ATOM     17  C   UNL     1       2.586  -4.516   6.080  0.00  0.00    +0.160 C 
ATOM     18  O   UNL     1       2.429  -3.095   6.237  0.00  0.00    -0.375 OA
ENDBRANCH  13  14
ENDBRANCH   1  13
BRANCH   1  19
ATOM     19  C   UNL     1       0.612  -1.093   6.776  0.00  0.00    +0.088 C 
BRANCH  19  20
ATOM     20  C   UNL     1       0.612   0.055   7.786  0.00  0.00    -0.000 C 
ATOM     21  C   UNL     1       2.051   0.506   8.050  0.00  0.00    -0.014 C 
ATOM     22  C   UNL     1       2.050   1.600   9.120  0.00  0.00    -0.078 C 
ATOM     23  N   UNL     1       1.464   1.076  10.360  0.00  0.00    +0.382 N 
ATOM     24  C   UNL     1       0.061   0.709  10.132  0.00  0.00    -0.078 C 
ATOM     25  C   UNL     1      -0.013  -0.420   9.101  0.00  0.00    -0.014 C 
ATOM     26  H   UNL     1       1.980   0.261  10.656  0.00  0.00    -0.081 HD
BRANCH  23  27
ATOM     27  C   UNL     1       1.536   2.105  11.406  0.00  0.00    -0.060 C 
ATOM     28  C   UNL     1       3.001   2.383  11.803  0.00  0.00    +0.020 C 
ATOM     29  C   UNL     1       2.963   2.663  13.290  0.00  0.00    -0.046 A 
ATOM     30  C   UNL     1       3.897   3.270  14.113  0.00  0.00    +0.004 A 
ATOM     31  C   UNL     1       3.641   3.420  15.462  0.00  0.00    +0.000 A 
ATOM     32  C   UNL     1       2.449   2.962  15.993  0.00  0.00    +0.000 A 
ATOM     33  C   UNL     1       1.517   2.357  15.174  0.00  0.00    +0.004 A 
ATOM     34  C   UNL     1       1.772   2.206  13.821  0.00  0.00    -0.046 A 
ATOM     35  C   UNL     1       0.928   1.587  12.727  0.00  0.00    +0.020 C 
ENDBRANCH  23  27
ENDBRANCH  19  20
ENDBRANCH   1  19
TORSDOF 8
