REMARK  Name = ZINC18066947
REMARK  8 active torsions:
REMARK  status: ('A' for Active; 'I' for Inactive)
REMARK    1  A    between atoms: C_1  and  C_2
REMARK    2  A    between atoms: C_5  and  C_8
REMARK    3  A    between atoms: C_8  and  C_31
REMARK    4  A    between atoms: N_9  and  N_10
REMARK    5  A    between atoms: C_11  and  S_13
REMARK    6  A    between atoms: S_13  and  C_14
REMARK    7  A    between atoms: N_19  and  C_22
REMARK    8  A    between atoms: C_25  and  C_28
REMARK                            x       y       z     vdW  Elec       q    Type
REMARK                         _______ _______ _______ _____ _____    ______ ____
ROOT
ATOM      1  S   UNL     1       0.006  -9.118  -2.171  0.00  0.00    -0.078 S 
ENDROOT
BRANCH   1   2
ATOM      2  C   UNL     1       0.030  -9.204  -3.982  0.00  0.00    +0.149 C 
ATOM      3  C   UNL     1       0.268 -10.653  -4.454  0.00  0.00    +0.120 C 
ATOM      4  C   UNL     1      -0.984 -10.982  -5.237  0.00  0.00    +0.228 C 
ATOM      5  O   UNL     1      -1.211 -12.038  -5.788  0.00  0.00    -0.275 OA
ATOM      6  N   UNL     1      -1.802  -9.922  -5.226  0.00  0.00    -0.209 N 
ATOM      7  C   UNL     1      -1.331  -8.863  -4.549  0.00  0.00    +0.240 C 
ATOM      8  O   UNL     1      -1.903  -7.803  -4.412  0.00  0.00    -0.274 OA
BRANCH   6   9
ATOM      9  C   UNL     1      -3.043  -9.918  -5.867  0.00  0.00    +0.044 A 
ATOM     10  C   UNL     1      -4.070 -10.730  -5.396  0.00  0.00    +0.025 A 
ATOM     11  C   UNL     1      -5.294 -10.729  -6.025  0.00  0.00    +0.017 A 
ATOM     12  C   UNL     1      -5.505  -9.909  -7.139  0.00  0.00    +0.063 A 
ATOM     13  C   UNL     1      -4.470  -9.094  -7.609  0.00  0.00    +0.017 A 
ATOM     14  C   UNL     1      -3.251  -9.097  -6.971  0.00  0.00    +0.025 A 
BRANCH  12  15
ATOM     15  C   UNL     1      -6.814  -9.905  -7.815  0.00  0.00    +0.387 C 
ATOM     16  O   UNL     1      -7.718 -10.619  -7.403  0.00  0.00    -0.241 OA
ATOM     17  O   UNL     1      -6.997  -9.188  -8.789  0.00  0.00    -0.241 OA
ENDBRANCH  12  15
ENDBRANCH   6   9
ENDBRANCH   1   2
BRANCH   1  19
ATOM     18  N   UNL     1      -0.248  -6.961  -0.524  0.00  0.00    -0.217 N 
ATOM     19  C   UNL     1      -0.189  -7.401  -1.828  0.00  0.00    +0.146 C 
ATOM     20  N   UNL     1      -0.278  -6.546  -2.809  0.00  0.00    -0.380 N 
ATOM     21  H   UNL     1      -0.182  -7.597   0.205  0.00  0.00    +0.176 HD
ATOM     22  H   UNL     1      -0.236  -6.856  -3.728  0.00  0.00    +0.158 HD
ATOM     23  H   UNL     1      -0.385  -5.601  -2.620  0.00  0.00    +0.158 HD
BRANCH  18  25
ATOM     24  C   UNL     1      -0.459  -5.182   0.977  0.00  0.00    +0.063 C 
ATOM     25  N   UNL     1      -0.404  -5.596  -0.252  0.00  0.00    -0.185 NA
ATOM     26  C   UNL     1      -0.357  -6.169   2.110  0.00  0.00    +0.068 C 
BRANCH  24  31
ATOM     27  C   UNL     1      -1.099   0.423   2.095  0.00  0.00    +0.044 C 
ATOM     28  C   UNL     1      -0.931  -1.045   1.802  0.00  0.00    -0.050 A 
ATOM     29  C   UNL     1      -0.872  -1.483   0.491  0.00  0.00    +0.004 A 
ATOM     30  C   UNL     1      -0.718  -2.826   0.215  0.00  0.00    +0.010 A 
ATOM     31  C   UNL     1      -0.623  -3.744   1.264  0.00  0.00    -0.003 A 
ATOM     32  C   UNL     1      -0.684  -3.295   2.585  0.00  0.00    +0.010 A 
ATOM     33  C   UNL     1      -0.832  -1.949   2.846  0.00  0.00    +0.004 A 
ENDBRANCH  24  31
ENDBRANCH  18  25
ENDBRANCH   1  19
TORSDOF 6
