REMARK  Name = ZINC48882349
REMARK  6 active torsions:
REMARK  status: ('A' for Active; 'I' for Inactive)
REMARK    1  A    between atoms: C_1  and  N_2
REMARK    2  A    between atoms: N_2  and  C_3
REMARK    3  A    between atoms: N_2  and  C_11
REMARK    4  A    between atoms: C_3  and  C_4
REMARK    5  A    between atoms: C_12  and  C_19
REMARK    6  A    between atoms: C_19  and  N_20
REMARK                            x       y       z     vdW  Elec       q    Type
REMARK                         _______ _______ _______ _____ _____    ______ ____
ROOT
ATOM      1  C   UNL     1       0.054  -0.713  -1.232  0.00  0.00    +0.142 A 
ATOM      2  C   UNL     1      -0.137  -0.146  -2.441  0.00  0.00    +0.048 A 
ATOM      3  N   UNL     1      -0.416  -1.172  -3.349  0.00  0.00    -0.298 N 
ATOM      4  C   UNL     1      -0.699  -1.308  -4.690  0.00  0.00    +0.100 A 
ATOM      5  C   UNL     1      -0.918  -2.510  -5.222  0.00  0.00    +0.067 A 
ATOM      6  S   UNL     1      -0.732  -3.580  -3.805  0.00  0.00    -0.058 S 
ATOM      7  C   UNL     1      -0.372  -2.320  -2.604  0.00  0.00    +0.179 A 
ATOM      8  N   UNL     1      -0.091  -2.043  -1.362  0.00  0.00    -0.206 NA
ENDROOT
BRANCH   1  10
ATOM      9  C   UNL     1       0.358   1.433  -0.018  0.00  0.00    +0.131 C 
ATOM     10  N   UNL     1       0.357  -0.031  -0.043  0.00  0.00    -0.313 N 
BRANCH  10  11
ATOM     11  C   UNL     1       0.674  -0.785   1.173  0.00  0.00    +0.141 C 
BRANCH  11  12
ATOM     12  C   UNL     1      -0.594  -1.048   1.944  0.00  0.00    -0.030 A 
ATOM     13  C   UNL     1      -1.028  -0.140   2.891  0.00  0.00    +0.006 A 
ATOM     14  C   UNL     1      -2.191  -0.381   3.599  0.00  0.00    +0.015 A 
ATOM     15  C   UNL     1      -2.920  -1.532   3.359  0.00  0.00    +0.018 A 
ATOM     16  C   UNL     1      -2.485  -2.441   2.412  0.00  0.00    +0.015 A 
ATOM     17  C   UNL     1      -1.325  -2.196   1.701  0.00  0.00    +0.006 A 
ATOM     18 BR   UNL     1      -4.510  -1.863   4.327  0.00  0.00    -0.050 Br
ENDBRANCH  11  12
ENDBRANCH  10  11
ENDBRANCH   1  10
BRANCH   2  19
ATOM     19  C   UNL     1      -0.064   1.326  -2.756  0.00  0.00    -0.028 C 
BRANCH  19  20
ATOM     20  N   UNL     1      -1.408   1.913  -2.667  0.00  0.00    +0.382 N 
ATOM     21  H   UNL     1      -1.770   1.786  -1.734  0.00  0.00    -0.090 HD
ATOM     22  H   UNL     1      -1.359   2.898  -2.878  0.00  0.00    -0.090 HD
ATOM     23  H   UNL     1      -2.018   1.457  -3.329  0.00  0.00    -0.090 HD
ENDBRANCH  19  20
ENDBRANCH   2  19
TORSDOF 5
