REMARK  Name = ZINC36556869
REMARK  15 active torsions:
REMARK  status: ('A' for Active; 'I' for Inactive)
REMARK    1  A    between atoms: C_1  and  C_2
REMARK    2  A    between atoms: C_5  and  C_7
REMARK    3  A    between atoms: C_7  and  N_8
REMARK    4  A    between atoms: N_8  and  C_9
REMARK    5  A    between atoms: C_9  and  C_11
REMARK    6  A    between atoms: C_9  and  C_18
REMARK    7  A    between atoms: C_16  and  O_17
REMARK    8  A    between atoms: N_20  and  C_21
REMARK    9  A    between atoms: C_21  and  C_22
REMARK   10  A    between atoms: C_21  and  C_23
REMARK   11  A    between atoms: C_21  and  C_24
REMARK   12  A    between atoms: C_25  and  C_27
REMARK   13  A    between atoms: C_35  and  C_37
REMARK   14  A    between atoms: C_38  and  C_39
REMARK   15  A    between atoms: C_38  and  C_40
REMARK                            x       y       z     vdW  Elec       q    Type
REMARK                         _______ _______ _______ _____ _____    ______ ____
ROOT
ATOM      1  N   UNL     1       1.595  -3.121  -1.912  0.00  0.00    -0.278 N 
ATOM      2  C   UNL     1       1.010  -4.138  -2.576  0.00  0.00    +0.220 C 
ATOM      3  O   UNL     1       1.614  -4.714  -3.456  0.00  0.00    -0.275 OA
ENDROOT
BRANCH   2   4
ATOM      4  C   UNL     1      -0.404  -4.560  -2.223  0.00  0.00    +0.079 C 
ATOM      5  C   UNL     1      -0.348  -5.514  -1.035  0.00  0.00    +0.017 C 
ATOM      6  C   UNL     1      -1.386  -6.632  -1.127  0.00  0.00    -0.004 C 
ATOM      7  C   UNL     1      -1.199  -7.469  -2.411  0.00  0.00    +0.008 C 
ATOM      8  C   UNL     1      -2.002  -6.327  -3.085  0.00  0.00    -0.001 C 
ATOM      9  C   UNL     1      -1.049  -5.190  -3.451  0.00  0.00    +0.001 C 
ATOM     10  C   UNL     1      -1.767  -4.128  -4.289  0.00  0.00    +0.008 C 
ATOM     11  C   UNL     1      -2.722  -6.192  -1.742  0.00  0.00    -0.029 C 
ATOM     12  C   UNL     1      -3.844  -7.232  -1.548  0.00  0.00    +0.011 C 
ATOM     13  C   UNL     1      -3.201  -4.800  -1.346  0.00  0.00    +0.011 C 
ENDBRANCH   2   4
BRANCH   1  14
ATOM     14  C   UNL     1       0.896  -2.475  -0.798  0.00  0.00    +0.183 C 
BRANCH  14  19
ATOM     15  C   UNL     1      -0.217   2.226  -2.248  0.00  0.00    +0.086 C 
ATOM     16  C   UNL     1      -0.360   0.758  -1.942  0.00  0.00    +0.102 A 
ATOM     17  C   UNL     1      -1.477   0.026  -2.101  0.00  0.00    +0.045 A 
ATOM     18  C   UNL     1      -1.165  -1.292  -1.695  0.00  0.00    +0.046 A 
ATOM     19  C   UNL     1       0.124  -1.287  -1.312  0.00  0.00    +0.122 A 
ATOM     20  O   UNL     1       0.608  -0.044  -1.469  0.00  0.00    -0.463 OA
ENDBRANCH  14  19
ENDBRANCH   1  14
BRANCH   1  21
ATOM     21  C   UNL     1       2.930  -2.662  -2.304  0.00  0.00    +0.196 C 
BRANCH  21  22
ATOM     22  C   UNL     1       3.945  -3.725  -1.968  0.00  0.00    +0.023 A 
ATOM     23  C   UNL     1       3.539  -5.030  -1.770  0.00  0.00    +0.009 A 
ATOM     24  C   UNL     1       4.469  -6.005  -1.462  0.00  0.00    +0.001 A 
ATOM     25  C   UNL     1       5.808  -5.677  -1.352  0.00  0.00    +0.004 A 
ATOM     26  C   UNL     1       6.219  -4.373  -1.550  0.00  0.00    +0.046 A 
ATOM     27  C   UNL     1       5.288  -3.394  -1.865  0.00  0.00    +0.122 A 
BRANCH  27  28
ATOM     28  O   UNL     1       5.691  -2.111  -2.066  0.00  0.00    -0.506 OA
ATOM     29  H   UNL     1       5.699  -1.572  -1.264  0.00  0.00    +0.292 HD
ENDBRANCH  27  28
ENDBRANCH  21  22
BRANCH  21  30
ATOM     30  C   UNL     1       2.954  -2.394  -3.787  0.00  0.00    +0.239 C 
ATOM     31  O   UNL     1       1.955  -2.570  -4.451  0.00  0.00    -0.273 OA
ATOM     32  N   UNL     1       4.087  -1.960  -4.375  0.00  0.00    -0.309 N 
ATOM     33  H   UNL     1       4.886  -1.820  -3.843  0.00  0.00    +0.149 HD
BRANCH  32  34
ATOM     34  C   UNL     1       4.110  -1.700  -5.816  0.00  0.00    +0.026 C 
ATOM     35  C   UNL     1       3.080  -0.621  -6.156  0.00  0.00    +0.031 C 
ATOM     36  C   UNL     1       5.505  -1.221  -6.225  0.00  0.00    +0.031 C 
ATOM     37  C   UNL     1       3.771  -2.986  -6.572  0.00  0.00    +0.031 C 
ENDBRANCH  32  34
ENDBRANCH  21  30
ENDBRANCH   1  21
TORSDOF 8
