REMARK  Name = ZINC06321165
REMARK  8 active torsions:
REMARK  status: ('A' for Active; 'I' for Inactive)
REMARK    1  A    between atoms: C_1  and  C_2
REMARK    2  A    between atoms: C_6  and  C_15
REMARK    3  A    between atoms: C_13  and  C_14
REMARK    4  A    between atoms: C_15  and  C_17
REMARK    5  A    between atoms: C_15  and  N_63
REMARK    6  A    between atoms: N_21  and  C_22
REMARK    7  A    between atoms: C_22  and  C_23
REMARK    8  A    between atoms: C_31  and  C_34
REMARK                            x       y       z     vdW  Elec       q    Type
REMARK                         _______ _______ _______ _____ _____    ______ ____
ROOT
ATOM      1  C   UNL     1       1.783  -1.450  -1.740  0.00  0.00    +0.039 C 
ENDROOT
BRANCH   1   7
ATOM      2  C   UNL     1       4.857  -6.540   2.762  0.00  0.00    +0.044 C 
ATOM      3  C   UNL     1       4.690  -5.921   1.398  0.00  0.00    -0.047 A 
ATOM      4  C   UNL     1       3.849  -4.856   1.235  0.00  0.00    +0.013 A 
ATOM      5  C   UNL     1       3.695  -4.282  -0.030  0.00  0.00    -0.001 A 
ATOM      6  C   UNL     1       2.803  -3.140  -0.240  0.00  0.00    +0.017 A 
ATOM      7  C   UNL     1       2.693  -2.625  -1.489  0.00  0.00    +0.011 A 
ATOM      8  C   UNL     1       3.424  -3.188  -2.557  0.00  0.00    +0.251 A 
ATOM      9  O   UNL     1       3.307  -2.712  -3.673  0.00  0.00    -0.268 OA
ATOM     10  N   UNL     1       4.249  -4.233  -2.374  0.00  0.00    -0.322 N 
ATOM     11  H   UNL     1       4.739  -4.594  -3.129  0.00  0.00    +0.169 HD
ATOM     12  C   UNL     1       4.406  -4.803  -1.128  0.00  0.00    +0.049 A 
ATOM     13  C   UNL     1       5.256  -5.887  -0.938  0.00  0.00    +0.030 A 
ATOM     14  C   UNL     1       5.393  -6.438   0.318  0.00  0.00    -0.046 A 
ATOM     15  C   UNL     1       6.314  -7.612   0.521  0.00  0.00    +0.044 C 
ENDBRANCH   1   7
BRANCH   1  22
ATOM     16  C   UNL     1       0.166  -3.067  -2.535  0.00  0.00    -0.077 C 
ATOM     17  C   UNL     1      -0.705  -3.455  -3.732  0.00  0.00    -0.015 C 
ATOM     18  C   UNL     1      -1.746  -2.360  -3.975  0.00  0.00    -0.018 C 
ATOM     19  C   UNL     1      -1.029  -1.027  -4.208  0.00  0.00    -0.015 C 
ATOM     20  C   UNL     1      -0.148  -0.709  -2.998  0.00  0.00    -0.077 C 
ATOM     21  C   UNL     1      -2.582  -2.713  -5.208  0.00  0.00    +0.007 C 
ATOM     22  N   UNL     1       0.848  -1.789  -2.832  0.00  0.00    +0.389 N 
ATOM     23  H   UNL     1       1.378  -1.890  -3.706  0.00  0.00    -0.080 HD
ENDBRANCH   1  22
BRANCH   1  24
ATOM     24  C   UNL     1       2.605  -0.258  -2.157  0.00  0.00    +0.143 A 
ATOM     25  N   UNL     1       3.165  -0.063  -3.326  0.00  0.00    -0.115 NA
ATOM     26  N   UNL     1       3.783   1.067  -3.288  0.00  0.00    -0.023 NA
ATOM     27  N   UNL     1       3.627   1.601  -2.127  0.00  0.00    -0.044 NA
ATOM     28  N   UNL     1       2.903   0.816  -1.402  0.00  0.00    -0.226 N 
BRANCH  28  29
ATOM     29  C   UNL     1       2.490   1.048  -0.016  0.00  0.00    +0.182 C 
BRANCH  29  30
ATOM     30  C   UNL     1       1.175   1.783   0.000  0.00  0.00    -0.026 A 
ATOM     31  C   UNL     1      -0.013   1.076   0.008  0.00  0.00    +0.005 A 
ATOM     32  C   UNL     1      -1.219   1.751   0.017  0.00  0.00    +0.000 A 
ATOM     33  C   UNL     1      -1.238   3.133   0.029  0.00  0.00    +0.000 A 
ATOM     34  C   UNL     1      -0.050   3.840   0.022  0.00  0.00    +0.000 A 
ATOM     35  C   UNL     1       1.156   3.165   0.008  0.00  0.00    +0.005 A 
ENDBRANCH  29  30
ENDBRANCH  28  29
ENDBRANCH   1  24
TORSDOF 5
