REMARK  Name = ZINC08710597
REMARK  6 active torsions:
REMARK  status: ('A' for Active; 'I' for Inactive)
REMARK    1  A    between atoms: C_1  and  C_2
REMARK    2  A    between atoms: N_10  and  C_11
REMARK    3  A    between atoms: C_11  and  C_13
REMARK    4  A    between atoms: C_13  and  S_14
REMARK    5  A    between atoms: S_14  and  C_15
REMARK    6  A    between atoms: N_21  and  C_22
REMARK                            x       y       z     vdW  Elec       q    Type
REMARK                         _______ _______ _______ _____ _____    ______ ____
ROOT
ATOM      1  C   UNL     1      -0.002  -6.928   0.823  0.00  0.00    +0.249 C 
ATOM      2  O   UNL     1      -0.013  -6.625  -0.354  0.00  0.00    -0.273 OA
ENDROOT
BRANCH   1  12
ATOM      3  C   UNL     1      -0.048   1.503   0.013  0.00  0.00    +0.044 C 
ATOM      4  C   UNL     1      -0.020  -0.004   0.004  0.00  0.00    -0.049 A 
ATOM      5  C   UNL     1      -0.004  -0.696  -1.195  0.00  0.00    +0.005 A 
ATOM      6  C   UNL     1       0.021  -2.071  -1.224  0.00  0.00    +0.027 A 
ATOM      7  C   UNL     1       0.033  -2.809  -0.033  0.00  0.00    +0.055 A 
ATOM      8  C   UNL     1       0.018  -2.084   1.167  0.00  0.00    +0.039 A 
ATOM      9  C   UNL     1      -0.002  -0.709   1.194  0.00  0.00    +0.020 A 
ATOM     10  S   UNL     1       0.040  -3.353   2.406  0.00  0.00    -0.052 S 
ATOM     11  C   UNL     1       0.067  -4.698   1.399  0.00  0.00    +0.164 A 
ATOM     12  N   UNL     1       0.090  -5.982   1.752  0.00  0.00    -0.156 NA
ATOM     13  N   UNL     1       0.059  -4.180   0.145  0.00  0.00    -0.335 N 
ATOM     14  H   UNL     1       0.071  -4.770  -0.625  0.00  0.00    +0.168 HD
ENDBRANCH   1  12
BRANCH   1  15
ATOM     15  C   UNL     1      -0.094  -8.376   1.230  0.00  0.00    +0.175 C 
BRANCH  15  16
ATOM     16  S   UNL     1      -0.209  -9.414  -0.253  0.00  0.00    -0.077 S 
BRANCH  16  17
ATOM     17  C   UNL     1      -0.308 -11.055   0.382  0.00  0.00    +0.193 A 
ATOM     18  N   UNL     1      -0.303 -11.383   1.642  0.00  0.00    -0.145 NA
ATOM     19  N   UNL     1      -0.398 -12.779   1.727  0.00  0.00    -0.226 N 
ATOM     20  H   UNL     1      -0.416 -13.305   2.542  0.00  0.00    +0.194 HD
ATOM     21  C   UNL     1      -0.459 -13.257   0.467  0.00  0.00    +0.345 A 
ATOM     22  O   UNL     1      -0.547 -14.429   0.145  0.00  0.00    -0.245 OA
ATOM     23  N   UNL     1      -0.411 -12.202  -0.371  0.00  0.00    -0.268 N 
BRANCH  23  24
ATOM     24  C   UNL     1      -0.456 -12.267  -1.834  0.00  0.00    +0.094 C 
ATOM     25  C   UNL     1      -0.773 -13.621  -2.473  0.00  0.00    +0.027 C 
ATOM     26  C   UNL     1       0.647 -13.058  -2.541  0.00  0.00    +0.027 C 
ENDBRANCH  23  24
ENDBRANCH  16  17
ENDBRANCH  15  16
ENDBRANCH   1  15
TORSDOF 5
