REMARK  Name = ZINC09482555
REMARK  2 active torsions:
REMARK  status: ('A' for Active; 'I' for Inactive)
REMARK    1  A    between atoms: C_12  and  N_20
REMARK    2  A    between atoms: C_21  and  C_23
REMARK                            x       y       z     vdW  Elec       q    Type
REMARK                         _______ _______ _______ _____ _____    ______ ____
ROOT
ATOM      1  C   UNL     1      -7.122  -3.931   0.087  0.00  0.00    +0.001 A 
ATOM      2  C   UNL     1      -7.867  -2.769   0.110  0.00  0.00    +0.001 A 
ATOM      3  C   UNL     1      -7.238  -1.534   0.108  0.00  0.00    +0.012 A 
ATOM      4  C   UNL     1      -5.851  -1.461   0.082  0.00  0.00    +0.033 A 
ATOM      5  C   UNL     1      -5.093  -2.642   0.058  0.00  0.00    +0.033 A 
ATOM      6  C   UNL     1      -5.737  -3.873   0.061  0.00  0.00    +0.012 A 
ATOM      7  C   UNL     1      -3.652  -2.282   0.034  0.00  0.00    +0.199 C 
ATOM      8  O   UNL     1      -2.718  -3.061   0.010  0.00  0.00    -0.286 OA
ATOM      9  C   UNL     1      -3.557  -0.822   0.043  0.00  0.00    +0.091 C 
ATOM     10  C   UNL     1      -2.370  -0.060   0.026  0.00  0.00    +0.048 C 
ATOM     11  C   UNL     1      -2.454   1.335   0.038  0.00  0.00    +0.048 C 
ATOM     12  C   UNL     1      -1.304   2.098   0.028  0.00  0.00    +0.044 C 
ATOM     13  C   UNL     1      -0.007   1.409  -0.007  0.00  0.00    +0.017 A 
ATOM     14  C   UNL     1       1.191   2.128  -0.024  0.00  0.00    +0.011 A 
ATOM     15  C   UNL     1       2.382   1.459  -0.052  0.00  0.00    +0.001 A 
ATOM     16  C   UNL     1       2.413   0.071  -0.063  0.00  0.00    +0.002 A 
ATOM     17  C   UNL     1       1.243  -0.657  -0.047  0.00  0.00    +0.024 A 
ATOM     18  C   UNL     1       0.018   0.003  -0.018  0.00  0.00    +0.040 A 
ATOM     19  N   UNL     1      -1.165  -0.704  -0.001  0.00  0.00    -0.313 N 
ATOM     20  C   UNL     1      -4.923  -0.301   0.079  0.00  0.00    +0.199 C 
ATOM     21  O   UNL     1      -5.242   0.873   0.101  0.00  0.00    -0.286 OA
ATOM     22  H   UNL     1      -1.143  -1.673  -0.009  0.00  0.00    +0.152 HD
ENDROOT
BRANCH  12  23
ATOM     23  N   UNL     1      -1.371   3.480   0.040  0.00  0.00    -0.284 N 
ATOM     24  C   UNL     1      -0.812   4.173   1.052  0.00  0.00    +0.232 C 
ATOM     25  O   UNL     1      -0.178   3.592   1.907  0.00  0.00    -0.274 OA
ATOM     26  H   UNL     1      -1.820   3.950  -0.680  0.00  0.00    +0.155 HD
BRANCH  24  27
ATOM     27  C   UNL     1      -0.974   5.670   1.120  0.00  0.00    +0.204 C 
ATOM     28 CL   UNL     1      -0.119   6.301   2.577  0.00  0.00    -0.116 Cl
ENDBRANCH  24  27
ENDBRANCH  12  23
TORSDOF 2
