REMARK  Name = ZINC38005388
REMARK  3 active torsions:
REMARK  status: ('A' for Active; 'I' for Inactive)
REMARK    1  A    between atoms: C_1  and  C_2
REMARK    2  A    between atoms: C_5  and  S_12
REMARK    3  A    between atoms: S_12  and  N_15
REMARK                            x       y       z     vdW  Elec       q    Type
REMARK                         _______ _______ _______ _____ _____    ______ ____
ROOT
ATOM      1  C   UNL     1      -0.566   1.392  -0.998  0.00  0.00    +0.045 C 
ATOM      2  C   UNL     1      -0.408  -0.087  -0.755  0.00  0.00    -0.029 A 
ATOM      3  C   UNL     1      -0.436  -0.968  -1.817  0.00  0.00    +0.007 A 
ATOM      4  C   UNL     1      -0.291  -2.324  -1.592  0.00  0.00    +0.029 A 
ATOM      5  C   UNL     1      -0.122  -2.800  -0.306  0.00  0.00    +0.110 A 
ATOM      6  C   UNL     1      -0.095  -1.924   0.765  0.00  0.00    +0.000 A 
ATOM      7  C   UNL     1      -0.230  -0.563   0.539  0.00  0.00    +0.035 A 
ATOM      8  N   UNL     1      -0.192   0.348   1.601  0.00  0.00    -0.343 N 
ATOM      9  C   UNL     1      -0.303  -0.159   2.976  0.00  0.00    +0.102 C 
ATOM     10  C   UNL     1       0.608  -1.388   3.098  0.00  0.00    +0.023 C 
ATOM     11  C   UNL     1       0.085  -2.477   2.154  0.00  0.00    +0.040 C 
ATOM     12  H   UNL     1      -0.093   1.298   1.432  0.00  0.00    +0.146 HD
ENDROOT
BRANCH   5  13
ATOM     13  S   UNL     1       0.059  -4.531  -0.029  0.00  0.00    +0.061 S 
ATOM     14  O   UNL     1       0.044  -5.151  -1.307  0.00  0.00    -0.153 OA
ATOM     15  O   UNL     1       1.139  -4.686   0.881  0.00  0.00    -0.153 OA
BRANCH  13  16
ATOM     16  N   UNL     1      -1.303  -5.045   0.762  0.00  0.00    -0.172 NA
ATOM     17  C   UNL     1      -1.325  -5.173   2.228  0.00  0.00    +0.137 C 
ATOM     18  C   UNL     1      -2.561  -4.438   2.759  0.00  0.00    +0.177 C 
ATOM     19  O   UNL     1      -3.720  -4.903   2.063  0.00  0.00    -0.377 OA
ATOM     20  C   UNL     1      -3.704  -4.642   0.658  0.00  0.00    +0.177 C 
ATOM     21  C   UNL     1      -2.528  -5.382   0.020  0.00  0.00    +0.137 C 
ENDBRANCH  13  16
ENDBRANCH   5  13
TORSDOF 2
