REMARK  Name = ZINC12669479
REMARK  11 active torsions:
REMARK  status: ('A' for Active; 'I' for Inactive)
REMARK    1  A    between atoms: C_1  and  C_2
REMARK    2  A    between atoms: C_2  and  C_4
REMARK    3  A    between atoms: C_2  and  N_7
REMARK    4  A    between atoms: C_4  and  C_5
REMARK    5  A    between atoms: C_4  and  C_6
REMARK    6  A    between atoms: N_7  and  C_8
REMARK    7  A    between atoms: C_8  and  C_10
REMARK    8  A    between atoms: C_8  and  C_11
REMARK    9  A    between atoms: N_13  and  C_14
REMARK   10  A    between atoms: C_17  and  N_24
REMARK   11  A    between atoms: C_19  and  C_20
REMARK                            x       y       z     vdW  Elec       q    Type
REMARK                         _______ _______ _______ _____ _____    ______ ____
ROOT
ATOM      1  C   UNL     1       0.875  -0.400   3.497  0.00  0.00    +0.203 C 
ATOM      2  O   UNL     1       1.921  -0.997   3.353  0.00  0.00    -0.277 OA
ATOM      3  N   UNL     1       0.439  -0.095   4.735  0.00  0.00    -0.286 N 
ATOM      4  H   UNL     1      -0.427   0.326   4.854  0.00  0.00    +0.155 HD
ENDROOT
BRANCH   3   5
ATOM      5  C   UNL     1       1.235  -0.385   5.849  0.00  0.00    +0.045 A 
ATOM      6  C   UNL     1       2.162  -1.417   5.792  0.00  0.00    +0.026 A 
ATOM      7  C   UNL     1       2.946  -1.700   6.893  0.00  0.00    +0.034 A 
ATOM      8  C   UNL     1       2.809  -0.957   8.051  0.00  0.00    +0.127 A 
ATOM      9  C   UNL     1       1.886   0.071   8.111  0.00  0.00    +0.047 A 
ATOM     10  C   UNL     1       1.103   0.363   7.012  0.00  0.00    +0.078 A 
BRANCH  10  11
ATOM     11  C   UNL     1       0.103   1.488   7.075  0.00  0.00    +0.419 C 
ATOM     12  F   UNL     1       0.155   2.088   8.339  0.00  0.00    -0.166 F 
ATOM     13  F   UNL     1       0.407   2.439   6.095  0.00  0.00    -0.166 F 
ATOM     14  F   UNL     1      -1.183   0.983   6.852  0.00  0.00    -0.166 F 
ENDBRANCH  10  11
BRANCH   8  15
ATOM     15  N   UNL     1       3.651  -1.264   9.229  0.00  0.00    +0.056 N 
ATOM     16  O   UNL     1       4.457  -2.163   9.178  0.00  0.00    -0.126 OA
ATOM     17  O   UNL     1       3.531  -0.615  10.243  0.00  0.00    -0.126 OA
ENDBRANCH   8  15
ENDBRANCH   3   5
BRANCH   1  18
ATOM     18  C   UNL     1       0.064   0.001   2.292  0.00  0.00    +0.014 C 
ATOM     19  C   UNL     1      -0.090   1.523   2.265  0.00  0.00    -0.004 C 
BRANCH  18  20
ATOM     20  N   UNL     1       0.749  -0.443   1.071  0.00  0.00    +0.388 N 
ATOM     21  H   UNL     1       1.701  -0.108   1.078  0.00  0.00    -0.084 HD
ATOM     22  H   UNL     1       0.269  -0.076   0.263  0.00  0.00    -0.084 HD
BRANCH  20  24
ATOM     23  C   UNL     1      -0.689  -2.415   0.863  0.00  0.00    -0.013 C 
ATOM     24  C   UNL     1       0.748  -1.911   1.016  0.00  0.00    -0.071 C 
BRANCH  24  25
ATOM     25  C   UNL     1       1.582  -2.377  -0.180  0.00  0.00    -0.032 C 
ATOM     26  C   UNL     1       3.018  -1.874  -0.027  0.00  0.00    +0.005 C 
ATOM     27  C   UNL     1       1.580  -3.906  -0.237  0.00  0.00    +0.005 C 
ENDBRANCH  24  25
ENDBRANCH  20  24
ENDBRANCH  18  20
ENDBRANCH   1  18
TORSDOF 7
