REMARK  Name = ZINC35890518
REMARK  5 active torsions:
REMARK  status: ('A' for Active; 'I' for Inactive)
REMARK    1  A    between atoms: C_1  and  C_2
REMARK    2  A    between atoms: N_8  and  C_9
REMARK    3  A    between atoms: C_9  and  C_10
REMARK    4  A    between atoms: N_14  and  C_15
REMARK    5  A    between atoms: C_26  and  C_29
REMARK                            x       y       z     vdW  Elec       q    Type
REMARK                         _______ _______ _______ _____ _____    ______ ____
ROOT
ATOM      1  C   UNL     1      -1.399  -8.722   5.381  0.00  0.00    -0.012 C 
ATOM      2  C   UNL     1      -2.182  -7.631   4.648  0.00  0.00    -0.053 C 
ATOM      3  C   UNL     1      -1.626  -7.469   3.230  0.00  0.00    +0.092 C 
ATOM      4  N   UNL     1      -2.303  -6.330   2.591  0.00  0.00    -0.304 N 
ATOM      5  C   UNL     1      -2.358  -5.056   3.324  0.00  0.00    +0.089 C 
ATOM      6  C   UNL     1      -2.880  -5.332   4.738  0.00  0.00    -0.059 C 
ATOM      7  N   UNL     1      -2.047  -6.361   5.373  0.00  0.00    +0.387 N 
ATOM      8  C   UNL     1      -2.868  -6.453   1.344  0.00  0.00    +0.206 A 
ATOM      9  N   UNL     1      -3.943  -7.184   1.213  0.00  0.00    -0.215 NA
ATOM     10  C   UNL     1      -4.559  -7.353   0.015  0.00  0.00    +0.079 A 
ATOM     11  C   UNL     1      -5.708  -8.138  -0.105  0.00  0.00    +0.048 A 
ATOM     12  C   UNL     1      -6.308  -8.288  -1.337  0.00  0.00    +0.043 A 
ATOM     13  C   UNL     1      -5.784  -7.667  -2.464  0.00  0.00    +0.021 A 
ATOM     14  C   UNL     1      -4.650  -6.888  -2.369  0.00  0.00    +0.015 A 
ATOM     15  C   UNL     1      -4.029  -6.723  -1.134  0.00  0.00    +0.045 A 
ATOM     16  C   UNL     1      -2.822  -5.906  -0.973  0.00  0.00    +0.173 A 
ATOM     17  N   UNL     1      -2.284  -5.800   0.293  0.00  0.00    -0.246 N 
ATOM     18  C   UNL     1      -1.188  -4.987   0.158  0.00  0.00    +0.178 A 
ATOM     19  N   UNL     1      -1.111  -4.646  -1.114  0.00  0.00    -0.128 NA
ATOM     20  N   UNL     1      -2.068  -5.195  -1.778  0.00  0.00    -0.128 NA
ATOM     21 CL   UNL     1      -7.736  -9.265  -1.483  0.00  0.00    -0.083 Cl
ATOM     22  H   UNL     1      -1.082  -6.067   5.359  0.00  0.00    -0.081 HD
ENDROOT
BRANCH  18  23
ATOM     23  C   UNL     1      -0.269  -4.573   1.230  0.00  0.00    +0.057 A 
ATOM     24  C   UNL     1       0.372  -5.350   2.177  0.00  0.00    +0.019 A 
ATOM     25  C   UNL     1       1.193  -4.726   3.088  0.00  0.00    +0.008 A 
ATOM     26  C   UNL     1       1.347  -3.378   3.030  0.00  0.00    +0.046 A 
ATOM     27  S   UNL     1       0.314  -2.937   1.643  0.00  0.00    -0.094 S 
ENDBRANCH  18  23
BRANCH   7  28
ATOM     28  C   UNL     1      -2.478  -6.546   6.766  0.00  0.00    -0.024 C 
BRANCH  28  29
ATOM     29  C   UNL     1      -2.227  -5.280   7.542  0.00  0.00    +0.002 A 
ATOM     30  C   UNL     1      -3.126  -4.301   7.773  0.00  0.00    +0.021 A 
ATOM     31  C   UNL     1      -2.481  -3.307   8.534  0.00  0.00    +0.019 A 
ATOM     32  C   UNL     1      -1.212  -3.715   8.739  0.00  0.00    +0.085 A 
ATOM     33  N   UNL     1      -1.052  -4.928   8.138  0.00  0.00    -0.355 N 
ATOM     34  C   UNL     1       0.180  -5.720   8.130  0.00  0.00    +0.148 C 
ENDBRANCH  28  29
ENDBRANCH   7  28
TORSDOF 3
