REMARK  Name = ZINC32527193
REMARK  11 active torsions:
REMARK  status: ('A' for Active; 'I' for Inactive)
REMARK    1  A    between atoms: C_1  and  C_2
REMARK    2  A    between atoms: C_4  and  C_32
REMARK    3  A    between atoms: C_8  and  C_31
REMARK    4  A    between atoms: N_12  and  C_13
REMARK    5  A    between atoms: C_13  and  C_15
REMARK    6  A    between atoms: C_13  and  C_16
REMARK    7  A    between atoms: N_18  and  C_19
REMARK    8  A    between atoms: C_22  and  S_25
REMARK    9  A    between atoms: S_25  and  N_28
REMARK   10  A    between atoms: N_28  and  C_29
REMARK   11  A    between atoms: N_28  and  C_30
REMARK                            x       y       z     vdW  Elec       q    Type
REMARK                         _______ _______ _______ _____ _____    ______ ____
ROOT
ATOM      1  C   UNL     1      -3.164   3.202   1.190  0.00  0.00    +0.173 C 
ATOM      2  C   UNL     1      -4.475   2.417   1.273  0.00  0.00    +0.041 C 
ENDROOT
BRANCH   1  14
ATOM      3  C   UNL     1       1.363   6.524   4.505  0.00  0.00    +0.044 C 
ATOM      4  C   UNL     1       0.127   5.966   3.846  0.00  0.00    -0.050 A 
ATOM      5  C   UNL     1       0.223   4.826   3.060  0.00  0.00    +0.008 A 
ATOM      6  C   UNL     1      -0.894   4.298   2.448  0.00  0.00    -0.026 A 
ATOM      7  C   UNL     1      -2.131   4.910   2.623  0.00  0.00    +0.056 A 
ATOM      8  C   UNL     1      -2.223   6.069   3.416  0.00  0.00    +0.002 A 
ATOM      9  C   UNL     1      -1.076   6.587   4.028  0.00  0.00    +0.013 A 
ATOM     10  C   UNL     1      -3.528   6.709   3.590  0.00  0.00    -0.036 A 
ATOM     11  C   UNL     1      -4.605   6.161   2.973  0.00  0.00    +0.074 A 
ATOM     12  C   UNL     1      -4.458   5.000   2.184  0.00  0.00    +0.253 A 
ATOM     13  O   UNL     1      -5.438   4.525   1.638  0.00  0.00    -0.268 OA
ATOM     14  N   UNL     1      -3.263   4.406   2.019  0.00  0.00    -0.296 N 
ATOM     15  C   UNL     1      -3.672   7.948   4.435  0.00  0.00    +0.044 C 
ATOM     16  C   UNL     1      -0.776   3.059   1.598  0.00  0.00    +0.046 C 
ENDBRANCH   1  14
BRANCH   1  17
ATOM     17  C   UNL     1      -2.905   3.597  -0.241  0.00  0.00    +0.240 C 
ATOM     18  O   UNL     1      -2.812   4.769  -0.539  0.00  0.00    -0.273 OA
ATOM     19  N   UNL     1      -2.776   2.648  -1.189  0.00  0.00    -0.284 N 
ATOM     20  H   UNL     1      -2.970   1.594  -0.942  0.00  0.00    +0.155 HD
BRANCH  19  21
ATOM     21  C   UNL     1      -2.397   3.005  -2.488  0.00  0.00    +0.034 A 
ATOM     22  C   UNL     1      -2.869   2.280  -3.574  0.00  0.00    +0.025 A 
ATOM     23  C   UNL     1      -2.489   2.631  -4.855  0.00  0.00    +0.030 A 
ATOM     24  C   UNL     1      -1.638   3.702  -5.056  0.00  0.00    +0.106 A 
ATOM     25  C   UNL     1      -1.165   4.425  -3.976  0.00  0.00    +0.030 A 
ATOM     26  C   UNL     1      -1.542   4.080  -2.693  0.00  0.00    +0.025 A 
BRANCH  24  27
ATOM     27  S   UNL     1      -1.155   4.146  -6.691  0.00  0.00    +0.060 S 
ATOM     28  O   UNL     1      -2.165   3.653  -7.561  0.00  0.00    -0.153 OA
ATOM     29  O   UNL     1      -0.789   5.519  -6.648  0.00  0.00    -0.153 OA
BRANCH  27  30
ATOM     30  N   UNL     1       0.225   3.300  -7.041  0.00  0.00    -0.183 NA
ATOM     31  C   UNL     1       0.135   1.976  -7.661  0.00  0.00    +0.131 C 
ATOM     32  C   UNL     1       1.536   3.876  -6.731  0.00  0.00    +0.131 C 
ENDBRANCH  27  30
ENDBRANCH  24  27
ENDBRANCH  19  21
ENDBRANCH   1  17
TORSDOF 5
