REMARK  Name = ZINC59364466
REMARK  8 active torsions:
REMARK  status: ('A' for Active; 'I' for Inactive)
REMARK    1  A    between atoms: C_1  and  C_2
REMARK    2  A    between atoms: C_2  and  C_3
REMARK    3  A    between atoms: N_7  and  N_8
REMARK    4  A    between atoms: N_9  and  N_10
REMARK    5  A    between atoms: C_11  and  C_12
REMARK    6  A    between atoms: C_17  and  O_18
REMARK    7  A    between atoms: O_18  and  C_19
REMARK    8  A    between atoms: C_19  and  C_20
REMARK                            x       y       z     vdW  Elec       q    Type
REMARK                         _______ _______ _______ _____ _____    ______ ____
ROOT
ATOM      1  C   UNL     1       3.405  -2.803   7.203  0.00  0.00    +0.039 A 
ATOM      2  C   UNL     1       3.321  -3.213   8.536  0.00  0.00    +0.033 A 
ATOM      3  C   UNL     1       4.461  -3.606   9.208  0.00  0.00    +0.043 A 
ATOM      4  C   UNL     1       5.689  -3.596   8.566  0.00  0.00    +0.043 A 
ATOM      5  C   UNL     1       5.784  -3.192   7.246  0.00  0.00    +0.085 A 
ATOM      6  C   UNL     1       4.648  -2.800   6.556  0.00  0.00    +0.148 A 
ATOM      7 CL   UNL     1       7.327  -3.183   6.452  0.00  0.00    -0.080 Cl
ATOM      8 CL   UNL     1       4.356  -4.115  10.864  0.00  0.00    -0.083 Cl
ENDROOT
BRANCH   1  10
ATOM      9  N   UNL     1       2.273  -2.007   5.239  0.00  0.00    -0.187 NA
ATOM     10  C   UNL     1       2.192  -2.382   6.480  0.00  0.00    +0.142 C 
BRANCH   9  16
ATOM     11  C   UNL     1       0.731  -0.503   1.223  0.00  0.00    +0.152 A 
ATOM     12  N   UNL     1       2.010  -0.739   1.317  0.00  0.00    -0.131 NA
ATOM     13  N   UNL     1       2.296  -1.154   2.499  0.00  0.00    -0.110 NA
ATOM     14  C   UNL     1       1.206  -1.207   3.229  0.00  0.00    +0.254 A 
ATOM     15  N   UNL     1       0.175  -0.787   2.438  0.00  0.00    -0.220 N 
ATOM     16  N   UNL     1       1.120  -1.607   4.552  0.00  0.00    -0.204 N 
ATOM     17  H   UNL     1       0.261  -1.610   5.002  0.00  0.00    +0.177 HD
BRANCH  15  18
ATOM     18  N   UNL     1      -1.141  -0.677   2.789  0.00  0.00    -0.294 N 
ATOM     19  H   UNL     1      -1.637  -1.536   2.606  0.00  0.00    +0.163 HD
ATOM     20  H   UNL     1      -1.236  -0.403   3.756  0.00  0.00    +0.163 HD
ENDBRANCH  15  18
BRANCH  11  22
ATOM     21  C   UNL     1      -0.019   1.526   0.010  0.00  0.00    +0.012 C 
ATOM     22  C   UNL     1       0.002  -0.004   0.002  0.00  0.00    +0.074 C 
ENDBRANCH  11  22
ENDBRANCH   9  16
ENDBRANCH   1  10
BRANCH   6  23
ATOM     23  O   UNL     1       4.739  -2.410   5.257  0.00  0.00    -0.485 OA
BRANCH  23  24
ATOM     24  C   UNL     1       4.976  -1.022   5.013  0.00  0.00    +0.267 C 
BRANCH  24  25
ATOM     25  C   UNL     1       5.047  -0.778   3.527  0.00  0.00    +0.025 A 
ATOM     26  C   UNL     1       4.883  -1.830   2.646  0.00  0.00    +0.010 A 
ATOM     27  C   UNL     1       4.948  -1.607   1.283  0.00  0.00    +0.001 A 
ATOM     28  C   UNL     1       5.177  -0.332   0.800  0.00  0.00    +0.003 A 
ATOM     29  C   UNL     1       5.340   0.721   1.680  0.00  0.00    +0.039 A 
ATOM     30  C   UNL     1       5.270   0.500   3.045  0.00  0.00    +0.130 A 
ATOM     31  F   UNL     1       5.425   1.530   3.905  0.00  0.00    -0.205 F 
ENDBRANCH  24  25
ENDBRANCH  23  24
ENDBRANCH   6  23
TORSDOF 7
