REMARK  Name = ZINC13394824
REMARK  3 active torsions:
REMARK  status: ('A' for Active; 'I' for Inactive)
REMARK    1  A    between atoms: C_10  and  C_12
REMARK    2  A    between atoms: C_14  and  N_28
REMARK    3  A    between atoms: C_16  and  C_21
REMARK                            x       y       z     vdW  Elec       q    Type
REMARK                         _______ _______ _______ _____ _____    ______ ____
ROOT
ATOM      1  C   UNL     1       4.662   0.037  -0.966  0.00  0.00    +0.030 C 
ATOM      2  C   UNL     1       5.758   0.635  -0.466  0.00  0.00    +0.186 C 
ATOM      3  C   UNL     1       6.719   1.375  -1.358  0.00  0.00    +0.187 C 
ATOM      4  C   UNL     1       6.709   0.745  -2.754  0.00  0.00    +0.059 C 
ATOM      5  C   UNL     1       5.279   0.780  -3.302  0.00  0.00    +0.090 C 
ATOM      6  C   UNL     1       4.368   0.066  -2.337  0.00  0.00    +0.162 C 
ATOM      7  O   UNL     1       3.368  -0.487  -2.750  0.00  0.00    -0.292 OA
ATOM      8  O   UNL     1       6.001   0.570   0.857  0.00  0.00    -0.290 OA
ENDROOT
BRANCH   1  18
ATOM      9  C   UNL     1      -0.017   1.376   0.010  0.00  0.00    +0.000 A 
ATOM     10  C   UNL     1       1.173   2.080   0.002  0.00  0.00    +0.000 A 
ATOM     11  C   UNL     1       2.375   1.401  -0.012  0.00  0.00    +0.002 A 
ATOM     12  C   UNL     1       2.395   0.014  -0.019  0.00  0.00    -0.054 A 
ATOM     13  C   UNL     1       1.208  -0.687  -0.014  0.00  0.00    -0.047 A 
ATOM     14  C   UNL     1       0.002  -0.004   0.002  0.00  0.00    +0.004 A 
ATOM     15  C   UNL     1       1.186  -2.194  -0.030  0.00  0.00    +0.016 C 
ATOM     16  C   UNL     1       2.562  -2.736   0.357  0.00  0.00    -0.077 C 
ATOM     17  N   UNL     1       3.578  -2.074  -0.475  0.00  0.00    +0.387 N 
ATOM     18  C   UNL     1       3.728  -0.686  -0.030  0.00  0.00    -0.003 C 
ATOM     19  H   UNL     1       4.459  -2.557  -0.380  0.00  0.00    -0.085 HD
ATOM     20  H   UNL     1       3.286  -2.090  -1.441  0.00  0.00    -0.085 HD
ENDBRANCH   1  18
BRANCH   4  21
ATOM     21  C   UNL     1       7.622   1.524  -3.666  0.00  0.00    -0.041 A 
ATOM     22  C   UNL     1       7.384   2.866  -3.899  0.00  0.00    +0.005 A 
ATOM     23  C   UNL     1       8.220   3.581  -4.735  0.00  0.00    +0.020 A 
ATOM     24  C   UNL     1       9.295   2.954  -5.339  0.00  0.00    +0.041 A 
ATOM     25  C   UNL     1       9.533   1.611  -5.105  0.00  0.00    +0.020 A 
ATOM     26  C   UNL     1       8.699   0.899  -4.264  0.00  0.00    +0.005 A 
ATOM     27 CL   UNL     1      10.346   3.851  -6.390  0.00  0.00    -0.084 Cl
ENDBRANCH   4  21
BRANCH   3  28
ATOM     28  N   UNL     1       6.314   2.780  -1.453  0.00  0.00    -0.241 N 
ATOM     29  C   UNL     1       5.058   3.257  -1.456  0.00  0.00    +0.219 A 
ATOM     30  N   UNL     1       5.120   4.560  -1.555  0.00  0.00    -0.223 NA
ATOM     31  C   UNL     1       6.392   4.949  -1.617  0.00  0.00    +0.245 A 
ATOM     32  N   UNL     1       7.162   3.895  -1.553  0.00  0.00    -0.158 NA
ENDBRANCH   3  28
TORSDOF 3
