REMARK  Name = ZINC36258056
REMARK  11 active torsions:
REMARK  status: ('A' for Active; 'I' for Inactive)
REMARK    1  A    between atoms: C_1  and  C_2
REMARK    2  A    between atoms: C_2  and  O_3
REMARK    3  A    between atoms: O_3  and  C_4
REMARK    4  A    between atoms: C_4  and  C_6
REMARK    5  A    between atoms: C_7  and  N_21
REMARK    6  A    between atoms: C_10  and  C_11
REMARK    7  A    between atoms: C_14  and  O_18
REMARK    8  A    between atoms: C_15  and  O_17
REMARK    9  A    between atoms: N_21  and  C_22
REMARK   10  A    between atoms: C_27  and  O_28
REMARK   11  A    between atoms: O_28  and  C_29
REMARK                            x       y       z     vdW  Elec       q    Type
REMARK                         _______ _______ _______ _____ _____    ______ ____
ROOT
ATOM      1  C   UNL     1       1.382  -2.348  -2.976  0.00  0.00    +0.134 C 
ATOM      2  C   UNL     1       1.379  -3.729  -3.197  0.00  0.00    +0.088 C 
ATOM      3  S   UNL     1       1.932  -3.907  -4.880  0.00  0.00    -0.069 S 
ATOM      4  C   UNL     1       2.170  -2.192  -5.303  0.00  0.00    +0.062 C 
ATOM      5  C   UNL     1       2.593  -1.660  -6.479  0.00  0.00    +0.027 C 
ATOM      6  C   UNL     1       1.788  -1.495  -4.064  0.00  0.00    +0.209 C 
ATOM      7  O   UNL     1       1.817  -0.279  -3.964  0.00  0.00    -0.286 OA
ENDROOT
BRANCH   5   8
ATOM      8  C   UNL     1       2.888  -0.225  -6.571  0.00  0.00    -0.020 A 
ATOM      9  C   UNL     1       3.529   0.430  -5.512  0.00  0.00    +0.012 A 
ATOM     10  C   UNL     1       3.804   1.777  -5.602  0.00  0.00    +0.050 A 
ATOM     11  C   UNL     1       3.447   2.488  -6.740  0.00  0.00    +0.158 A 
ATOM     12  C   UNL     1       2.808   1.843  -7.799  0.00  0.00    +0.159 A 
ATOM     13  C   UNL     1       2.534   0.492  -7.721  0.00  0.00    +0.057 A 
BRANCH  12  14
ATOM     14  O   UNL     1       2.460   2.544  -8.911  0.00  0.00    -0.503 OA
ATOM     15  H   UNL     1       3.144   2.563  -9.594  0.00  0.00    +0.292 HD
ENDBRANCH  12  14
BRANCH  11  16
ATOM     16  O   UNL     1       3.721   3.816  -6.823  0.00  0.00    -0.503 OA
ATOM     17  H   UNL     1       4.585   4.016  -7.208  0.00  0.00    +0.292 HD
ENDBRANCH  11  16
ENDBRANCH   5   8
BRANCH   1  18
ATOM     18  C   UNL     1       0.993  -1.805  -1.725  0.00  0.00    +0.345 C 
ATOM     19  O   UNL     1       0.653  -2.544  -0.820  0.00  0.00    -0.245 OA
BRANCH  18  20
ATOM     20  O   UNL     1       1.000  -0.469  -1.538  0.00  0.00    -0.461 OA
BRANCH  20  22
ATOM     21  C   UNL     1       0.668   1.537  -0.231  0.00  0.00    +0.048 C 
ATOM     22  C   UNL     1       0.596   0.009  -0.253  0.00  0.00    +0.229 C 
ENDBRANCH  20  22
ENDBRANCH  18  20
ENDBRANCH   1  18
BRANCH   2  23
ATOM     23  N   UNL     1       1.029  -4.718  -2.319  0.00  0.00    -0.305 N 
ATOM     24  H   UNL     1       0.662  -4.489  -1.451  0.00  0.00    +0.153 HD
BRANCH  23  25
ATOM     25  C   UNL     1       1.202  -6.061  -2.674  0.00  0.00    +0.074 A 
ATOM     26  C   UNL     1       2.271  -6.437  -3.476  0.00  0.00    +0.027 A 
ATOM     27  C   UNL     1       2.439  -7.764  -3.824  0.00  0.00    +0.002 A 
ATOM     28  C   UNL     1       1.545  -8.719  -3.377  0.00  0.00    +0.004 A 
ATOM     29  C   UNL     1       0.478  -8.352  -2.578  0.00  0.00    +0.047 A 
ATOM     30  C   UNL     1       0.305  -7.025  -2.218  0.00  0.00    +0.141 A 
BRANCH  30  31
ATOM     31  O   UNL     1      -0.740  -6.664  -1.428  0.00  0.00    -0.493 OA
ATOM     32  C   UNL     1      -1.619  -7.705  -0.998  0.00  0.00    +0.277 C 
ENDBRANCH  30  31
ENDBRANCH  23  25
ENDBRANCH   2  23
TORSDOF 9
