REMARK  Name = ZINC35779104
REMARK  18 active torsions:
REMARK  status: ('A' for Active; 'I' for Inactive)
REMARK    1  A    between atoms: C_1  and  C_2
REMARK    2  A    between atoms: C_2  and  C_3
REMARK    3  A    between atoms: C_2  and  C_4
REMARK    4  A    between atoms: C_4  and  N_5
REMARK    5  A    between atoms: N_5  and  C_6
REMARK    6  A    between atoms: N_5  and  C_16
REMARK    7  A    between atoms: C_6  and  C_7
REMARK    8  A    between atoms: C_7  and  C_9
REMARK    9  A    between atoms: C_7  and  O_15
REMARK   10  A    between atoms: C_9  and  O_10
REMARK   11  A    between atoms: O_10  and  C_11
REMARK   12  A    between atoms: C_11  and  C_12
REMARK   13  A    between atoms: C_11  and  C_13
REMARK   14  A    between atoms: C_11  and  C_14
REMARK   15  A    between atoms: C_16  and  C_17
REMARK   16  A    between atoms: C_27  and  C_29
REMARK   17  A    between atoms: C_29  and  O_30
REMARK   18  A    between atoms: O_30  and  C_31
REMARK                            x       y       z     vdW  Elec       q    Type
REMARK                         _______ _______ _______ _____ _____    ______ ____
ROOT
ATOM      1  C   UNL     1      -3.245  -2.058  -1.887  0.00  0.00    +0.200 C 
ATOM      2  O   UNL     1      -2.421  -1.474  -2.558  0.00  0.00    -0.278 OA
ATOM      3  N   UNL     1      -4.496  -2.235  -2.358  0.00  0.00    -0.292 N 
ATOM      4  C   UNL     1      -5.505  -2.937  -1.550  0.00  0.00    +0.113 C 
ATOM      5  C   UNL     1      -6.620  -1.940  -1.198  0.00  0.00    +0.061 C 
ATOM      6  C   UNL     1      -6.943  -1.135  -2.414  0.00  0.00    -0.004 A 
ATOM      7  C   UNL     1      -6.203  -0.997  -3.548  0.00  0.00    -0.014 A 
ATOM      8  C   UNL     1      -6.729  -0.174  -4.543  0.00  0.00    +0.013 A 
ATOM      9  C   UNL     1      -7.922   0.436  -4.356  0.00  0.00    +0.046 A 
ATOM     10  S   UNL     1      -8.375  -0.134  -2.725  0.00  0.00    -0.101 S 
ATOM     11  C   UNL     1      -4.872  -1.724  -3.683  0.00  0.00    +0.144 C 
ENDROOT
BRANCH   1  12
ATOM     12  C   UNL     1      -2.871  -2.587  -0.526  0.00  0.00    +0.019 C 
BRANCH  12  13
ATOM     13  N   UNL     1      -1.528  -2.113  -0.169  0.00  0.00    +0.387 N 
ATOM     14  H   UNL     1      -0.956  -2.067  -0.999  0.00  0.00    -0.081 HD
BRANCH  13  15
ATOM     15  C   UNL     1      -1.624  -0.776   0.433  0.00  0.00    -0.075 C 
BRANCH  15  17
ATOM     16  C   UNL     1      -2.378   1.574   0.045  0.00  0.00    +0.005 C 
ATOM     17  C   UNL     1      -2.093   0.227  -0.622  0.00  0.00    -0.034 C 
ATOM     18  C   UNL     1      -1.002   0.402  -1.680  0.00  0.00    +0.005 C 
ENDBRANCH  15  17
ENDBRANCH  13  15
BRANCH  13  19
ATOM     19  C   UNL     1      -0.920  -3.041   0.794  0.00  0.00    -0.044 C 
BRANCH  19  20
ATOM     20  C   UNL     1       0.546  -2.662   1.013  0.00  0.00    +0.124 C 
BRANCH  20  21
ATOM     21  O   UNL     1       0.617  -1.415   1.706  0.00  0.00    -0.391 OA
ATOM     22  H   UNL     1       0.260  -1.443   2.604  0.00  0.00    +0.210 HD
ENDBRANCH  20  21
BRANCH  20  23
ATOM     23  C   UNL     1       1.234  -3.747   1.843  0.00  0.00    +0.189 C 
BRANCH  23  24
ATOM     24  O   UNL     1       2.628  -3.452   1.950  0.00  0.00    -0.372 OA
BRANCH  24  25
ATOM     25  C   UNL     1       3.369  -4.410   2.710  0.00  0.00    +0.061 C 
ATOM     26  C   UNL     1       3.247  -5.786   2.054  0.00  0.00    +0.041 C 
ATOM     27  C   UNL     1       4.841  -3.995   2.757  0.00  0.00    +0.041 C 
ATOM     28  C   UNL     1       2.810  -4.472   4.133  0.00  0.00    +0.041 C 
ENDBRANCH  24  25
ENDBRANCH  23  24
ENDBRANCH  20  23
ENDBRANCH  19  20
ENDBRANCH  13  19
ENDBRANCH  12  13
ENDBRANCH   1  12
BRANCH  11  29
ATOM     29  C   UNL     1      -5.020  -2.889  -4.664  0.00  0.00    +0.256 C 
BRANCH  29  30
ATOM     30  O   UNL     1      -6.111  -3.717  -4.259  0.00  0.00    -0.490 OA
BRANCH  30  31
ATOM     31  C   UNL     1      -6.380  -4.805  -5.030  0.00  0.00    +0.121 A 
ATOM     32  C   UNL     1      -5.605  -5.071  -6.149  0.00  0.00    +0.048 A 
ATOM     33  C   UNL     1      -5.879  -6.177  -6.931  0.00  0.00    +0.042 A 
ATOM     34  C   UNL     1      -6.927  -7.018  -6.598  0.00  0.00    +0.124 A 
ATOM     35  C   UNL     1      -7.702  -6.753  -5.482  0.00  0.00    +0.042 A 
ATOM     36  C   UNL     1      -7.426  -5.652  -4.694  0.00  0.00    +0.048 A 
ATOM     37  F   UNL     1      -7.194  -8.098  -7.364  0.00  0.00    -0.205 F 
ENDBRANCH  30  31
ENDBRANCH  29  30
ENDBRANCH  11  29
TORSDOF 13
