REMARK  Name = ZINC00197725
REMARK  3 active torsions:
REMARK  status: ('A' for Active; 'I' for Inactive)
REMARK    1  A    between atoms: C_10  and  N_11
REMARK    2  A    between atoms: C_20  and  C_26
REMARK    3  A    between atoms: C_26  and  O_27
REMARK                            x       y       z     vdW  Elec       q    Type
REMARK                         _______ _______ _______ _____ _____    ______ ____
ROOT
ATOM      1  N   UNL     1      -1.117   1.965   0.017  0.00  0.00    -0.209 N 
ATOM      2  C   UNL     1      -0.014   1.208   0.009  0.00  0.00    +0.233 C 
ATOM      3  O   UNL     1       0.002  -0.004   0.002  0.00  0.00    -0.274 OA
ATOM      4  C   UNL     1       1.208   2.097   0.002  0.00  0.00    +0.123 C 
ATOM      5  C   UNL     1       1.877   2.023   1.409  0.00  0.00    +0.155 C 
ATOM      6  C   UNL     1       3.059   2.994   1.342  0.00  0.00    +0.004 C 
ATOM      7  C   UNL     1       2.545   4.212   1.355  0.00  0.00    +0.009 C 
ATOM      8  C   UNL     1       1.026   4.041   1.430  0.00  0.00    +0.123 C 
ATOM      9  C   UNL     1       0.603   3.535   0.016  0.00  0.00    +0.128 C 
ATOM     10  C   UNL     1      -0.887   3.282   0.028  0.00  0.00    +0.233 C 
ATOM     11  O   UNL     1      -1.743   4.141   0.039  0.00  0.00    -0.274 OA
ATOM     12  O   UNL     1       0.931   2.804   2.213  0.00  0.00    -0.358 OA
ENDROOT
BRANCH   1  22
ATOM     13  C   UNL     1      -4.413   0.623  -3.564  0.00  0.00    +0.001 A 
ATOM     14  C   UNL     1      -3.129   1.163  -3.588  0.00  0.00    +0.001 A 
ATOM     15  C   UNL     1      -2.460   1.430  -2.433  0.00  0.00    +0.010 A 
ATOM     16  C   UNL     1      -3.069   1.158  -1.198  0.00  0.00    +0.004 A 
ATOM     17  C   UNL     1      -4.373   0.603  -1.172  0.00  0.00    -0.016 A 
ATOM     18  C   UNL     1      -5.030   0.335  -2.385  0.00  0.00    +0.008 A 
ATOM     19  C   UNL     1      -4.986   0.335   0.063  0.00  0.00    +0.008 A 
ATOM     20  C   UNL     1      -4.325   0.605   1.223  0.00  0.00    +0.002 A 
ATOM     21  C   UNL     1      -3.043   1.146   1.210  0.00  0.00    +0.024 A 
ATOM     22  C   UNL     1      -2.407   1.422   0.019  0.00  0.00    +0.052 A 
ENDBRANCH   1  22
BRANCH   8  23
ATOM     23  C   UNL     1       0.251   5.242   1.977  0.00  0.00    +0.195 C 
BRANCH  23  24
ATOM     24  O   UNL     1       0.793   5.621   3.244  0.00  0.00    -0.392 OA
ATOM     25  H   UNL     1       0.349   6.378   3.651  0.00  0.00    +0.210 HD
ENDBRANCH  23  24
ENDBRANCH   8  23
TORSDOF 3
