REMARK  Name = ZINC13039599
REMARK  5 active torsions:
REMARK  status: ('A' for Active; 'I' for Inactive)
REMARK    1  A    between atoms: C_1  and  N_2
REMARK    2  A    between atoms: N_2  and  C_3
REMARK    3  A    between atoms: C_6  and  C_12
REMARK    4  A    between atoms: C_8  and  N_9
REMARK    5  A    between atoms: N_19  and  C_20
REMARK                            x       y       z     vdW  Elec       q    Type
REMARK                         _______ _______ _______ _____ _____    ______ ____
ROOT
ATOM      1  C   UNL     1      -4.809  -2.371  -0.270  0.00  0.00    +0.028 C 
ATOM      2  C   UNL     1      -5.810  -1.461  -0.375  0.00  0.00    +0.079 C 
ATOM      3  C   UNL     1      -7.256  -1.665  -0.622  0.00  0.00    +0.276 C 
ATOM      4  O   UNL     1      -7.733  -2.779  -0.770  0.00  0.00    -0.267 OA
ATOM      5  N   UNL     1      -7.998  -0.580  -0.674  0.00  0.00    -0.154 NA
ATOM      6  C   UNL     1      -7.494   0.633  -0.515  0.00  0.00    +0.152 C 
ATOM      7  S   UNL     1      -5.756   0.322  -0.244  0.00  0.00    -0.052 S 
ATOM      8  N   UNL     1      -8.147   1.837  -0.545  0.00  0.00    -0.322 N 
ATOM      9  H   UNL     1      -7.653   2.661  -0.413  0.00  0.00    +0.148 HD
ENDROOT
BRANCH   1  13
ATOM     10  C   UNL     1      -0.778  -1.083  -0.087  0.00  0.00    +0.058 A 
ATOM     11  C   UNL     1      -1.093  -2.423   0.127  0.00  0.00    +0.026 A 
ATOM     12  C   UNL     1      -2.392  -2.842   0.069  0.00  0.00    +0.010 A 
ATOM     13  C   UNL     1      -3.413  -1.923  -0.207  0.00  0.00    -0.022 A 
ATOM     14  C   UNL     1      -3.098  -0.575  -0.422  0.00  0.00    +0.042 A 
ATOM     15  C   UNL     1      -1.787  -0.161  -0.357  0.00  0.00    +0.147 A 
BRANCH  10  17
ATOM     16  C   UNL     1       1.614  -1.640   0.210  0.00  0.00    +0.125 C 
ATOM     17  N   UNL     1       0.547  -0.664  -0.027  0.00  0.00    -0.345 N 
ATOM     18  H   UNL     1       0.764   0.274  -0.141  0.00  0.00    +0.146 HD
ENDBRANCH  10  17
BRANCH  15  19
ATOM     19  N   UNL     1      -1.448   1.263  -0.578  0.00  0.00    +0.058 N 
ATOM     20  O   UNL     1      -2.210   2.129  -0.216  0.00  0.00    -0.126 OA
ATOM     21  O   UNL     1      -0.408   1.560  -1.119  0.00  0.00    -0.126 OA
ENDBRANCH  15  19
ENDBRANCH   1  13
BRANCH   8  22
ATOM     22  C   UNL     1      -9.593   1.879  -0.776  0.00  0.00    +0.072 C 
ATOM     23  C   UNL     1     -10.328   1.679   0.550  0.00  0.00    +0.022 C 
ATOM     24  C   UNL     1     -11.839   1.723   0.309  0.00  0.00    +0.002 C 
ATOM     25  C   UNL     1     -12.220   3.080  -0.286  0.00  0.00    +0.000 C 
ATOM     26  C   UNL     1     -11.485   3.280  -1.613  0.00  0.00    +0.002 C 
ATOM     27  C   UNL     1      -9.975   3.236  -1.371  0.00  0.00    +0.022 C 
ENDBRANCH   8  22
TORSDOF 4
