REMARK  Name = ZINC03627436
REMARK  9 active torsions:
REMARK  status: ('A' for Active; 'I' for Inactive)
REMARK    1  A    between atoms: C_1  and  N_2
REMARK    2  A    between atoms: N_2  and  C_3
REMARK    3  A    between atoms: N_2  and  N_4
REMARK    4  A    between atoms: C_7  and  C_14
REMARK    5  A    between atoms: C_9  and  C_12
REMARK    6  A    between atoms: C_10  and  N_11
REMARK    7  A    between atoms: C_17  and  O_20
REMARK    8  A    between atoms: O_20  and  C_21
REMARK    9  A    between atoms: C_21  and  C_22
REMARK                            x       y       z     vdW  Elec       q    Type
REMARK                         _______ _______ _______ _____ _____    ______ ____
ROOT
ATOM      1  N   UNL     1      -1.221  -0.590  -0.146  0.00  0.00    -0.223 N 
ATOM      2  C   UNL     1      -1.437  -1.452  -1.187  0.00  0.00    +0.036 C 
ATOM      3  C   UNL     1      -2.691  -1.739  -1.594  0.00  0.00    +0.026 C 
ATOM      4  C   UNL     1      -3.887  -1.119  -0.915  0.00  0.00    +0.097 C 
ATOM      5  C   UNL     1      -3.518  -0.562   0.428  0.00  0.00    +0.078 C 
ATOM      6  C   UNL     1      -2.221  -0.323   0.758  0.00  0.00    +0.117 C 
ATOM      7  C   UNL     1      -2.922  -2.621  -2.664  0.00  0.00    +0.162 C 
ATOM      8  O   UNL     1      -4.064  -2.872  -2.994  0.00  0.00    -0.292 OA
ATOM      9  C   UNL     1      -1.782  -3.260  -3.408  0.00  0.00    +0.080 C 
ATOM     10  C   UNL     1      -0.560  -2.338  -3.335  0.00  0.00    +0.014 C 
ATOM     11  C   UNL     1      -0.239  -2.075  -1.862  0.00  0.00    +0.053 C 
ENDROOT
BRANCH   4  12
ATOM     12  C   UNL     1      -4.424  -0.008  -1.780  0.00  0.00    -0.034 A 
ATOM     13  C   UNL     1      -3.616   1.067  -2.104  0.00  0.00    +0.008 A 
ATOM     14  C   UNL     1      -4.106   2.087  -2.896  0.00  0.00    +0.046 A 
ATOM     15  C   UNL     1      -5.410   2.033  -3.367  0.00  0.00    +0.121 A 
ATOM     16  C   UNL     1      -6.218   0.954  -3.040  0.00  0.00    +0.046 A 
ATOM     17  C   UNL     1      -5.722  -0.067  -2.252  0.00  0.00    +0.008 A 
BRANCH  15  18
ATOM     18  O   UNL     1      -5.894   3.035  -4.146  0.00  0.00    -0.488 OA
BRANCH  18  19
ATOM     19  C   UNL     1      -7.246   2.913  -4.594  0.00  0.00    +0.256 C 
BRANCH  19  20
ATOM     20  C   UNL     1      -7.605   4.109  -5.439  0.00  0.00    +0.006 C 
ATOM     21  C   UNL     1      -8.245   3.943  -6.569  0.00  0.00    +0.007 C 
ENDBRANCH  19  20
ENDBRANCH  18  19
ENDBRANCH  15  18
ENDBRANCH   4  12
BRANCH   1  23
ATOM     22  C   UNL     1       1.029  -0.982   0.353  0.00  0.00    +0.128 C 
ATOM     23  N   UNL     1       0.000   0.005  -0.002  0.00  0.00    -0.227 NA
ATOM     24  C   UNL     1       0.374   0.741  -1.217  0.00  0.00    +0.128 C 
ENDBRANCH   1  23
BRANCH   6  25
ATOM     25  N   UNL     1      -1.908   0.191   1.994  0.00  0.00    -0.344 N 
ATOM     26  H   UNL     1      -0.980   0.292   2.257  0.00  0.00    +0.144 HD
ATOM     27  H   UNL     1      -2.616   0.451   2.604  0.00  0.00    +0.144 HD
ENDBRANCH   6  25
BRANCH   5  28
ATOM     28  C   UNL     1      -4.550  -0.281   1.381  0.00  0.00    +0.099 C 
ATOM     29  N   UNL     1      -5.368  -0.059   2.137  0.00  0.00    -0.191 NA
ENDBRANCH   5  28
TORSDOF 7
