REMARK  Name = ZINC52774612
REMARK  8 active torsions:
REMARK  status: ('A' for Active; 'I' for Inactive)
REMARK    1  A    between atoms: C_1  and  C_2
REMARK    2  A    between atoms: N_5  and  C_8
REMARK    3  A    between atoms: C_11  and  N_14
REMARK    4  A    between atoms: N_14  and  C_15
REMARK    5  A    between atoms: C_15  and  C_17
REMARK    6  A    between atoms: C_15  and  C_18
REMARK    7  A    between atoms: N_20  and  C_21
REMARK    8  A    between atoms: N_20  and  C_22
REMARK                            x       y       z     vdW  Elec       q    Type
REMARK                         _______ _______ _______ _____ _____    ______ ____
ROOT
ATOM      1  N   UNL     1       2.117  -7.982  -0.054  0.00  0.00    -0.333 N 
ATOM      2  H   UNL     1       1.330  -8.550  -0.058  0.00  0.00    +0.147 HD
ENDROOT
BRANCH   1   6
ATOM      3  C   UNL     1       1.697  -3.840  -0.029  0.00  0.00    +0.014 A 
ATOM      4  C   UNL     1       0.574  -4.647  -0.036  0.00  0.00    +0.023 A 
ATOM      5  C   UNL     1       0.710  -6.021  -0.044  0.00  0.00    +0.025 A 
ATOM      6  C   UNL     1       1.976  -6.593  -0.046  0.00  0.00    +0.028 A 
ATOM      7  C   UNL     1       3.102  -5.779  -0.038  0.00  0.00    +0.025 A 
ATOM      8  C   UNL     1       2.959  -4.405  -0.036  0.00  0.00    +0.023 A 
BRANCH   3  13
ATOM      9  C   UNL     1      -0.019   1.526   0.010  0.00  0.00    +0.007 C 
ATOM     10  C   UNL     1       0.002  -0.004   0.002  0.00  0.00    -0.011 C 
ATOM     11  C   UNL     1       0.727  -0.499  -1.252  0.00  0.00    +0.020 C 
ATOM     12  C   UNL     1       0.814  -2.027  -1.215  0.00  0.00    +0.085 C 
ATOM     13  N   UNL     1       1.556  -2.449  -0.021  0.00  0.00    -0.393 NA
ATOM     14  C   UNL     1       0.829  -2.040   1.187  0.00  0.00    +0.085 C 
ATOM     15  C   UNL     1       0.743  -0.513   1.242  0.00  0.00    +0.020 C 
ATOM     16  H   UNL     1       2.469  -2.020  -0.024  0.00  0.00    +0.126 HD
ENDBRANCH   3  13
ENDBRANCH   1   6
BRANCH   1  17
ATOM     17  C   UNL     1       3.453  -8.583  -0.055  0.00  0.00    +0.154 C 
ATOM     18  C   UNL     1       3.967  -8.686   1.383  0.00  0.00    +0.038 C 
BRANCH  17  19
ATOM     19  C   UNL     1       3.384  -9.960  -0.663  0.00  0.00    +0.236 C 
ATOM     20  O   UNL     1       2.323 -10.396  -1.058  0.00  0.00    -0.274 OA
ATOM     21  N   UNL     1       4.501 -10.706  -0.770  0.00  0.00    -0.298 N 
ATOM     22  C   UNL     1       5.782 -10.179  -0.294  0.00  0.00    +0.132 C 
BRANCH  21  23
ATOM     23  C   UNL     1       4.434 -12.045  -1.362  0.00  0.00    +0.098 C 
ATOM     24  C   UNL     1       4.935 -13.087  -0.348  0.00  0.00    +0.046 C 
ATOM     25  C   UNL     1       5.171 -14.442  -1.057  0.00  0.00    +0.168 C 
ATOM     26  S   UNL     1       5.570 -13.933  -2.779  0.00  0.00    -0.029 S 
ATOM     27  O   UNL     1       4.574 -14.443  -3.654  0.00  0.00    -0.174 OA
ATOM     28  O   UNL     1       6.939 -14.214  -3.038  0.00  0.00    -0.174 OA
ATOM     29  C   UNL     1       5.351 -12.111  -2.616  0.00  0.00    +0.188 C 
ENDBRANCH  21  23
ENDBRANCH  17  19
ENDBRANCH   1  17
TORSDOF 5
