REMARK  Name = ZINC13122345
REMARK  6 active torsions:
REMARK  status: ('A' for Active; 'I' for Inactive)
REMARK    1  A    between atoms: N_8  and  N_9
REMARK    2  A    between atoms: N_9  and  C_10
REMARK    3  A    between atoms: C_10  and  N_12
REMARK    4  A    between atoms: N_12  and  C_13
REMARK    5  A    between atoms: C_13  and  C_14
REMARK    6  A    between atoms: C_20  and  O_22
REMARK                            x       y       z     vdW  Elec       q    Type
REMARK                         _______ _______ _______ _____ _____    ______ ____
ROOT
ATOM      1  C   UNL     1      -0.022   1.328   0.539  0.00  0.00    +0.032 A 
ATOM      2  C   UNL     1       1.168   2.011   0.713  0.00  0.00    +0.043 A 
ATOM      3  C   UNL     1       2.378   1.343   0.608  0.00  0.00    +0.042 A 
ATOM      4  C   UNL     1       2.416  -0.008   0.331  0.00  0.00    +0.068 A 
ATOM      5  C   UNL     1       1.225  -0.720   0.151  0.00  0.00    +0.095 A 
ATOM      6  C   UNL     1      -0.000  -0.031   0.260  0.00  0.00    +0.035 A 
ATOM      7  C   UNL     1      -1.050  -1.048   0.021  0.00  0.00    +0.152 C 
ATOM      8  N   UNL     1      -2.352  -0.879   0.019  0.00  0.00    -0.175 NA
ATOM      9  C   UNL     1      -0.297  -2.295  -0.216  0.00  0.00    +0.241 C 
ATOM     10  N   UNL     1       0.979  -2.027  -0.126  0.00  0.00    -0.210 NA
ATOM     11 CL   UNL     1       3.943  -0.825   0.203  0.00  0.00    -0.081 Cl
ATOM     12 CL   UNL     1       1.146   3.711   1.063  0.00  0.00    -0.083 Cl
ENDROOT
BRANCH   8  13
ATOM     13  N   UNL     1      -2.849   0.307   0.127  0.00  0.00    -0.218 N 
ATOM     14  H   UNL     1      -2.263   1.080   0.126  0.00  0.00    +0.176 HD
BRANCH  13  15
ATOM     15  C   UNL     1      -4.181   0.471   0.242  0.00  0.00    +0.150 C 
ATOM     16  S   UNL     1      -4.840   2.045   0.386  0.00  0.00    -0.017 S 
BRANCH  15  17
ATOM     17  N   UNL     1      -4.995  -0.603   0.244  0.00  0.00    -0.323 N 
ATOM     18  H   UNL     1      -4.622  -1.494   0.163  0.00  0.00    +0.148 HD
BRANCH  17  19
ATOM     19  C   UNL     1      -6.444  -0.424   0.369  0.00  0.00    +0.134 C 
BRANCH  19  20
ATOM     20  C   UNL     1      -7.131  -1.791   0.344  0.00  0.00    +0.135 C 
ATOM     21  C   UNL     1      -8.664  -1.607   0.353  0.00  0.00    +0.035 C 
ATOM     22  C   UNL     1      -9.127  -2.756   1.289  0.00  0.00    +0.031 C 
ATOM     23  C   UNL     1      -7.951  -2.808   2.296  0.00  0.00    +0.160 C 
ATOM     24  O   UNL     1      -6.775  -2.535   1.515  0.00  0.00    -0.375 OA
ENDBRANCH  19  20
ENDBRANCH  17  19
ENDBRANCH  15  17
ENDBRANCH  13  15
ENDBRANCH   8  13
BRANCH   9  25
ATOM     25  O   UNL     1      -0.837  -3.509  -0.481  0.00  0.00    -0.491 OA
ATOM     26  H   UNL     1      -0.184  -4.210  -0.608  0.00  0.00    +0.294 HD
ENDBRANCH   9  25
TORSDOF 6
