REMARK  Name = ZINC04881295
REMARK  10 active torsions:
REMARK  status: ('A' for Active; 'I' for Inactive)
REMARK    1  A    between atoms: C_1  and  C_2
REMARK    2  A    between atoms: C_9  and  C_27
REMARK    3  A    between atoms: N_11  and  C_12
REMARK    4  A    between atoms: C_12  and  C_13
REMARK    5  A    between atoms: C_13  and  N_14
REMARK    6  A    between atoms: C_15  and  C_17
REMARK    7  A    between atoms: C_20  and  O_25
REMARK    8  A    between atoms: C_21  and  O_23
REMARK    9  A    between atoms: O_23  and  C_24
REMARK   10  A    between atoms: O_25  and  C_26
REMARK                            x       y       z     vdW  Elec       q    Type
REMARK                         _______ _______ _______ _____ _____    ______ ____
ROOT
ATOM      1  C   UNL     1      -6.016   5.896   0.066  0.00  0.00    +0.044 C 
ATOM      2  C   UNL     1      -4.740   5.095   0.054  0.00  0.00    -0.050 A 
ATOM      3  C   UNL     1      -3.513   5.755   0.052  0.00  0.00    +0.005 A 
ATOM      4  C   UNL     1      -2.342   5.061   0.041  0.00  0.00    +0.026 A 
ATOM      5  C   UNL     1      -2.362   3.656   0.033  0.00  0.00    +0.048 A 
ATOM      6  C   UNL     1      -3.611   2.986   0.035  0.00  0.00    -0.000 A 
ATOM      7  C   UNL     1      -4.800   3.734   0.046  0.00  0.00    +0.013 A 
ATOM      8  C   UNL     1      -3.638   1.580   0.028  0.00  0.00    +0.032 A 
ATOM      9  C   UNL     1      -2.425   0.903   0.013  0.00  0.00    +0.090 A 
ATOM     10  C   UNL     1      -1.218   1.641   0.017  0.00  0.00    +0.114 A 
ATOM     11  N   UNL     1      -0.011   0.966   0.007  0.00  0.00    -0.328 N 
ATOM     12  H   UNL     1       0.002  -0.004   0.002  0.00  0.00    +0.147 HD
ATOM     13  N   UNL     1      -1.151   2.995   0.024  0.00  0.00    -0.342 N 
ATOM     14  H   UNL     1      -0.256   3.497   0.022  0.00  0.00    +0.167 HD
ENDROOT
BRANCH   9  15
ATOM     15  C   UNL     1      -2.397  -0.529  -0.002  0.00  0.00    +0.103 C 
ATOM     16  N   UNL     1      -2.375  -1.664  -0.013  0.00  0.00    -0.191 NA
ENDBRANCH   9  15
BRANCH  11  17
ATOM     17  C   UNL     1       1.248   1.716  -0.001  0.00  0.00    +0.121 C 
BRANCH  17  18
ATOM     18  C   UNL     1       2.424   0.737  -0.017  0.00  0.00    +0.123 C 
BRANCH  18  19
ATOM     19  N   UNL     1       3.682   1.487  -0.025  0.00  0.00    -0.310 N 
ATOM     20  C   UNL     1       4.859   0.829  -0.040  0.00  0.00    +0.244 C 
ATOM     21  O   UNL     1       4.875  -0.387  -0.047  0.00  0.00    -0.270 OA
ATOM     22  H   UNL     1       3.669   2.457  -0.020  0.00  0.00    +0.149 HD
BRANCH  20  23
ATOM     23  C   UNL     1       6.127   1.584  -0.048  0.00  0.00    +0.040 A 
ATOM     24  C   UNL     1       6.109   2.981  -0.046  0.00  0.00    +0.017 A 
ATOM     25  C   UNL     1       7.294   3.685  -0.049  0.00  0.00    +0.050 A 
ATOM     26  C   UNL     1       8.507   3.009  -0.064  0.00  0.00    +0.162 A 
ATOM     27  C   UNL     1       8.531   1.615  -0.071  0.00  0.00    +0.162 A 
ATOM     28  C   UNL     1       7.347   0.904  -0.063  0.00  0.00    +0.062 A 
BRANCH  27  29
ATOM     29  O   UNL     1       9.720   0.956  -0.086  0.00  0.00    -0.491 OA
ATOM     30  C   UNL     1       9.671  -0.472  -0.092  0.00  0.00    +0.277 C 
ENDBRANCH  27  29
BRANCH  26  31
ATOM     31  O   UNL     1       9.671   3.707  -0.071  0.00  0.00    -0.491 OA
ATOM     32  C   UNL     1       9.573   5.133  -0.063  0.00  0.00    +0.277 C 
ENDBRANCH  26  31
ENDBRANCH  20  23
ENDBRANCH  18  19
ENDBRANCH  17  18
ENDBRANCH  11  17
TORSDOF 7
