REMARK  Name = ZINC39532134
REMARK  12 active torsions:
REMARK  status: ('A' for Active; 'I' for Inactive)
REMARK    1  A    between atoms: C_1  and  C_2
REMARK    2  A    between atoms: C_2  and  C_3
REMARK    3  A    between atoms: C_6  and  C_9
REMARK    4  A    between atoms: C_9  and  C_11
REMARK    5  A    between atoms: C_9  and  N_19
REMARK    6  A    between atoms: C_11  and  N_12
REMARK    7  A    between atoms: N_12  and  S_13
REMARK    8  A    between atoms: S_13  and  C_16
REMARK    9  A    between atoms: C_16  and  C_17
REMARK   10  A    between atoms: C_16  and  C_18
REMARK   11  A    between atoms: C_23  and  C_26
REMARK   12  A    between atoms: C_31  and  O_32
REMARK                            x       y       z     vdW  Elec       q    Type
REMARK                         _______ _______ _______ _____ _____    ______ ____
ROOT
ATOM      1  C   UNL     1       2.684  -1.807   4.654  0.00  0.00    +0.102 C 
ENDROOT
BRANCH   1   2
ATOM      2  N   UNL     1       1.743  -2.702   5.340  0.00  0.00    -0.297 NA
ATOM      3  C   UNL     1       2.276  -3.131   6.640  0.00  0.00    +0.066 C 
ATOM      4  C   UNL     1       1.243  -4.011   7.347  0.00  0.00    -0.066 C 
ATOM      5  N   UNL     1       0.944  -5.181   6.511  0.00  0.00    +0.385 N 
ATOM      6  C   UNL     1       0.389  -4.738   5.225  0.00  0.00    -0.023 C 
ATOM      7  C   UNL     1       1.415  -3.863   4.501  0.00  0.00    +0.074 C 
ATOM      8  H   UNL     1       1.791  -5.705   6.349  0.00  0.00    -0.085 HD
ATOM      9  H   UNL     1       0.272  -5.768   6.982  0.00  0.00    -0.085 HD
BRANCH   6  10
ATOM     10  C   UNL     1       0.065  -5.940   4.376  0.00  0.00    -0.019 A 
ATOM     11  C   UNL     1       0.654  -7.159   4.651  0.00  0.00    +0.005 A 
ATOM     12  C   UNL     1       0.358  -8.262   3.872  0.00  0.00    +0.000 A 
ATOM     13  C   UNL     1      -0.529  -8.149   2.817  0.00  0.00    +0.004 A 
ATOM     14  C   UNL     1      -1.121  -6.932   2.538  0.00  0.00    +0.045 A 
ATOM     15  C   UNL     1      -0.829  -5.825   3.322  0.00  0.00    +0.118 A 
BRANCH  15  16
ATOM     16  O   UNL     1      -1.414  -4.628   3.053  0.00  0.00    -0.507 OA
ATOM     17  H   UNL     1      -0.917  -4.077   2.433  0.00  0.00    +0.292 HD
ENDBRANCH  15  16
ENDBRANCH   6  10
ENDBRANCH   1   2
BRANCH   1  21
ATOM     18  C   UNL     1       0.948  -0.450   0.994  0.00  0.00    -0.048 A 
ATOM     19  C   UNL     1       2.289  -0.782   1.042  0.00  0.00    +0.004 A 
ATOM     20  C   UNL     1       2.851  -1.221   2.226  0.00  0.00    +0.005 A 
ATOM     21  C   UNL     1       2.072  -1.327   3.363  0.00  0.00    -0.029 A 
ATOM     22  C   UNL     1       0.731  -0.995   3.316  0.00  0.00    +0.005 A 
ATOM     23  C   UNL     1       0.170  -0.552   2.132  0.00  0.00    +0.004 A 
BRANCH  18  25
ATOM     24  C   UNL     1       0.459   1.550  -0.387  0.00  0.00    +0.009 C 
ATOM     25  C   UNL     1       0.336   0.028  -0.297  0.00  0.00    +0.032 C 
ENDBRANCH  18  25
ENDBRANCH   1  21
BRANCH   1  26
ATOM     26  C   UNL     1       2.990  -0.605   5.550  0.00  0.00    +0.129 C 
BRANCH  26  27
ATOM     27  N   UNL     1       3.988   0.248   4.899  0.00  0.00    -0.192 NA
ATOM     28  H   UNL     1       4.515  -0.098   4.162  0.00  0.00    +0.148 HD
BRANCH  27  29
ATOM     29  S   UNL     1       4.216   1.802   5.423  0.00  0.00    +0.032 S 
ATOM     30  O   UNL     1       5.220   2.330   4.566  0.00  0.00    -0.158 OA
ATOM     31  O   UNL     1       2.914   2.371   5.449  0.00  0.00    -0.158 OA
BRANCH  29  32
ATOM     32  C   UNL     1       4.859   1.636   7.111  0.00  0.00    +0.142 C 
ATOM     33  C   UNL     1       6.172   0.851   7.081  0.00  0.00    +0.033 C 
ATOM     34  C   UNL     1       5.110   3.026   7.700  0.00  0.00    +0.033 C 
ENDBRANCH  29  32
ENDBRANCH  27  29
ENDBRANCH  26  27
ENDBRANCH   1  26
TORSDOF 9
