REMARK  Name = ZINC06644660
REMARK  5 active torsions:
REMARK  status: ('A' for Active; 'I' for Inactive)
REMARK    1  A    between atoms: N_6  and  C_7
REMARK    2  A    between atoms: C_7  and  C_9
REMARK    3  A    between atoms: C_7  and  C_17
REMARK    4  A    between atoms: C_12  and  C_15
REMARK    5  A    between atoms: C_26  and  O_27
REMARK                            x       y       z     vdW  Elec       q    Type
REMARK                         _______ _______ _______ _____ _____    ______ ____
ROOT
ATOM      1  C   UNL     1       4.748  -0.031   0.045  0.00  0.00    +0.136 C 
ENDROOT
BRANCH   1   2
ATOM      2  C   UNL     1       4.513   0.689   1.348  0.00  0.00    +0.021 A 
ATOM      3  C   UNL     1       3.246   0.666   1.925  0.00  0.00    +0.010 A 
ATOM      4  C   UNL     1       3.001   1.306   3.102  0.00  0.00    +0.010 A 
ATOM      5  C   UNL     1       4.038   2.001   3.746  0.00  0.00    +0.004 A 
ATOM      6  C   UNL     1       3.823   2.674   4.963  0.00  0.00    +0.011 A 
ATOM      7  C   UNL     1       4.878   3.328   5.533  0.00  0.00    +0.020 A 
ATOM      8  C   UNL     1       6.123   3.316   4.907  0.00  0.00    +0.111 A 
ATOM      9  N   UNL     1       6.319   2.688   3.774  0.00  0.00    -0.251 NA
ATOM     10  C   UNL     1       5.329   2.029   3.165  0.00  0.00    +0.113 A 
ATOM     11  C   UNL     1       5.547   1.350   1.948  0.00  0.00    +0.148 A 
BRANCH  11  12
ATOM     12  O   UNL     1       6.778   1.357   1.372  0.00  0.00    -0.504 OA
ATOM     13  H   UNL     1       6.923   2.093   0.762  0.00  0.00    +0.292 HD
ENDBRANCH  11  12
ENDBRANCH   1   2
BRANCH   1  19
ATOM     14  C   UNL     1       5.429  -3.785   1.793  0.00  0.00    +0.005 A 
ATOM     15  C   UNL     1       4.434  -4.750   1.718  0.00  0.00    +0.018 A 
ATOM     16  C   UNL     1       3.264  -4.463   1.043  0.00  0.00    +0.084 A 
ATOM     17  C   UNL     1       4.008  -2.342   0.521  0.00  0.00    +0.097 A 
ATOM     18  C   UNL     1       5.211  -2.563   1.185  0.00  0.00    +0.041 A 
ATOM     19  N   UNL     1       3.776  -1.118  -0.095  0.00  0.00    -0.320 N 
ATOM     20  H   UNL     1       2.970  -0.983  -0.617  0.00  0.00    +0.148 HD
ATOM     21  N   UNL     1       3.016  -3.274   0.433  0.00  0.00    -0.350 N 
ATOM     22  H   UNL     1       2.136  -3.088  -0.062  0.00  0.00    +0.166 HD
ENDBRANCH   1  19
BRANCH   1  23
ATOM     23  C   UNL     1       4.589   0.936  -1.099  0.00  0.00    -0.023 A 
ATOM     24  C   UNL     1       3.326   1.369  -1.464  0.00  0.00    +0.006 A 
ATOM     25  C   UNL     1       3.173   2.258  -2.507  0.00  0.00    +0.015 A 
ATOM     26  C   UNL     1       4.295   2.714  -3.203  0.00  0.00    +0.063 A 
ATOM     27  C   UNL     1       5.566   2.269  -2.832  0.00  0.00    +0.015 A 
ATOM     28  C   UNL     1       5.705   1.384  -1.784  0.00  0.00    +0.006 A 
BRANCH  26  29
ATOM     29  C   UNL     1       4.139   3.662  -4.325  0.00  0.00    +0.387 C 
ATOM     30  O   UNL     1       5.117   4.056  -4.928  0.00  0.00    -0.241 OA
ATOM     31  O   UNL     1       2.912   4.089  -4.679  0.00  0.00    -0.241 OA
ENDBRANCH  26  29
ENDBRANCH   1  23
TORSDOF 5
