REMARK  Name = ZINC08872926
REMARK  5 active torsions:
REMARK  status: ('A' for Active; 'I' for Inactive)
REMARK    1  A    between atoms: C_4  and  C_7
REMARK    2  A    between atoms: C_7  and  N_8
REMARK    3  A    between atoms: N_15  and  N_16
REMARK    4  A    between atoms: C_17  and  C_18
REMARK    5  A    between atoms: N_26  and  C_27
REMARK                            x       y       z     vdW  Elec       q    Type
REMARK                         _______ _______ _______ _____ _____    ______ ____
ROOT
ATOM      1  N   UNL     1       3.508  -2.861  -0.892  0.00  0.00    -0.309 N 
ATOM      2  C   UNL     1       4.818  -3.132  -1.230  0.00  0.00    +0.221 A 
ATOM      3  N   UNL     1       5.250  -2.893  -2.464  0.00  0.00    -0.181 NA
ATOM      4  C   UNL     1       6.512  -3.154  -2.790  0.00  0.00    +0.225 A 
ATOM      5  N   UNL     1       7.343  -3.655  -1.881  0.00  0.00    -0.179 NA
ATOM      6  C   UNL     1       6.911  -3.895  -0.647  0.00  0.00    +0.241 A 
ATOM      7  N   UNL     1       5.650  -3.629  -0.320  0.00  0.00    -0.180 NA
ATOM      8  N   UNL     1       7.774  -4.415   0.297  0.00  0.00    -0.205 N 
ATOM      9  N   UNL     1       6.960  -2.905  -4.073  0.00  0.00    -0.283 N 
ATOM     10  H   UNL     1       2.902  -2.495  -1.555  0.00  0.00    +0.149 HD
ATOM     11  H   UNL     1       7.442  -4.660   1.175  0.00  0.00    +0.177 HD
ATOM     12  H   UNL     1       7.908  -2.954  -4.274  0.00  0.00    +0.155 HD
ENDROOT
BRANCH   9  13
ATOM     13  C   UNL     1       6.047  -2.583  -5.082  0.00  0.00    +0.034 A 
ATOM     14  C   UNL     1       4.862  -1.932  -4.767  0.00  0.00    +0.023 A 
ATOM     15  C   UNL     1       3.965  -1.611  -5.766  0.00  0.00    +0.002 A 
ATOM     16  C   UNL     1       4.241  -1.946  -7.079  0.00  0.00    +0.000 A 
ATOM     17  C   UNL     1       5.418  -2.599  -7.396  0.00  0.00    +0.002 A 
ATOM     18  C   UNL     1       6.322  -2.919  -6.402  0.00  0.00    +0.023 A 
ENDBRANCH   9  13
BRANCH   8  19
ATOM     19  N   UNL     1       9.130  -4.589  -0.013  0.00  0.00    -0.187 NA
ATOM     20  C   UNL     1       9.959  -4.987   0.903  0.00  0.00    +0.141 C 
BRANCH  20  21
ATOM     21  C   UNL     1      11.401  -5.065   0.608  0.00  0.00    +0.031 A 
ATOM     22  C   UNL     1      11.896  -4.590  -0.610  0.00  0.00    +0.051 A 
ATOM     23  C   UNL     1      13.248  -4.662  -0.877  0.00  0.00    +0.021 A 
ATOM     24  C   UNL     1      14.112  -5.213   0.052  0.00  0.00    +0.003 A 
ATOM     25  C   UNL     1      13.630  -5.690   1.258  0.00  0.00    +0.021 A 
ATOM     26  C   UNL     1      12.280  -5.620   1.542  0.00  0.00    +0.051 A 
ATOM     27 CL   UNL     1      11.678  -6.221   3.055  0.00  0.00    -0.083 Cl
ATOM     28 CL   UNL     1      10.813  -3.904  -1.781  0.00  0.00    -0.083 Cl
ENDBRANCH  20  21
ENDBRANCH   8  19
BRANCH   1  29
ATOM     29  C   UNL     1       3.032  -3.125   0.468  0.00  0.00    +0.139 C 
BRANCH  29  33
ATOM     30  C   UNL     1      -1.090  -2.047   0.769  0.00  0.00    +0.000 A 
ATOM     31  C   UNL     1      -0.110  -1.113   1.046  0.00  0.00    +0.000 A 
ATOM     32  C   UNL     1       1.225  -1.462   0.948  0.00  0.00    +0.005 A 
ATOM     33  C   UNL     1       1.578  -2.745   0.575  0.00  0.00    -0.030 A 
ATOM     34  C   UNL     1       0.597  -3.679   0.299  0.00  0.00    +0.005 A 
ATOM     35  C   UNL     1      -0.737  -3.330   0.396  0.00  0.00    +0.000 A 
ENDBRANCH  29  33
ENDBRANCH   1  29
TORSDOF 5
