REMARK  Name = ZINC24663432
REMARK  3 active torsions:
REMARK  status: ('A' for Active; 'I' for Inactive)
REMARK    1  A    between atoms: C_11  and  C_13
REMARK    2  A    between atoms: C_13  and  N_14
REMARK    3  A    between atoms: C_18  and  C_21
REMARK                            x       y       z     vdW  Elec       q    Type
REMARK                         _______ _______ _______ _____ _____    ______ ____
ROOT
ATOM      1  N   UNL     1       6.055  -1.565  -0.069  0.00  0.00    -0.295 NA
ATOM      2  C   UNL     1       6.056  -0.802   1.186  0.00  0.00    +0.085 C 
ATOM      3  C   UNL     1       7.067   0.342   1.088  0.00  0.00    +0.016 C 
ATOM      4  C   UNL     1       8.459  -0.235   0.819  0.00  0.00    +0.015 C 
ATOM      5  C   UNL     1       8.420  -1.065  -0.467  0.00  0.00    +0.089 C 
ATOM      6  C   UNL     1       7.369  -2.168  -0.324  0.00  0.00    +0.097 C 
ENDROOT
BRANCH   5   7
ATOM      7  C   UNL     1       9.772  -1.685  -0.708  0.00  0.00    +0.201 A 
ATOM      8  N   UNL     1      10.367  -2.508   0.102  0.00  0.00    -0.213 NA
ATOM      9  C   UNL     1      11.565  -2.863  -0.435  0.00  0.00    +0.110 A 
ATOM     10  C   UNL     1      12.601  -3.700  -0.018  0.00  0.00    +0.031 A 
ATOM     11  C   UNL     1      13.716  -3.855  -0.811  0.00  0.00    +0.002 A 
ATOM     12  C   UNL     1      13.815  -3.184  -2.021  0.00  0.00    +0.004 A 
ATOM     13  C   UNL     1      12.800  -2.353  -2.446  0.00  0.00    +0.048 A 
ATOM     14  C   UNL     1      11.669  -2.187  -1.660  0.00  0.00    +0.155 A 
ATOM     15  O   UNL     1      10.532  -1.469  -1.793  0.00  0.00    -0.439 OA
ENDBRANCH   5   7
BRANCH   1  16
ATOM     16  C   UNL     1       4.999  -2.586  -0.063  0.00  0.00    +0.158 C 
BRANCH  16  27
ATOM     17  C   UNL     1      -0.017   1.373   0.010  0.00  0.00    +0.001 A 
ATOM     18  C   UNL     1       1.169   2.096   0.002  0.00  0.00    +0.002 A 
ATOM     19  C   UNL     1       2.387   1.453  -0.013  0.00  0.00    +0.028 A 
ATOM     20  C   UNL     1       2.432   0.058  -0.021  0.00  0.00    +0.078 A 
ATOM     21  C   UNL     1       1.224  -0.674  -0.013  0.00  0.00    +0.065 A 
ATOM     22  C   UNL     1       0.002  -0.004   0.002  0.00  0.00    +0.015 A 
ATOM     23  C   UNL     1       1.306  -2.142  -0.022  0.00  0.00    +0.259 A 
ATOM     24  O   UNL     1       0.302  -2.832  -0.017  0.00  0.00    -0.267 OA
ATOM     25  N   UNL     1       2.540  -2.697  -0.038  0.00  0.00    -0.309 N 
ATOM     26  H   UNL     1       2.633  -3.663  -0.045  0.00  0.00    +0.170 HD
ATOM     27  C   UNL     1       3.650  -1.914  -0.045  0.00  0.00    +0.124 A 
ATOM     28  N   UNL     1       3.609  -0.616  -0.037  0.00  0.00    -0.232 NA
ENDBRANCH  16  27
ENDBRANCH   1  16
TORSDOF 3
