REMARK  Name = ZINC20345277
REMARK  9 active torsions:
REMARK  status: ('A' for Active; 'I' for Inactive)
REMARK    1  A    between atoms: C_1  and  C_2
REMARK    2  A    between atoms: C_4  and  C_33
REMARK    3  A    between atoms: C_6  and  N_8
REMARK    4  A    between atoms: N_8  and  S_9
REMARK    5  A    between atoms: N_8  and  S_21
REMARK    6  A    between atoms: S_9  and  C_12
REMARK    7  A    between atoms: C_15  and  N_18
REMARK    8  A    between atoms: S_21  and  C_24
REMARK    9  A    between atoms: C_27  and  N_30
REMARK                            x       y       z     vdW  Elec       q    Type
REMARK                         _______ _______ _______ _____ _____    ______ ____
ROOT
ATOM      1  N   UNL     1       3.620  -0.649  -0.037  0.00  0.00    -0.069 N 
ENDROOT
BRANCH   1   7
ATOM      2  C   UNL     1      -1.005   0.285  -1.414  0.00  0.00    +0.044 C 
ATOM      3  C   UNL     1       0.265   0.690  -0.710  0.00  0.00    -0.048 A 
ATOM      4  C   UNL     1       0.341   1.917  -0.075  0.00  0.00    +0.006 A 
ATOM      5  C   UNL     1       1.503   2.293   0.572  0.00  0.00    -0.048 A 
ATOM      6  C   UNL     1       2.593   1.444   0.587  0.00  0.00    +0.030 A 
ATOM      7  C   UNL     1       2.520   0.211  -0.049  0.00  0.00    +0.077 A 
ATOM      8  C   UNL     1       1.350  -0.163  -0.699  0.00  0.00    +0.030 A 
ATOM      9  C   UNL     1       1.581   3.630   1.262  0.00  0.00    +0.044 C 
ENDBRANCH   1   7
BRANCH   1  10
ATOM     10  S   UNL     1       5.155  -0.030  -0.042  0.00  0.00    +0.093 S 
ATOM     11  O   UNL     1       5.975  -0.983  -0.704  0.00  0.00    -0.148 OA
ATOM     12  O   UNL     1       5.048   1.318  -0.479  0.00  0.00    -0.148 OA
BRANCH  10  13
ATOM     13  C   UNL     1       5.700   0.025   1.633  0.00  0.00    +0.111 A 
ATOM     14  C   UNL     1       5.474   1.155   2.397  0.00  0.00    +0.031 A 
ATOM     15  C   UNL     1       5.897   1.197   3.712  0.00  0.00    +0.034 A 
ATOM     16  C   UNL     1       6.556   0.112   4.260  0.00  0.00    +0.126 A 
ATOM     17  C   UNL     1       6.787  -1.016   3.495  0.00  0.00    +0.034 A 
ATOM     18  C   UNL     1       6.360  -1.059   2.181  0.00  0.00    +0.031 A 
BRANCH  16  19
ATOM     19  N   UNL     1       7.014   0.159   5.667  0.00  0.00    +0.056 N 
ATOM     20  O   UNL     1       7.595  -0.797   6.151  0.00  0.00    -0.126 OA
ATOM     21  O   UNL     1       6.811   1.153   6.341  0.00  0.00    -0.126 OA
ENDBRANCH  16  19
ENDBRANCH  10  13
ENDBRANCH   1  10
BRANCH   1  22
ATOM     22  S   UNL     1       3.388  -2.289  -0.016  0.00  0.00    +0.093 S 
ATOM     23  O   UNL     1       4.500  -2.848   0.670  0.00  0.00    -0.148 OA
ATOM     24  O   UNL     1       2.047  -2.504   0.402  0.00  0.00    -0.148 OA
BRANCH  22  25
ATOM     25  C   UNL     1       3.492  -2.850  -1.683  0.00  0.00    +0.111 A 
ATOM     26  C   UNL     1       2.353  -2.911  -2.464  0.00  0.00    +0.031 A 
ATOM     27  C   UNL     1       2.435  -3.347  -3.773  0.00  0.00    +0.034 A 
ATOM     28  C   UNL     1       3.654  -3.732  -4.298  0.00  0.00    +0.126 A 
ATOM     29  C   UNL     1       4.792  -3.676  -3.516  0.00  0.00    +0.034 A 
ATOM     30  C   UNL     1       4.711  -3.235  -2.208  0.00  0.00    +0.031 A 
BRANCH  28  31
ATOM     31  N   UNL     1       3.741  -4.204  -5.699  0.00  0.00    +0.056 N 
ATOM     32  O   UNL     1       4.816  -4.542  -6.162  0.00  0.00    -0.126 OA
ATOM     33  O   UNL     1       2.738  -4.253  -6.388  0.00  0.00    -0.126 OA
ENDBRANCH  28  31
ENDBRANCH  22  25
ENDBRANCH   1  22
TORSDOF 7
