REMARK  Name = ZINC60063549
REMARK  14 active torsions:
REMARK  status: ('A' for Active; 'I' for Inactive)
REMARK    1  A    between atoms: C_1  and  C_2
REMARK    2  A    between atoms: C_2  and  C_4
REMARK    3  A    between atoms: C_2  and  N_11
REMARK    4  A    between atoms: N_6  and  C_7
REMARK    5  A    between atoms: C_7  and  C_8
REMARK    6  A    between atoms: C_7  and  C_9
REMARK    7  A    between atoms: C_7  and  C_10
REMARK    8  A    between atoms: C_12  and  C_14
REMARK    9  A    between atoms: C_14  and  C_16
REMARK   10  A    between atoms: C_14  and  N_20
REMARK   11  A    between atoms: C_16  and  C_17
REMARK   12  A    between atoms: C_17  and  C_18
REMARK   13  A    between atoms: C_17  and  C_19
REMARK   14  A    between atoms: C_21  and  C_23
REMARK                            x       y       z     vdW  Elec       q    Type
REMARK                         _______ _______ _______ _____ _____    ______ ____
ROOT
ATOM      1  C   UNL     1       0.988  -1.162  -3.359  0.00  0.00    +0.159 C 
ENDROOT
BRANCH   1   3
ATOM      2  N   UNL     1       0.964  -0.459  -0.987  0.00  0.00    -0.303 N 
ATOM      3  C   UNL     1       0.302  -0.566  -2.156  0.00  0.00    +0.234 C 
ATOM      4  O   UNL     1      -0.845  -0.182  -2.241  0.00  0.00    -0.274 OA
ATOM      5  H   UNL     1       1.882  -0.766  -0.920  0.00  0.00    +0.149 HD
BRANCH   2   7
ATOM      6  C   UNL     1       0.426   1.645   0.138  0.00  0.00    +0.038 C 
ATOM      7  C   UNL     1       0.298   0.121   0.182  0.00  0.00    +0.156 C 
BRANCH   7   8
ATOM      8  C   UNL     1       0.944  -0.402   1.439  0.00  0.00    +0.233 C 
ATOM      9  O   UNL     1       1.869  -1.182   1.366  0.00  0.00    -0.274 OA
ATOM     10  N   UNL     1       0.492  -0.003   2.644  0.00  0.00    -0.309 N 
ATOM     11  H   UNL     1      -0.248   0.621   2.703  0.00  0.00    +0.149 HD
BRANCH  10  12
ATOM     12  C   UNL     1       1.120  -0.511   3.867  0.00  0.00    +0.026 C 
ATOM     13  C   UNL     1       2.600  -0.123   3.879  0.00  0.00    +0.031 C 
ATOM     14  C   UNL     1       0.424   0.095   5.087  0.00  0.00    +0.031 C 
ATOM     15  C   UNL     1       0.992  -2.035   3.910  0.00  0.00    +0.031 C 
ENDBRANCH  10  12
ENDBRANCH   7   8
ENDBRANCH   2   7
ENDBRANCH   1   3
BRANCH   1  16
ATOM     16  N   UNL     1       0.069  -1.150  -4.500  0.00  0.00    -0.300 N 
ATOM     17  C   UNL     1       0.557  -1.138  -5.757  0.00  0.00    +0.246 C 
ATOM     18  O   UNL     1       1.754  -1.231  -5.945  0.00  0.00    -0.270 OA
ATOM     19  H   UNL     1      -0.889  -1.151  -4.352  0.00  0.00    +0.150 HD
BRANCH  17  20
ATOM     20  C   UNL     1      -0.364  -1.011  -6.905  0.00  0.00    +0.055 A 
ATOM     21  C   UNL     1      -1.740  -0.897  -6.691  0.00  0.00    +0.016 A 
ATOM     22  C   UNL     1      -2.594  -0.779  -7.766  0.00  0.00    +0.021 A 
ATOM     23  C   UNL     1      -2.092  -0.773  -9.058  0.00  0.00    +0.042 A 
ATOM     24  C   UNL     1      -0.730  -0.885  -9.277  0.00  0.00    +0.040 A 
ATOM     25  C   UNL     1       0.138  -0.998  -8.209  0.00  0.00    +0.054 A 
ATOM     26 CL   UNL     1       1.846  -1.131  -8.485  0.00  0.00    -0.083 Cl
ATOM     27 CL   UNL     1      -3.175  -0.625 -10.406  0.00  0.00    -0.083 Cl
ENDBRANCH  17  20
ENDBRANCH   1  16
BRANCH   1  28
ATOM     28  C   UNL     1       1.398  -2.603  -3.049  0.00  0.00    +0.034 C 
BRANCH  28  29
ATOM     29  C   UNL     1       0.145  -3.462  -2.865  0.00  0.00    -0.015 C 
ATOM     30  C   UNL     1       0.546  -4.935  -2.770  0.00  0.00    +0.007 C 
ATOM     31  C   UNL     1      -0.575  -3.045  -1.581  0.00  0.00    +0.007 C 
ENDBRANCH  28  29
ENDBRANCH   1  28
TORSDOF 8
