REMARK  Name = ZINC40680615
REMARK  6 active torsions:
REMARK  status: ('A' for Active; 'I' for Inactive)
REMARK    1  A    between atoms: C_3  and  N_22
REMARK    2  A    between atoms: C_6  and  C_7
REMARK    3  A    between atoms: C_10  and  N_21
REMARK    4  A    between atoms: C_11  and  C_12
REMARK    5  A    between atoms: C_12  and  O_14
REMARK    6  A    between atoms: O_14  and  C_15
REMARK                            x       y       z     vdW  Elec       q    Type
REMARK                         _______ _______ _______ _____ _____    ______ ____
ROOT
ATOM      1  C   UNL     1      -1.270  -0.765   0.011  0.00  0.00    +0.005 A 
ATOM      2  C   UNL     1      -2.264  -0.506   0.897  0.00  0.00    +0.056 A 
ATOM      3  S   UNL     1      -3.520  -1.688   0.462  0.00  0.00    -0.081 S 
ATOM      4  C   UNL     1      -2.767  -2.472  -0.815  0.00  0.00    +0.078 A 
ATOM      5  C   UNL     1      -1.539  -1.837  -0.934  0.00  0.00    +0.095 A 
ENDROOT
BRANCH   1  11
ATOM      6  C   UNL     1      -0.017   1.390   0.010  0.00  0.00    +0.011 A 
ATOM      7  C   UNL     1       1.170   2.094   0.002  0.00  0.00    +0.033 A 
ATOM      8  C   UNL     1       2.378   1.418  -0.013  0.00  0.00    +0.126 A 
ATOM      9  C   UNL     1       2.403   0.035  -0.021  0.00  0.00    +0.033 A 
ATOM     10  C   UNL     1       1.222  -0.679  -0.014  0.00  0.00    +0.011 A 
ATOM     11  C   UNL     1       0.002  -0.004   0.002  0.00  0.00    -0.016 A 
BRANCH   8  12
ATOM     12  N   UNL     1       3.648   2.179  -0.022  0.00  0.00    +0.056 N 
ATOM     13  O   UNL     1       3.629   3.388  -0.016  0.00  0.00    -0.126 OA
ATOM     14  O   UNL     1       4.704   1.591  -0.036  0.00  0.00    -0.126 OA
ENDBRANCH   8  12
ENDBRANCH   1  11
BRANCH   4  15
ATOM     15  N   UNL     1      -3.260  -3.512  -1.579  0.00  0.00    -0.352 N 
ATOM     16  H   UNL     1      -4.143  -3.870  -1.398  0.00  0.00    +0.143 HD
ATOM     17  H   UNL     1      -2.723  -3.884  -2.296  0.00  0.00    +0.143 HD
ENDBRANCH   4  15
BRANCH   5  18
ATOM     18  C   UNL     1      -0.595  -2.216  -1.922  0.00  0.00    +0.342 C 
ATOM     19  O   UNL     1       0.231  -3.075  -1.676  0.00  0.00    -0.245 OA
BRANCH  18  20
ATOM     20  O   UNL     1      -0.613  -1.625  -3.134  0.00  0.00    -0.458 OA
BRANCH  20  21
ATOM     21  C   UNL     1       0.367  -2.056  -4.081  0.00  0.00    +0.177 C 
ATOM     22  C   UNL     1      -0.193  -3.221  -4.899  0.00  0.00    +0.044 C 
ATOM     23  C   UNL     1       0.857  -3.683  -5.913  0.00  0.00    +0.004 C 
ATOM     24  C   UNL     1       1.206  -2.524  -6.849  0.00  0.00    +0.000 C 
ATOM     25  C   UNL     1       1.766  -1.359  -6.030  0.00  0.00    +0.004 C 
ATOM     26  C   UNL     1       0.717  -0.897  -5.017  0.00  0.00    +0.044 C 
ENDBRANCH  20  21
ENDBRANCH  18  20
ENDBRANCH   5  18
TORSDOF 6
