REMARK  Name = ZINC08635967
REMARK  10 active torsions:
REMARK  status: ('A' for Active; 'I' for Inactive)
REMARK    1  A    between atoms: C_1  and  O_2
REMARK    2  A    between atoms: O_2  and  C_3
REMARK    3  A    between atoms: C_8  and  N_9
REMARK    4  A    between atoms: C_14  and  C_15
REMARK    5  A    between atoms: C_14  and  N_70
REMARK    6  A    between atoms: C_23  and  C_25
REMARK    7  A    between atoms: C_25  and  N_26
REMARK    8  A    between atoms: N_26  and  C_27
REMARK    9  A    between atoms: C_27  and  N_29
REMARK   10  A    between atoms: N_29  and  C_30
REMARK                            x       y       z     vdW  Elec       q    Type
REMARK                         _______ _______ _______ _____ _____    ______ ____
ROOT
ATOM      1  C   UNL     1      -2.528   2.816  -0.214  0.00  0.00    -0.041 C 
ATOM      2  C   UNL     1      -2.339   1.910  -1.455  0.00  0.00    -0.076 C 
ATOM      3  C   UNL     1      -0.116   1.270  -0.736  0.00  0.00    -0.078 C 
ATOM      4  C   UNL     1      -0.232   2.141   0.518  0.00  0.00    -0.015 C 
ATOM      5  C   UNL     1      -1.147   3.333   0.209  0.00  0.00    -0.015 C 
ATOM      6  C   UNL     1      -0.542   4.124  -0.958  0.00  0.00    -0.010 C 
ATOM      7  C   UNL     1      -0.417   3.198  -2.171  0.00  0.00    -0.051 C 
ATOM      8  N   UNL     1      -0.913   1.845  -1.841  0.00  0.00    +0.383 N 
ATOM      9  H   UNL     1      -0.818   1.244  -2.668  0.00  0.00    -0.081 HD
ENDROOT
BRANCH   1  10
ATOM     10  C   UNL     1      -3.440   3.999  -0.544  0.00  0.00    -0.077 C 
BRANCH  10  16
ATOM     11  N   UNL     1      -7.602   3.394  -0.943  0.00  0.00    -0.331 N 
ATOM     12  C   UNL     1      -6.807   2.325  -0.322  0.00  0.00    +0.086 C 
ATOM     13  C   UNL     1      -5.477   2.902   0.170  0.00  0.00    -0.060 C 
ATOM     14  C   UNL     1      -5.552   4.570  -1.583  0.00  0.00    -0.060 C 
ATOM     15  C   UNL     1      -6.881   3.993  -2.075  0.00  0.00    +0.086 C 
ATOM     16  N   UNL     1      -4.753   3.480  -0.981  0.00  0.00    +0.382 N 
ATOM     17  H   UNL     1      -4.605   2.748  -1.685  0.00  0.00    -0.082 HD
BRANCH  11  23
ATOM     18  C   UNL     1      -9.785   2.513  -0.386  0.00  0.00    +0.141 A 
ATOM     19  C   UNL     1     -11.025   2.044  -0.786  0.00  0.00    +0.047 A 
ATOM     20  C   UNL     1     -11.340   1.980  -2.131  0.00  0.00    +0.004 A 
ATOM     21  C   UNL     1     -10.418   2.383  -3.080  0.00  0.00    +0.002 A 
ATOM     22  C   UNL     1      -9.180   2.857  -2.689  0.00  0.00    +0.027 A 
ATOM     23  C   UNL     1      -8.856   2.919  -1.341  0.00  0.00    +0.072 A 
BRANCH  18  25
ATOM     24  C   UNL     1     -10.477   2.144   1.860  0.00  0.00    +0.277 C 
ATOM     25  O   UNL     1      -9.475   2.578   0.937  0.00  0.00    -0.493 OA
ENDBRANCH  18  25
ENDBRANCH  11  23
ENDBRANCH  10  16
ENDBRANCH   1  10
BRANCH   7  26
ATOM     26  C   UNL     1      -1.243   3.760  -3.330  0.00  0.00    +0.088 C 
BRANCH  26  27
ATOM     27  N   UNL     1      -1.222   2.814  -4.448  0.00  0.00    -0.328 N 
ATOM     28  H   UNL     1      -0.730   1.982  -4.370  0.00  0.00    +0.148 HD
BRANCH  27  29
ATOM     29  C   UNL     1      -1.887   3.100  -5.585  0.00  0.00    +0.134 C 
ATOM     30  S   UNL     1      -2.755   4.569  -5.723  0.00  0.00    -0.019 S 
BRANCH  29  31
ATOM     31  N   UNL     1      -1.868   2.230  -6.614  0.00  0.00    -0.297 N 
ATOM     32  H   UNL     1      -1.327   1.426  -6.560  0.00  0.00    +0.154 HD
BRANCH  31  33
ATOM     33  C   UNL     1      -2.628   2.485  -7.761  0.00  0.00    +0.033 A 
ATOM     34  C   UNL     1      -3.383   1.471  -8.335  0.00  0.00    +0.023 A 
ATOM     35  C   UNL     1      -4.136   1.728  -9.464  0.00  0.00    +0.002 A 
ATOM     36  C   UNL     1      -4.130   2.990 -10.029  0.00  0.00    +0.000 A 
ATOM     37  C   UNL     1      -3.374   4.001  -9.462  0.00  0.00    +0.002 A 
ATOM     38  C   UNL     1      -2.624   3.752  -8.330  0.00  0.00    +0.023 A 
ENDBRANCH  31  33
ENDBRANCH  29  31
ENDBRANCH  27  29
ENDBRANCH  26  27
ENDBRANCH   7  26
TORSDOF 9
