REMARK  Name = ZINC51361837
REMARK  4 active torsions:
REMARK  status: ('A' for Active; 'I' for Inactive)
REMARK    1  A    between atoms: C_1  and  N_2
REMARK    2  A    between atoms: C_6  and  C_12
REMARK    3  A    between atoms: C_12  and  C_14
REMARK    4  A    between atoms: C_12  and  N_20
REMARK                            x       y       z     vdW  Elec       q    Type
REMARK                         _______ _______ _______ _____ _____    ______ ____
ROOT
ATOM      1  C   UNL     1      -0.018   1.461   0.010  0.00  0.00    +0.156 C 
ATOM      2  N   UNL     1       0.002  -0.004   0.002  0.00  0.00    -0.277 N 
ATOM      3  C   UNL     1      -1.111  -0.844   0.003  0.00  0.00    +0.090 A 
ATOM      4  C   UNL     1      -2.478  -0.613   0.010  0.00  0.00    +0.030 A 
ATOM      5  C   UNL     1      -3.355  -1.680   0.009  0.00  0.00    +0.004 A 
ATOM      6  C   UNL     1      -2.873  -2.977   0.000  0.00  0.00    -0.054 A 
ATOM      7  C   UNL     1      -1.513  -3.215  -0.008  0.00  0.00    +0.051 A 
ATOM      8  C   UNL     1      -0.625  -2.151  -0.007  0.00  0.00    +0.157 A 
ATOM      9  O   UNL     1       0.729  -2.076  -0.013  0.00  0.00    -0.407 OA
ATOM     10  C   UNL     1       1.100  -0.786  -0.013  0.00  0.00    +0.421 A 
ATOM     11  O   UNL     1       2.248  -0.385  -0.022  0.00  0.00    -0.223 OA
ENDROOT
BRANCH   6  12
ATOM     12  C   UNL     1      -3.837  -4.135  -0.000  0.00  0.00    -0.006 C 
BRANCH  12  13
ATOM     13  C   UNL     1      -4.341  -4.370   1.401  0.00  0.00    -0.019 A 
ATOM     14  C   UNL     1      -3.939  -5.293   2.308  0.00  0.00    +0.011 A 
ATOM     15  C   UNL     1      -4.551  -5.325   3.548  0.00  0.00    +0.023 A 
ATOM     16  C   UNL     1      -5.535  -4.432   3.818  0.00  0.00    +0.055 A 
ATOM     17  S   UNL     1      -5.616  -3.500   2.297  0.00  0.00    -0.088 S 
ATOM     18 BR   UNL     1      -6.552  -4.223   5.399  0.00  0.00    -0.043 Br
ENDBRANCH  12  13
BRANCH  12  19
ATOM     19  N   UNL     1      -4.971  -3.829  -0.883  0.00  0.00    +0.386 N 
ATOM     20  H   UNL     1      -4.633  -3.671  -1.821  0.00  0.00    -0.089 HD
ATOM     21  H   UNL     1      -5.616  -4.604  -0.883  0.00  0.00    -0.089 HD
ATOM     22  H   UNL     1      -5.441  -3.000  -0.551  0.00  0.00    -0.089 HD
ENDBRANCH  12  19
ENDBRANCH   6  12
TORSDOF 3
