REMARK  Name = ZINC49308482
REMARK  8 active torsions:
REMARK  status: ('A' for Active; 'I' for Inactive)
REMARK    1  A    between atoms: C_1  and  C_2
REMARK    2  A    between atoms: C_2  and  C_4
REMARK    3  A    between atoms: C_2  and  N_7
REMARK    4  A    between atoms: C_4  and  C_5
REMARK    5  A    between atoms: C_4  and  C_6
REMARK    6  A    between atoms: C_8  and  C_10
REMARK    7  A    between atoms: C_10  and  N_11
REMARK    8  A    between atoms: C_17  and  N_22
REMARK                            x       y       z     vdW  Elec       q    Type
REMARK                         _______ _______ _______ _____ _____    ______ ____
ROOT
ATOM      1  N   UNL     1      -0.240  -1.150  -4.711  0.00  0.00    -0.290 N 
ATOM      2  C   UNL     1      -0.949  -2.288  -4.935  0.00  0.00    +0.203 A 
ATOM      3  N   UNL     1      -1.809  -2.416  -5.898  0.00  0.00    -0.237 NA
ATOM      4  C   UNL     1      -2.063  -1.403  -6.764  0.00  0.00    +0.078 A 
ATOM      5  C   UNL     1      -2.990  -1.541  -7.801  0.00  0.00    +0.030 A 
ATOM      6  C   UNL     1      -3.220  -0.498  -8.652  0.00  0.00    +0.025 A 
ATOM      7  C   UNL     1      -2.540   0.711  -8.504  0.00  0.00    +0.025 A 
ATOM      8  C   UNL     1      -1.616   0.875  -7.485  0.00  0.00    +0.038 A 
ATOM      9  C   UNL     1      -1.373  -0.180  -6.609  0.00  0.00    +0.067 A 
ATOM     10  C   UNL     1      -0.409  -0.067  -5.504  0.00  0.00    +0.262 A 
ATOM     11  O   UNL     1       0.215   0.961  -5.313  0.00  0.00    -0.267 OA
ENDROOT
BRANCH   7  12
ATOM     12  N   UNL     1      -2.793   1.763  -9.389  0.00  0.00    -0.358 N 
ATOM     13  H   UNL     1      -3.439   1.651 -10.103  0.00  0.00    +0.142 HD
ATOM     14  H   UNL     1      -2.322   2.605  -9.288  0.00  0.00    +0.142 HD
ENDBRANCH   7  12
BRANCH   1  15
ATOM     15  C   UNL     1       0.712  -1.094  -3.598  0.00  0.00    +0.221 C 
BRANCH  15  17
ATOM     16  N   UNL     1       0.688  -0.476  -1.203  0.00  0.00    -0.311 N 
ATOM     17  C   UNL     1       0.006  -0.608  -2.358  0.00  0.00    +0.233 C 
ATOM     18  O   UNL     1      -1.175  -0.336  -2.400  0.00  0.00    -0.274 OA
ATOM     19  H   UNL     1       1.632  -0.695  -1.170  0.00  0.00    +0.149 HD
BRANCH  16  21
ATOM     20  C   UNL     1      -0.019   1.526   0.010  0.00  0.00    +0.028 C 
ATOM     21  C   UNL     1       0.002  -0.004   0.002  0.00  0.00    +0.072 C 
BRANCH  21  22
ATOM     22  C   UNL     1       0.742  -0.511   1.242  0.00  0.00    +0.003 C 
ATOM     23  C   UNL     1       2.136   0.118   1.296  0.00  0.00    +0.009 C 
ATOM     24  C   UNL     1      -0.042  -0.124   2.497  0.00  0.00    +0.009 C 
ENDBRANCH  21  22
ENDBRANCH  16  21
ENDBRANCH  15  17
ENDBRANCH   1  15
TORSDOF 5
