REMARK  Name = ZINC22619207
REMARK  11 active torsions:
REMARK  status: ('A' for Active; 'I' for Inactive)
REMARK    1  A    between atoms: C_1  and  C_2
REMARK    2  A    between atoms: C_2  and  C_4
REMARK    3  A    between atoms: C_7  and  S_10
REMARK    4  A    between atoms: S_10  and  N_13
REMARK    5  A    between atoms: N_13  and  C_14
REMARK    6  A    between atoms: C_14  and  C_15
REMARK    7  A    between atoms: C_15  and  C_16
REMARK    8  A    between atoms: N_18  and  C_19
REMARK    9  A    between atoms: C_19  and  C_20
REMARK   10  A    between atoms: C_20  and  C_22
REMARK   11  A    between atoms: C_20  and  N_29
REMARK                            x       y       z     vdW  Elec       q    Type
REMARK                         _______ _______ _______ _____ _____    ______ ____
ROOT
ATOM      1  C   UNL     1      -2.262   5.269  -2.978  0.00  0.00    +0.214 C 
ATOM      2  O   UNL     1      -2.001   6.169  -2.208  0.00  0.00    -0.276 OA
ATOM      3  N   UNL     1      -2.591   5.549  -4.255  0.00  0.00    -0.317 N 
ATOM      4  H   UNL     1      -2.828   4.733  -4.954  0.00  0.00    +0.149 HD
ENDROOT
BRANCH   1   5
ATOM      5  C   UNL     1      -2.219   3.838  -2.508  0.00  0.00    +0.112 C 
BRANCH   5   6
ATOM      6  C   UNL     1      -1.822   3.799  -1.031  0.00  0.00    +0.115 C 
BRANCH   6   7
ATOM      7  N   UNL     1      -1.780   2.407  -0.573  0.00  0.00    -0.189 NA
ATOM      8  H   UNL     1      -2.381   1.642  -1.085  0.00  0.00    +0.148 HD
BRANCH   7   9
ATOM      9  S   UNL     1      -1.031   2.027   0.854  0.00  0.00    +0.058 S 
ATOM     10  O   UNL     1      -1.181   0.625   1.031  0.00  0.00    -0.153 OA
ATOM     11  O   UNL     1       0.241   2.660   0.826  0.00  0.00    -0.153 OA
BRANCH   9  15
ATOM     12  C   UNL     1      -3.392   4.011   4.176  0.00  0.00    +0.017 A 
ATOM     13  C   UNL     1      -3.716   2.716   3.759  0.00  0.00    +0.013 A 
ATOM     14  C   UNL     1      -2.993   2.119   2.748  0.00  0.00    +0.029 A 
ATOM     15  C   UNL     1      -1.949   2.799   2.145  0.00  0.00    +0.105 A 
ATOM     16  C   UNL     1      -1.618   4.079   2.555  0.00  0.00    +0.029 A 
ATOM     17  C   UNL     1      -2.335   4.691   3.562  0.00  0.00    +0.013 A 
BRANCH  12  19
ATOM     18  C   UNL     1      -3.805   6.051   5.699  0.00  0.00    +0.091 C 
ATOM     19  C   UNL     1      -4.159   4.656   5.254  0.00  0.00    +0.160 C 
ATOM     20  O   UNL     1      -5.074   4.064   5.784  0.00  0.00    -0.292 OA
ENDBRANCH  12  19
ENDBRANCH   9  15
ENDBRANCH   7   9
ENDBRANCH   6   7
ENDBRANCH   5   6
ENDBRANCH   1   5
BRANCH   3  21
ATOM     21  C   UNL     1      -2.633   6.940  -4.713  0.00  0.00    +0.093 C 
BRANCH  21  22
ATOM     22  C   UNL     1      -2.902   6.974  -6.218  0.00  0.00    -0.019 C 
BRANCH  22  23
ATOM     23  C   UNL     1      -1.741   6.352  -6.950  0.00  0.00    -0.041 A 
ATOM     24  C   UNL     1      -1.823   5.045  -7.393  0.00  0.00    +0.003 A 
ATOM     25  C   UNL     1      -0.759   4.475  -8.068  0.00  0.00    +0.000 A 
ATOM     26  C   UNL     1       0.390   5.209  -8.293  0.00  0.00    +0.001 A 
ATOM     27  C   UNL     1       0.475   6.514  -7.846  0.00  0.00    +0.020 A 
ATOM     28  C   UNL     1      -0.591   7.087  -7.174  0.00  0.00    +0.043 A 
ATOM     29 CL   UNL     1      -0.484   8.726  -6.613  0.00  0.00    -0.083 Cl
ENDBRANCH  22  23
BRANCH  22  30
ATOM     30  N   UNL     1      -4.128   6.220  -6.514  0.00  0.00    +0.385 N 
ATOM     31  C   UNL     1      -5.271   6.727  -5.712  0.00  0.00    -0.078 C 
ATOM     32  C   UNL     1      -6.507   6.223  -6.500  0.00  0.00    -0.020 C 
ATOM     33  C   UNL     1      -6.062   6.372  -7.973  0.00  0.00    -0.020 C 
ATOM     34  C   UNL     1      -4.523   6.385  -7.929  0.00  0.00    -0.078 C 
ATOM     35  H   UNL     1      -3.897   5.170  -6.279  0.00  0.00    -0.081 HD
ENDBRANCH  22  30
ENDBRANCH  21  22
ENDBRANCH   3  21
TORSDOF 10
