REMARK  Name = ZINC08876677
REMARK  3 active torsions:
REMARK  status: ('A' for Active; 'I' for Inactive)
REMARK    1  A    between atoms: C_1  and  C_2
REMARK    2  A    between atoms: C_22  and  C_29
REMARK    3  A    between atoms: C_29  and  C_31
REMARK                            x       y       z     vdW  Elec       q    Type
REMARK                         _______ _______ _______ _____ _____    ______ ____
ROOT
ATOM      1  C   UNL     1       6.806  10.973   0.275  0.00  0.00    +0.046 C 
ATOM      2  C   UNL     1       5.468  10.356   0.591  0.00  0.00    -0.028 A 
ATOM      3  C   UNL     1       4.609  10.987   1.467  0.00  0.00    +0.025 A 
ATOM      4  C   UNL     1       3.378  10.428   1.763  0.00  0.00    +0.042 A 
ATOM      5  C   UNL     1       3.007   9.229   1.177  0.00  0.00    +0.024 A 
ATOM      6  C   UNL     1       3.862   8.597   0.302  0.00  0.00    -0.025 A 
ATOM      7  C   UNL     1       5.102   9.150  -0.003  0.00  0.00    +0.039 A 
ATOM      8  N   UNL     1       5.785   8.333  -0.906  0.00  0.00    -0.286 N 
ATOM      9  C   UNL     1       5.075   7.240  -1.240  0.00  0.00    +0.212 C 
ATOM     10  O   UNL     1       5.418   6.360  -2.001  0.00  0.00    -0.277 OA
ATOM     11  C   UNL     1       3.772   7.319  -0.487  0.00  0.00    +0.060 C 
ATOM     12  C   UNL     1       3.585   6.112   0.425  0.00  0.00    +0.085 C 
ATOM     13  C   UNL     1       4.746   5.161   0.348  0.00  0.00    -0.011 A 
ATOM     14  C   UNL     1       5.327   4.457  -0.683  0.00  0.00    +0.006 A 
ATOM     15  C   UNL     1       6.416   3.640  -0.436  0.00  0.00    +0.000 A 
ATOM     16  C   UNL     1       6.919   3.533   0.848  0.00  0.00    +0.002 A 
ATOM     17  C   UNL     1       6.340   4.237   1.883  0.00  0.00    +0.023 A 
ATOM     18  C   UNL     1       5.243   5.061   1.644  0.00  0.00    +0.038 A 
ATOM     19  N   UNL     1       4.496   5.861   2.511  0.00  0.00    -0.285 N 
ATOM     20  C   UNL     1       3.502   6.511   1.874  0.00  0.00    +0.228 C 
ATOM     21  O   UNL     1       2.698   7.270   2.371  0.00  0.00    -0.275 OA
ATOM     22  C   UNL     1       2.281   5.438  -0.038  0.00  0.00    +0.066 C 
ATOM     23  C   UNL     1       2.132   5.941  -1.497  0.00  0.00    -0.055 C 
ATOM     24  C   UNL     1       1.508   8.105  -0.808  0.00  0.00    -0.076 C 
ATOM     25  C   UNL     1       0.230   7.480  -1.401  0.00  0.00    -0.020 C 
ATOM     26  C   UNL     1       0.640   6.059  -1.835  0.00  0.00    -0.016 C 
ATOM     27 CL   UNL     1       2.303  11.227   2.867  0.00  0.00    -0.084 Cl
ATOM     28  H   UNL     1       6.670   8.531  -1.253  0.00  0.00    +0.155 HD
ATOM     29  H   UNL     1       4.671   5.939   3.462  0.00  0.00    +0.155 HD
ATOM     30  N   UNL     1       2.600   7.312  -1.388  0.00  0.00    +0.395 N 
ATOM     31  H   UNL     1       2.858   7.683  -2.310  0.00  0.00    -0.079 HD
ENDROOT
BRANCH  22  32
ATOM     32  C   UNL     1       2.413   3.937  -0.001  0.00  0.00    +0.166 C 
ATOM     33  O   UNL     1       2.751   3.333  -0.997  0.00  0.00    -0.292 OA
BRANCH  32  34
ATOM     34  C   UNL     1       2.131   3.204   1.244  0.00  0.00    +0.018 A 
ATOM     35  C   UNL     1       2.365   1.827   1.317  0.00  0.00    +0.011 A 
ATOM     36  C   UNL     1       2.097   1.147   2.486  0.00  0.00    +0.001 A 
ATOM     37  C   UNL     1       1.594   1.823   3.584  0.00  0.00    +0.000 A 
ATOM     38  C   UNL     1       1.365   3.186   3.522  0.00  0.00    +0.001 A 
ATOM     39  C   UNL     1       1.627   3.880   2.359  0.00  0.00    +0.011 A 
ENDBRANCH  32  34
ENDBRANCH  22  32
TORSDOF 2
