REMARK  Name = ZINC13495232
REMARK  10 active torsions:
REMARK  status: ('A' for Active; 'I' for Inactive)
REMARK    1  A    between atoms: C_1  and  C_2
REMARK    2  A    between atoms: C_2  and  C_3
REMARK    3  A    between atoms: C_3  and  C_5
REMARK    4  A    between atoms: C_3  and  N_16
REMARK    5  A    between atoms: N_9  and  C_10
REMARK    6  A    between atoms: N_16  and  C_17
REMARK    7  A    between atoms: N_16  and  C_27
REMARK    8  A    between atoms: C_17  and  C_18
REMARK    9  A    between atoms: C_27  and  C_28
REMARK   10  A    between atoms: C_32  and  C_40
REMARK                            x       y       z     vdW  Elec       q    Type
REMARK                         _______ _______ _______ _____ _____    ______ ____
ROOT
ATOM      1  N   UNL     1       2.550  -0.336   1.118  0.00  0.00    -0.284 NA
ENDROOT
BRANCH   1   2
ATOM      2  C   UNL     1       1.413  -1.247   1.305  0.00  0.00    +0.127 C 
BRANCH   2   3
ATOM      3  C   UNL     1       1.912  -2.668   1.359  0.00  0.00    +0.169 A 
ATOM      4  N   UNL     1       2.795  -3.218   0.561  0.00  0.00    -0.112 NA
ATOM      5  N   UNL     1       2.955  -4.443   0.928  0.00  0.00    -0.023 NA
ATOM      6  N   UNL     1       2.196  -4.688   1.939  0.00  0.00    -0.044 NA
ATOM      7  N   UNL     1       1.542  -3.618   2.238  0.00  0.00    -0.225 N 
BRANCH   7   8
ATOM      8  C   UNL     1       0.574  -3.465   3.327  0.00  0.00    +0.111 C 
ATOM      9  C   UNL     1       1.263  -3.747   4.664  0.00  0.00    +0.027 C 
ATOM     10  C   UNL     1       0.252  -3.588   5.802  0.00  0.00    +0.002 C 
ATOM     11  C   UNL     1      -0.900  -4.575   5.603  0.00  0.00    +0.000 C 
ATOM     12  C   UNL     1      -1.588  -4.292   4.266  0.00  0.00    +0.002 C 
ATOM     13  C   UNL     1      -0.578  -4.452   3.128  0.00  0.00    +0.027 C 
ENDBRANCH   7   8
ENDBRANCH   2   3
BRANCH   2  15
ATOM     14  C   UNL     1      -0.115   0.334   0.119  0.00  0.00    +0.006 C 
ATOM     15  C   UNL     1       0.437  -1.093   0.137  0.00  0.00    +0.023 C 
ENDBRANCH   2  15
ENDBRANCH   1   2
BRANCH   1  16
ATOM     16  C   UNL     1       2.968  -0.298  -0.290  0.00  0.00    +0.120 C 
BRANCH  16  17
ATOM     17  C   UNL     1       4.351   0.292  -0.387  0.00  0.00    -0.030 A 
ATOM     18  C   UNL     1       4.508   1.636  -0.671  0.00  0.00    +0.009 A 
ATOM     19  C   UNL     1       5.775   2.183  -0.761  0.00  0.00    +0.050 A 
ATOM     20  C   UNL     1       6.890   1.384  -0.568  0.00  0.00    +0.166 A 
ATOM     21  C   UNL     1       6.731   0.030  -0.282  0.00  0.00    +0.167 A 
ATOM     22  C   UNL     1       5.459  -0.509  -0.188  0.00  0.00    +0.054 A 
ATOM     23  O   UNL     1       7.966  -0.533  -0.137  0.00  0.00    -0.453 OA
ATOM     24  C   UNL     1       8.886   0.398  -0.738  0.00  0.00    +0.466 C 
ATOM     25  O   UNL     1       8.225   1.669  -0.601  0.00  0.00    -0.453 OA
ENDBRANCH  16  17
ENDBRANCH   1  16
BRANCH   1  26
ATOM     26  C   UNL     1       2.230   1.012   1.609  0.00  0.00    +0.126 C 
BRANCH  26  27
ATOM     27  C   UNL     1       2.313   1.031   3.113  0.00  0.00    +0.031 A 
ATOM     28  C   UNL     1       3.472   1.386   3.721  0.00  0.00    +0.020 A 
ATOM     29  C   UNL     1       3.520   1.395   5.185  0.00  0.00    -0.001 A 
ATOM     30  C   UNL     1       4.687   1.753   5.868  0.00  0.00    +0.013 A 
ATOM     31  C   UNL     1       4.699   1.752   7.234  0.00  0.00    -0.050 A 
ATOM     32  C   UNL     1       3.563   1.398   7.950  0.00  0.00    +0.005 A 
ATOM     33  C   UNL     1       2.402   1.042   7.298  0.00  0.00    +0.026 A 
ATOM     34  C   UNL     1       2.366   1.037   5.907  0.00  0.00    +0.049 A 
ATOM     35  N   UNL     1       1.219   0.686   5.228  0.00  0.00    -0.322 N 
ATOM     36  H   UNL     1       0.425   0.439   5.728  0.00  0.00    +0.169 HD
ATOM     37  C   UNL     1       1.183   0.686   3.884  0.00  0.00    +0.254 A 
ATOM     38  O   UNL     1       0.150   0.375   3.318  0.00  0.00    -0.268 OA
ATOM     39  C   UNL     1       5.956   2.137   7.971  0.00  0.00    +0.044 C 
ENDBRANCH  26  27
ENDBRANCH   1  26
TORSDOF 8
