REMARK  Name = ZINC00826861
REMARK  3 active torsions:
REMARK  status: ('A' for Active; 'I' for Inactive)
REMARK    1  A    between atoms: C_8  and  C_10
REMARK    2  A    between atoms: C_10  and  C_19
REMARK    3  A    between atoms: C_11  and  N_12
REMARK                            x       y       z     vdW  Elec       q    Type
REMARK                         _______ _______ _______ _____ _____    ______ ____
ROOT
ATOM      1  C   UNL     1       0.002  -0.004   0.002  0.00  0.00    +0.127 C 
ATOM      2  C   UNL     1      -0.016   1.361   0.009  0.00  0.00    +0.097 C 
ENDROOT
BRANCH   1  10
ATOM      3  C   UNL     1      -5.450  -2.436   0.042  0.00  0.00    +0.002 A 
ATOM      4  C   UNL     1      -4.745  -3.630   0.029  0.00  0.00    +0.004 A 
ATOM      5  C   UNL     1      -3.365  -3.628   0.015  0.00  0.00    +0.048 A 
ATOM      6  C   UNL     1      -2.675  -2.426   0.015  0.00  0.00    +0.156 A 
ATOM      7  C   UNL     1      -3.385  -1.215   0.028  0.00  0.00    +0.110 A 
ATOM      8  C   UNL     1      -4.781  -1.232   0.041  0.00  0.00    +0.031 A 
ATOM      9  N   UNL     1      -2.459  -0.220   0.030  0.00  0.00    -0.208 NA
ATOM     10  C   UNL     1      -1.263  -0.758   0.010  0.00  0.00    +0.240 A 
ATOM     11  O   UNL     1      -1.362  -2.101   0.004  0.00  0.00    -0.435 OA
ENDBRANCH   1  10
BRANCH   2  12
ATOM     12  N   UNL     1       1.156   2.059   0.002  0.00  0.00    -0.304 N 
ATOM     13  C   UNL     1       1.137   3.451   0.010  0.00  0.00    +0.122 A 
ATOM     14  C   UNL     1      -0.081   4.123   0.025  0.00  0.00    +0.044 A 
ATOM     15  C   UNL     1      -0.085   5.507   0.032  0.00  0.00    +0.005 A 
ATOM     16  C   UNL     1       1.133   6.173   0.024  0.00  0.00    +0.020 A 
ATOM     17  C   UNL     1       2.304   5.441   0.009  0.00  0.00    +0.113 A 
ATOM     18  N   UNL     1       2.278   4.122   0.008  0.00  0.00    -0.240 NA
ATOM     19  H   UNL     1       2.002   1.585  -0.009  0.00  0.00    +0.153 HD
ENDBRANCH   2  12
BRANCH   1  20
ATOM     20  C   UNL     1       1.252  -0.703  -0.014  0.00  0.00    +0.106 C 
ATOM     21  N   UNL     1       2.243  -1.258  -0.026  0.00  0.00    -0.191 NA
ENDBRANCH   1  20
TORSDOF 3
