REMARK  Name = ZINC36570401
REMARK  15 active torsions:
REMARK  status: ('A' for Active; 'I' for Inactive)
REMARK    1  A    between atoms: C_1  and  C_2
REMARK    2  A    between atoms: C_2  and  C_3
REMARK    3  A    between atoms: C_3  and  C_4
REMARK    4  A    between atoms: C_4  and  N_5
REMARK    5  A    between atoms: C_6  and  C_8
REMARK    6  A    between atoms: C_8  and  C_10
REMARK    7  A    between atoms: C_8  and  N_19
REMARK    8  A    between atoms: C_11  and  O_18
REMARK    9  A    between atoms: C_13  and  O_17
REMARK   10  A    between atoms: C_15  and  O_16
REMARK   11  A    between atoms: N_19  and  C_20
REMARK   12  A    between atoms: C_20  and  C_21
REMARK   13  A    between atoms: C_21  and  C_22
REMARK   14  A    between atoms: C_23  and  C_25
REMARK   15  A    between atoms: C_26  and  C_27
REMARK                            x       y       z     vdW  Elec       q    Type
REMARK                         _______ _______ _______ _____ _____    ______ ____
ROOT
ATOM      1  C   UNL     1      -4.577  -4.229   0.063  0.00  0.00    +0.200 C 
ENDROOT
BRANCH   1   2
ATOM      2  C   UNL     1      -5.136  -3.586   1.306  0.00  0.00    +0.065 A 
ATOM      3  C   UNL     1      -4.468  -2.526   1.899  0.00  0.00    +0.129 A 
ATOM      4  C   UNL     1      -4.983  -1.935   3.043  0.00  0.00    +0.091 A 
ATOM      5  C   UNL     1      -6.167  -2.403   3.593  0.00  0.00    +0.124 A 
ATOM      6  C   UNL     1      -6.836  -3.462   2.998  0.00  0.00    +0.091 A 
ATOM      7  C   UNL     1      -6.323  -4.051   1.852  0.00  0.00    +0.129 A 
BRANCH   7   8
ATOM      8  O   UNL     1      -6.981  -5.086   1.267  0.00  0.00    -0.506 OA
ATOM      9  H   UNL     1      -6.780  -5.949   1.654  0.00  0.00    +0.292 HD
ENDBRANCH   7   8
BRANCH   5  10
ATOM     10  O   UNL     1      -6.671  -1.824   4.714  0.00  0.00    -0.507 OA
ATOM     11  H   UNL     1      -7.273  -1.088   4.540  0.00  0.00    +0.292 HD
ENDBRANCH   5  10
BRANCH   3  12
ATOM     12  O   UNL     1      -3.308  -2.067   1.361  0.00  0.00    -0.506 OA
ATOM     13  H   UNL     1      -3.428  -1.363   0.709  0.00  0.00    +0.292 HD
ENDBRANCH   3  12
ENDBRANCH   1   2
BRANCH   1  15
ATOM     14  N   UNL     1      -3.045  -2.514  -0.849  0.00  0.00    -0.313 N 
ATOM     15  C   UNL     1      -3.196  -3.688  -0.204  0.00  0.00    +0.238 C 
ATOM     16  O   UNL     1      -2.220  -4.309   0.161  0.00  0.00    -0.273 OA
ATOM     17  H   UNL     1      -3.823  -2.041  -1.183  0.00  0.00    +0.149 HD
BRANCH  14  18
ATOM     18  C   UNL     1      -1.706  -1.953  -1.045  0.00  0.00    +0.104 C 
BRANCH  18  19
ATOM     19  C   UNL     1      -1.815  -0.626  -1.799  0.00  0.00    +0.018 C 
BRANCH  19  21
ATOM     20  C   UNL     1      -0.525   1.287  -2.757  0.00  0.00    +0.004 C 
ATOM     21  C   UNL     1      -0.416  -0.040  -2.004  0.00  0.00    -0.002 C 
ENDBRANCH  19  21
ENDBRANCH  18  19
ENDBRANCH  14  18
ENDBRANCH   1  15
BRANCH   1  22
ATOM     22  N   UNL     1      -4.505  -5.680   0.253  0.00  0.00    -0.275 N 
ATOM     23  C   UNL     1      -5.192  -6.502  -0.564  0.00  0.00    +0.292 C 
ATOM     24  O   UNL     1      -5.873  -6.039  -1.460  0.00  0.00    -0.260 OA
BRANCH  23  25
ATOM     25  C   UNL     1      -5.121  -7.920  -0.378  0.00  0.00    -0.003 C 
ATOM     26  C   UNL     1      -5.063  -9.082  -0.225  0.00  0.00    -0.057 C 
BRANCH  26  27
ATOM     27  C   UNL     1      -4.993 -10.501  -0.039  0.00  0.00    +0.025 A 
ATOM     28  C   UNL     1      -4.216 -11.036   0.994  0.00  0.00    +0.017 A 
ATOM     29  C   UNL     1      -4.154 -12.402   1.167  0.00  0.00    +0.001 A 
ATOM     30  C   UNL     1      -4.856 -13.243   0.322  0.00  0.00    +0.000 A 
ATOM     31  C   UNL     1      -5.627 -12.721  -0.703  0.00  0.00    +0.001 A 
ATOM     32  C   UNL     1      -5.705 -11.357  -0.885  0.00  0.00    +0.017 A 
ENDBRANCH  26  27
ENDBRANCH  23  25
BRANCH  22  33
ATOM     33  C   UNL     1      -3.685  -6.237   1.332  0.00  0.00    +0.109 C 
BRANCH  33  34
ATOM     34  C   UNL     1      -4.566  -6.508   2.554  0.00  0.00    +0.016 C 
ATOM     35  C   UNL     1      -3.694  -6.996   3.713  0.00  0.00    +0.005 C 
ENDBRANCH  33  34
ENDBRANCH  22  33
ENDBRANCH   1  22
TORSDOF 13
