REMARK  Name = ZINC59889353
REMARK  10 active torsions:
REMARK  status: ('A' for Active; 'I' for Inactive)
REMARK    1  A    between atoms: C_1  and  C_2
REMARK    2  A    between atoms: C_2  and  C_3
REMARK    3  A    between atoms: C_3  and  C_35
REMARK    4  A    between atoms: N_4  and  N_5
REMARK    5  A    between atoms: C_8  and  S_11
REMARK    6  A    between atoms: S_11  and  C_12
REMARK    7  A    between atoms: C_12  and  C_13
REMARK    8  A    between atoms: N_15  and  C_16
REMARK    9  A    between atoms: C_19  and  S_22
REMARK   10  A    between atoms: S_22  and  N_25
REMARK                            x       y       z     vdW  Elec       q    Type
REMARK                         _______ _______ _______ _____ _____    ______ ____
ROOT
ATOM      1  C   UNL     1       9.690  -6.471  -1.932  0.00  0.00    +0.227 C 
ATOM      2  O   UNL     1      10.302  -7.464  -2.262  0.00  0.00    -0.275 OA
ATOM      3  N   UNL     1       9.950  -5.881  -0.748  0.00  0.00    -0.285 N 
ATOM      4  H   UNL     1       9.509  -5.050  -0.513  0.00  0.00    +0.155 HD
ENDROOT
BRANCH   3   5
ATOM      5  C   UNL     1      10.855  -6.469   0.142  0.00  0.00    +0.034 A 
ATOM      6  C   UNL     1      10.638  -6.387   1.511  0.00  0.00    +0.025 A 
ATOM      7  C   UNL     1      11.534  -6.969   2.387  0.00  0.00    +0.030 A 
ATOM      8  C   UNL     1      12.646  -7.631   1.902  0.00  0.00    +0.106 A 
ATOM      9  C   UNL     1      12.866  -7.715   0.540  0.00  0.00    +0.030 A 
ATOM     10  C   UNL     1      11.971  -7.141  -0.342  0.00  0.00    +0.025 A 
BRANCH   8  11
ATOM     11  S   UNL     1      13.787  -8.372   3.023  0.00  0.00    +0.061 S 
ATOM     12  O   UNL     1      15.029  -8.460   2.339  0.00  0.00    -0.153 OA
ATOM     13  O   UNL     1      13.645  -7.685   4.259  0.00  0.00    -0.153 OA
BRANCH  11  14
ATOM     14  N   UNL     1      13.278  -9.926   3.284  0.00  0.00    -0.172 NA
ATOM     15  C   UNL     1      12.339 -10.252   4.371  0.00  0.00    +0.114 C 
ATOM     16  C   UNL     1      11.050 -10.772   3.737  0.00  0.00    +0.052 C 
ATOM     17  C   UNL     1      11.349 -11.805   2.683  0.00  0.00    -0.042 A 
ATOM     18  C   UNL     1      10.325 -12.671   2.320  0.00  0.00    +0.004 A 
ATOM     19  C   UNL     1      10.529 -13.634   1.354  0.00  0.00    +0.000 A 
ATOM     20  C   UNL     1      11.763 -13.740   0.739  0.00  0.00    +0.000 A 
ATOM     21  C   UNL     1      12.783 -12.884   1.100  0.00  0.00    +0.005 A 
ATOM     22  C   UNL     1      12.580 -11.918   2.076  0.00  0.00    -0.028 A 
ATOM     23  C   UNL     1      13.740 -11.032   2.439  0.00  0.00    +0.144 C 
ENDBRANCH  11  14
ENDBRANCH   8  11
ENDBRANCH   3   5
BRANCH   1  24
ATOM     24  C   UNL     1       8.639  -5.895  -2.845  0.00  0.00    +0.173 C 
BRANCH  24  25
ATOM     25  S   UNL     1       8.525  -6.904  -4.348  0.00  0.00    -0.075 S 
BRANCH  25  29
ATOM     26  N   UNL     1       5.221  -5.790  -8.129  0.00  0.00    -0.205 N 
ATOM     27  C   UNL     1       5.899  -5.694  -6.927  0.00  0.00    +0.232 A 
ATOM     28  N   UNL     1       6.841  -6.509  -6.503  0.00  0.00    -0.186 NA
ATOM     29  C   UNL     1       7.271  -6.112  -5.300  0.00  0.00    +0.211 A 
ATOM     30  N   UNL     1       6.608  -5.038  -4.944  0.00  0.00    -0.144 NA
ATOM     31  N   UNL     1       5.716  -4.743  -5.987  0.00  0.00    -0.245 N 
ATOM     32  H   UNL     1       4.543  -5.136  -8.357  0.00  0.00    +0.177 HD
ATOM     33  H   UNL     1       5.089  -4.004  -6.023  0.00  0.00    +0.192 HD
BRANCH  26  35
ATOM     34  C   UNL     1       4.887  -6.923 -10.129  0.00  0.00    +0.034 C 
ATOM     35  N   UNL     1       5.514  -6.834  -9.017  0.00  0.00    -0.189 NA
ATOM     36  C   UNL     1       3.833  -5.906 -10.484  0.00  0.00    +0.062 C 
BRANCH  34  38
ATOM     37  C   UNL     1       3.980  -8.955 -11.223  0.00  0.00    +0.010 C 
ATOM     38  C   UNL     1       5.202  -8.045 -11.085  0.00  0.00    +0.049 C 
ENDBRANCH  34  38
ENDBRANCH  26  35
ENDBRANCH  25  29
ENDBRANCH  24  25
ENDBRANCH   1  24
TORSDOF 8
