REMARK  Name = ZINC11092883
REMARK  6 active torsions:
REMARK  status: ('A' for Active; 'I' for Inactive)
REMARK    1  A    between atoms: C_4  and  N_7
REMARK    2  A    between atoms: C_9  and  C_14
REMARK    3  A    between atoms: C_19  and  C_22
REMARK    4  A    between atoms: N_24  and  C_25
REMARK    5  A    between atoms: C_28  and  S_31
REMARK    6  A    between atoms: S_31  and  N_34
REMARK                            x       y       z     vdW  Elec       q    Type
REMARK                         _______ _______ _______ _____ _____    ______ ____
ROOT
ATOM      1  C   UNL     1       1.918  -0.544   2.829  0.00  0.00    +0.221 C 
ATOM      2  O   UNL     1       1.007  -0.437   3.622  0.00  0.00    -0.275 OA
ATOM      3  N   UNL     1       3.139  -0.927   3.253  0.00  0.00    -0.301 N 
ATOM      4  C   UNL     1       4.251  -1.068   2.304  0.00  0.00    +0.108 C 
ATOM      5  C   UNL     1       5.434  -0.228   2.809  0.00  0.00    +0.032 C 
ATOM      6  C   UNL     1       5.774  -0.646   4.242  0.00  0.00    +0.078 C 
ATOM      7  C   UNL     1       4.572  -0.381   5.151  0.00  0.00    +0.032 C 
ATOM      8  C   UNL     1       3.381  -1.217   4.673  0.00  0.00    +0.108 C 
ENDROOT
BRANCH   1  11
ATOM      9  N   UNL     1       0.210   1.633   1.204  0.00  0.00    -0.271 N 
ATOM     10  C   UNL     1       0.220   0.168   1.116  0.00  0.00    +0.127 C 
ATOM     11  C   UNL     1       1.686  -0.250   1.369  0.00  0.00    +0.102 C 
ATOM     12  C   UNL     1       2.455   1.017   0.930  0.00  0.00    +0.110 C 
ATOM     13  C   UNL     1       1.452   2.137   1.096  0.00  0.00    +0.221 C 
ATOM     14  O   UNL     1       1.728   3.318   1.128  0.00  0.00    -0.275 OA
BRANCH   9  18
ATOM     15  C   UNL     1      -3.226   3.936   1.702  0.00  0.00    +0.000 A 
ATOM     16  C   UNL     1      -3.332   2.569   1.516  0.00  0.00    +0.002 A 
ATOM     17  C   UNL     1      -2.194   1.803   1.351  0.00  0.00    +0.023 A 
ATOM     18  C   UNL     1      -0.944   2.406   1.371  0.00  0.00    +0.036 A 
ATOM     19  C   UNL     1      -0.840   3.778   1.562  0.00  0.00    +0.023 A 
ATOM     20  C   UNL     1      -1.982   4.539   1.721  0.00  0.00    +0.002 A 
ENDBRANCH   9  18
ENDBRANCH   1  11
BRANCH   6  21
ATOM     21  C   UNL     1       6.958   0.149   4.729  0.00  0.00    +0.220 C 
ATOM     22  O   UNL     1       6.851   0.857   5.708  0.00  0.00    -0.275 OA
ATOM     23  N   UNL     1       8.135   0.072   4.078  0.00  0.00    -0.285 N 
ATOM     24  H   UNL     1       8.201  -0.431   3.251  0.00  0.00    +0.155 HD
BRANCH  23  25
ATOM     25  C   UNL     1       9.264   0.719   4.595  0.00  0.00    +0.034 A 
ATOM     26  C   UNL     1      10.205   1.270   3.734  0.00  0.00    +0.025 A 
ATOM     27  C   UNL     1      11.315   1.911   4.247  0.00  0.00    +0.030 A 
ATOM     28  C   UNL     1      11.495   1.996   5.616  0.00  0.00    +0.105 A 
ATOM     29  C   UNL     1      10.563   1.445   6.475  0.00  0.00    +0.030 A 
ATOM     30  C   UNL     1       9.448   0.806   5.968  0.00  0.00    +0.025 A 
BRANCH  28  31
ATOM     31  S   UNL     1      12.917   2.809   6.266  0.00  0.00    +0.056 S 
ATOM     32  O   UNL     1      13.360   3.716   5.265  0.00  0.00    -0.153 OA
ATOM     33  O   UNL     1      12.578   3.231   7.580  0.00  0.00    -0.153 OA
BRANCH  31  34
ATOM     34  N   UNL     1      14.104   1.665   6.427  0.00  0.00    -0.204 NA
ATOM     35  H   UNL     1      13.928   0.745   6.175  0.00  0.00    +0.144 HD
ATOM     36  H   UNL     1      14.975   1.916   6.774  0.00  0.00    +0.144 HD
ENDBRANCH  31  34
ENDBRANCH  28  31
ENDBRANCH  23  25
ENDBRANCH   6  21
TORSDOF 6
