REMARK  Name = ZINC13064709
REMARK  12 active torsions:
REMARK  status: ('A' for Active; 'I' for Inactive)
REMARK    1  A    between atoms: C_1  and  C_2
REMARK    2  A    between atoms: C_2  and  C_3
REMARK    3  A    between atoms: C_3  and  C_5
REMARK    4  A    between atoms: C_3  and  N_66
REMARK    5  A    between atoms: N_9  and  C_10
REMARK    6  A    between atoms: C_10  and  C_11
REMARK    7  A    between atoms: C_16  and  C_17
REMARK    8  A    between atoms: C_16  and  N_66
REMARK    9  A    between atoms: C_24  and  C_25
REMARK   10  A    between atoms: C_24  and  N_66
REMARK   11  A    between atoms: C_29  and  C_38
REMARK   12  A    between atoms: C_30  and  C_37
REMARK                            x       y       z     vdW  Elec       q    Type
REMARK                         _______ _______ _______ _____ _____    ______ ____
ROOT
ATOM      1  N   UNL     1       1.345  -2.526  -1.311  0.00  0.00    +0.392 N 
ATOM      2  H   UNL     1       2.097  -2.204  -1.933  0.00  0.00    -0.080 HD
ENDROOT
BRANCH   1   3
ATOM      3  C   UNL     1       1.281  -4.002  -1.357  0.00  0.00    +0.003 C 
BRANCH   3   4
ATOM      4  C   UNL     1       2.493  -4.570  -0.665  0.00  0.00    +0.139 A 
ATOM      5  N   UNL     1       3.732  -4.164  -0.798  0.00  0.00    -0.115 NA
ATOM      6  N   UNL     1       4.475  -4.898  -0.043  0.00  0.00    -0.023 NA
ATOM      7  N   UNL     1       3.742  -5.768   0.562  0.00  0.00    -0.044 NA
ATOM      8  N   UNL     1       2.514  -5.598   0.204  0.00  0.00    -0.223 N 
BRANCH   8   9
ATOM      9  C   UNL     1       1.360  -6.377   0.658  0.00  0.00    +0.221 C 
BRANCH   9  10
ATOM     10  C   UNL     1       1.153  -7.551  -0.264  0.00  0.00    +0.126 A 
ATOM     11  C   UNL     1       1.705  -8.770  -0.121  0.00  0.00    +0.046 A 
ATOM     12  C   UNL     1       1.242  -9.558  -1.200  0.00  0.00    +0.041 A 
ATOM     13  C   UNL     1       0.441  -8.772  -1.941  0.00  0.00    +0.195 A 
ATOM     14  O   UNL     1       0.391  -7.558  -1.369  0.00  0.00    -0.466 OA
ENDBRANCH   9  10
ENDBRANCH   8   9
ENDBRANCH   3   4
BRANCH   3  16
ATOM     15  C   UNL     1       2.571  -4.002  -3.498  0.00  0.00    +0.002 C 
ATOM     16  C   UNL     1       1.273  -4.448  -2.821  0.00  0.00    -0.011 C 
ENDBRANCH   3  16
ENDBRANCH   1   3
BRANCH   1  17
ATOM     17  C   UNL     1       1.637  -2.076   0.066  0.00  0.00    -0.042 C 
BRANCH  17  18
ATOM     18  C   UNL     1       2.137  -0.655   0.015  0.00  0.00    -0.064 A 
ATOM     19  C   UNL     1       1.236   0.394  -0.002  0.00  0.00    +0.004 A 
ATOM     20  C   UNL     1       1.693   1.697  -0.050  0.00  0.00    +0.038 A 
ATOM     21  C   UNL     1       3.054   1.952  -0.081  0.00  0.00    +0.123 A 
ATOM     22  C   UNL     1       3.955   0.901  -0.064  0.00  0.00    +0.038 A 
ATOM     23  C   UNL     1       3.495  -0.401  -0.016  0.00  0.00    +0.004 A 
ATOM     24  F   UNL     1       3.501   3.226  -0.127  0.00  0.00    -0.205 F 
ENDBRANCH  17  18
ENDBRANCH   1  17
BRANCH   1  25
ATOM     25  C   UNL     1       0.064  -1.950  -1.770  0.00  0.00    -0.036 C 
BRANCH  25  26
ATOM     26  C   UNL     1      -1.072  -2.431  -0.904  0.00  0.00    +0.001 A 
ATOM     27  C   UNL     1      -1.476  -1.688   0.156  0.00  0.00    +0.017 A 
ATOM     28  C   UNL     1      -2.585  -2.182   0.974  0.00  0.00    -0.001 A 
ATOM     29  C   UNL     1      -3.049  -1.457   2.077  0.00  0.00    +0.013 A 
ATOM     30  C   UNL     1      -4.082  -1.948   2.823  0.00  0.00    -0.047 A 
ATOM     31  C   UNL     1      -4.676  -3.159   2.497  0.00  0.00    -0.046 A 
ATOM     32  C   UNL     1      -4.236  -3.890   1.416  0.00  0.00    +0.030 A 
ATOM     33  C   UNL     1      -3.184  -3.411   0.641  0.00  0.00    +0.049 A 
ATOM     34  N   UNL     1      -2.723  -4.121  -0.447  0.00  0.00    -0.322 N 
ATOM     35  H   UNL     1      -3.138  -4.968  -0.676  0.00  0.00    +0.169 HD
ATOM     36  C   UNL     1      -1.708  -3.657  -1.196  0.00  0.00    +0.251 A 
ATOM     37  O   UNL     1      -1.326  -4.312  -2.151  0.00  0.00    -0.268 OA
ATOM     38  C   UNL     1      -5.815  -3.681   3.336  0.00  0.00    +0.044 C 
ATOM     39  C   UNL     1      -4.582  -1.166   4.011  0.00  0.00    +0.044 C 
ENDBRANCH  25  26
ENDBRANCH   1  25
TORSDOF 9
