REMARK  Name = ZINC04898073
REMARK  4 active torsions:
REMARK  status: ('A' for Active; 'I' for Inactive)
REMARK    1  A    between atoms: C_1  and  C_2
REMARK    2  A    between atoms: C_3  and  C_23
REMARK    3  A    between atoms: C_10  and  N_11
REMARK    4  A    between atoms: N_11  and  C_12
REMARK                            x       y       z     vdW  Elec       q    Type
REMARK                         _______ _______ _______ _____ _____    ______ ____
ROOT
ATOM      1  N   UNL     1      -1.360  -0.508   0.222  0.00  0.00    -0.322 N 
ATOM      2  H   UNL     1      -2.073   0.151  -0.051  0.00  0.00    +0.148 HD
ENDROOT
BRANCH   1  12
ATOM      3  C   UNL     1      -3.962  -1.671   0.264  0.00  0.00    +0.049 C 
ATOM      4  C   UNL     1      -2.786  -2.327  -0.412  0.00  0.00    +0.010 A 
ATOM      5  C   UNL     1      -2.934  -3.554  -1.055  0.00  0.00    +0.048 A 
ATOM      6  N   UNL     1      -1.906  -4.126  -1.645  0.00  0.00    -0.215 NA
ATOM      7  C   UNL     1      -0.698  -3.551  -1.645  0.00  0.00    +0.255 A 
ATOM      8  N   UNL     1       0.470  -3.920  -2.159  0.00  0.00    -0.197 NA
ATOM      9  C   UNL     1       1.389  -3.000  -1.890  0.00  0.00    +0.247 A 
ATOM     10  N   UNL     1       0.847  -2.024  -1.204  0.00  0.00    -0.151 NA
ATOM     11  N   UNL     1      -0.505  -2.345  -1.031  0.00  0.00    -0.182 N 
ATOM     12  C   UNL     1      -1.544  -1.721  -0.403  0.00  0.00    +0.129 A 
ATOM     13  C   UNL     1      -4.280  -4.231  -1.075  0.00  0.00    +0.066 C 
ENDBRANCH   1  12
BRANCH   1  14
ATOM     14  C   UNL     1      -0.018   0.025  -0.048  0.00  0.00    +0.102 C 
ATOM     15  C   UNL     1      -0.077   1.551  -0.068  0.00  0.00    +0.027 C 
ATOM     16  C   UNL     1       1.357   2.090  -0.132  0.00  0.00    +0.007 C 
ATOM     17  C   UNL     1       2.036   1.812   1.208  0.00  0.00    +0.035 C 
ATOM     18  C   UNL     1       1.879   0.363   1.590  0.00  0.00    -0.042 A 
ATOM     19  C   UNL     1       0.931  -0.455   1.018  0.00  0.00    -0.024 A 
ATOM     20  C   UNL     1       0.829  -1.779   1.426  0.00  0.00    +0.006 A 
ATOM     21  C   UNL     1       1.673  -2.281   2.396  0.00  0.00    +0.000 A 
ATOM     22  C   UNL     1       2.628  -1.460   2.966  0.00  0.00    +0.000 A 
ATOM     23  C   UNL     1       2.729  -0.144   2.564  0.00  0.00    +0.004 A 
ENDBRANCH   1  14
TORSDOF 2
