REMARK  Name = ZINC09561986
REMARK  7 active torsions:
REMARK  status: ('A' for Active; 'I' for Inactive)
REMARK    1  A    between atoms: N_11  and  C_14
REMARK    2  A    between atoms: C_14  and  C_15
REMARK    3  A    between atoms: C_15  and  O_17
REMARK    4  A    between atoms: O_17  and  C_18
REMARK    5  A    between atoms: C_18  and  C_19
REMARK    6  A    between atoms: N_21  and  C_22
REMARK    7  A    between atoms: C_23  and  C_30
REMARK                            x       y       z     vdW  Elec       q    Type
REMARK                         _______ _______ _______ _____ _____    ______ ____
ROOT
ATOM      1  C   UNL     1       4.715  -4.646  -4.423  0.00  0.00    +0.255 C 
ATOM      2  O   UNL     1       5.311  -5.463  -3.753  0.00  0.00    -0.272 OA
ATOM      3  N   UNL     1       4.773  -4.706  -5.768  0.00  0.00    -0.277 N 
ATOM      4  H   UNL     1       4.296  -4.052  -6.303  0.00  0.00    +0.155 HD
ENDROOT
BRANCH   3   5
ATOM      5  C   UNL     1       5.514  -5.701  -6.386  0.00  0.00    +0.084 A 
ATOM      6  C   UNL     1       5.691  -5.912  -7.741  0.00  0.00    +0.068 A 
ATOM      7  C   UNL     1       6.528  -7.042  -8.140  0.00  0.00    -0.023 A 
ATOM      8  C   UNL     1       7.027  -7.746  -7.108  0.00  0.00    -0.004 A 
ATOM      9  S   UNL     1       6.408  -6.922  -5.663  0.00  0.00    -0.077 S 
ATOM     10  C   UNL     1       7.877  -8.898  -7.573  0.00  0.00    +0.043 C 
ATOM     11  C   UNL     1       7.499  -9.085  -9.059  0.00  0.00    +0.010 C 
ATOM     12  C   UNL     1       7.016  -7.672  -9.443  0.00  0.00    +0.037 C 
BRANCH   6  13
ATOM     13  C   UNL     1       5.063  -5.038  -8.738  0.00  0.00    +0.244 C 
ATOM     14  O   UNL     1       5.652  -4.051  -9.138  0.00  0.00    -0.270 OA
ATOM     15  N   UNL     1       3.835  -5.328  -9.210  0.00  0.00    -0.325 N 
ATOM     16  H   UNL     1       3.365  -6.115  -8.891  0.00  0.00    +0.145 HD
ATOM     17  H   UNL     1       3.420  -4.750  -9.869  0.00  0.00    +0.145 HD
ENDBRANCH   6  13
ENDBRANCH   3   5
BRANCH   1  18
ATOM     18  C   UNL     1       3.910  -3.564  -3.750  0.00  0.00    +0.328 C 
BRANCH  18  19
ATOM     19  O   UNL     1       4.004  -3.712  -2.332  0.00  0.00    -0.454 OA
BRANCH  19  20
ATOM     20  C   UNL     1       3.338  -2.820  -1.581  0.00  0.00    +0.326 C 
ATOM     21  O   UNL     1       2.697  -1.944  -2.110  0.00  0.00    -0.249 OA
BRANCH  20  22
ATOM     22  C   UNL     1       3.391  -2.913  -0.078  0.00  0.00    +0.236 C 
BRANCH  22  31
ATOM     23  C   UNL     1      -0.019   1.518   0.010  0.00  0.00    +0.001 C 
ATOM     24  C   UNL     1       1.429   2.023  -0.001  0.00  0.00    +0.001 C 
ATOM     25  C   UNL     1       2.084   1.616   1.314  0.00  0.00    +0.013 C 
ATOM     26  C   UNL     1       2.028   0.137   1.563  0.00  0.00    +0.087 C 
ATOM     27  C   UNL     1       0.747  -0.587   1.173  0.00  0.00    +0.087 C 
ATOM     28  C   UNL     1       0.002  -0.004   0.002  0.00  0.00    +0.013 C 
ATOM     29  C   UNL     1       1.282  -1.965   0.789  0.00  0.00    +0.226 C 
ATOM     30  O   UNL     1       0.641  -2.993   0.746  0.00  0.00    -0.275 OA
ATOM     31  N   UNL     1       2.589  -1.835   0.506  0.00  0.00    -0.231 N 
ATOM     32  C   UNL     1       3.081  -0.627   0.789  0.00  0.00    +0.226 C 
ATOM     33  O   UNL     1       4.184  -0.225   0.489  0.00  0.00    -0.275 OA
ENDBRANCH  22  31
ENDBRANCH  20  22
ENDBRANCH  19  20
ENDBRANCH  18  19
ENDBRANCH   1  18
TORSDOF 7
