REMARK  Name = ZINC10048583
REMARK  9 active torsions:
REMARK  status: ('A' for Active; 'I' for Inactive)
REMARK    1  A    between atoms: C_1  and  C_2
REMARK    2  A    between atoms: N_9  and  C_10
REMARK    3  A    between atoms: N_17  and  C_35
REMARK    4  A    between atoms: N_20  and  C_23
REMARK    5  A    between atoms: C_23  and  C_24
REMARK    6  A    between atoms: C_24  and  C_26
REMARK    7  A    between atoms: C_24  and  C_27
REMARK    8  A    between atoms: C_27  and  N_28
REMARK    9  A    between atoms: N_28  and  C_29
REMARK                            x       y       z     vdW  Elec       q    Type
REMARK                         _______ _______ _______ _____ _____    ______ ____
ROOT
ATOM      1  C   UNL     1      13.055  -4.471   4.219  0.00  0.00    +0.065 C 
ATOM      2  C   UNL     1      12.385  -4.016   2.948  0.00  0.00    +0.040 A 
ATOM      3  C   UNL     1      11.361  -3.172   2.865  0.00  0.00    +0.116 A 
ATOM      4  N   UNL     1      11.037  -3.008   1.530  0.00  0.00    -0.277 N 
ATOM      5  C   UNL     1      10.186  -2.372   0.639  0.00  0.00    +0.157 A 
ATOM      6  C   UNL     1      10.568  -2.789  -0.635  0.00  0.00    +0.170 A 
ATOM      7  N   UNL     1      11.591  -3.627  -0.491  0.00  0.00    -0.193 NA
ATOM      8  C   UNL     1      11.883  -3.768   0.794  0.00  0.00    +0.223 A 
ATOM      9  N   UNL     1      12.730  -4.403   1.666  0.00  0.00    -0.283 N 
ATOM     10  N   UNL     1       9.876  -2.300  -1.733  0.00  0.00    -0.279 N 
ATOM     11  C   UNL     1       8.856  -1.439  -1.557  0.00  0.00    +0.333 A 
ATOM     12  O   UNL     1       8.259  -1.020  -2.530  0.00  0.00    -0.246 OA
ATOM     13  N   UNL     1       8.480  -1.032  -0.332  0.00  0.00    -0.259 N 
ATOM     14  C   UNL     1       9.119  -1.468   0.773  0.00  0.00    +0.283 A 
ATOM     15  O   UNL     1       8.770  -1.086   1.877  0.00  0.00    -0.265 OA
ATOM     16  C   UNL     1      10.254  -2.721  -3.084  0.00  0.00    +0.155 C 
ENDROOT
BRANCH   9  17
ATOM     17  C   UNL     1      13.760  -5.287   1.319  0.00  0.00    +0.050 A 
ATOM     18  C   UNL     1      14.848  -4.833   0.585  0.00  0.00    +0.027 A 
ATOM     19  C   UNL     1      15.865  -5.705   0.250  0.00  0.00    +0.022 A 
ATOM     20  C   UNL     1      15.795  -7.033   0.634  0.00  0.00    +0.041 A 
ATOM     21  C   UNL     1      14.709  -7.489   1.361  0.00  0.00    +0.022 A 
ATOM     22  C   UNL     1      13.693  -6.619   1.705  0.00  0.00    +0.027 A 
ATOM     23 CL   UNL     1      17.072  -8.128   0.205  0.00  0.00    -0.084 Cl
ENDBRANCH   9  17
BRANCH  13  24
ATOM     24  C   UNL     1       7.364  -0.093  -0.196  0.00  0.00    +0.134 C 
BRANCH  24  25
ATOM     25  C   UNL     1       6.055  -0.875  -0.062  0.00  0.00    +0.023 C 
ATOM     26  C   UNL     1       6.071  -1.677   1.241  0.00  0.00    +0.011 C 
BRANCH  25  27
ATOM     27  C   UNL     1       4.877   0.102  -0.045  0.00  0.00    +0.106 C 
BRANCH  27  28
ATOM     28  N   UNL     1       3.620  -0.649  -0.037  0.00  0.00    -0.344 N 
ATOM     29  H   UNL     1       3.634  -1.619  -0.042  0.00  0.00    +0.146 HD
BRANCH  28  30
ATOM     30  C   UNL     1       2.400   0.031  -0.021  0.00  0.00    +0.027 A 
ATOM     31  C   UNL     1       1.206  -0.680  -0.013  0.00  0.00    +0.023 A 
ATOM     32  C   UNL     1       0.002  -0.004   0.002  0.00  0.00    +0.002 A 
ATOM     33  C   UNL     1      -0.017   1.379   0.010  0.00  0.00    +0.000 A 
ATOM     34  C   UNL     1       1.169   2.089   0.002  0.00  0.00    +0.002 A 
ATOM     35  C   UNL     1       2.377   1.420  -0.013  0.00  0.00    +0.023 A 
ENDBRANCH  28  30
ENDBRANCH  27  28
ENDBRANCH  25  27
ENDBRANCH  24  25
ENDBRANCH  13  24
TORSDOF 6
