REMARK  Name = ZINC65259927
REMARK  6 active torsions:
REMARK  status: ('A' for Active; 'I' for Inactive)
REMARK    1  A    between atoms: C_1  and  C_2
REMARK    2  A    between atoms: C_2  and  C_3
REMARK    3  A    between atoms: C_2  and  C_4
REMARK    4  A    between atoms: C_2  and  C_5
REMARK    5  A    between atoms: N_22  and  C_23
REMARK    6  A    between atoms: C_23  and  C_24
REMARK                            x       y       z     vdW  Elec       q    Type
REMARK                         _______ _______ _______ _____ _____    ______ ____
ROOT
ATOM      1  C   UNL     1       0.362  -0.699  -1.237  0.00  0.00    +0.221 C 
ATOM      2  O   UNL     1       0.912  -0.107  -2.141  0.00  0.00    -0.275 OA
ATOM      3  N   UNL     1       0.096  -2.014  -1.356  0.00  0.00    -0.299 N 
ATOM      4  C   UNL     1      -0.459  -2.772  -0.226  0.00  0.00    +0.108 C 
ATOM      5  C   UNL     1       0.431  -3.990   0.038  0.00  0.00    +0.021 C 
ATOM      6  C   UNL     1       0.569  -4.804  -1.251  0.00  0.00    +0.036 C 
ATOM      7  C   UNL     1       1.222  -3.945  -2.332  0.00  0.00    +0.102 C 
ATOM      8  C   UNL     1       0.350  -2.719  -2.621  0.00  0.00    +0.141 C 
ATOM      9  C   UNL     1       1.390  -4.758  -3.598  0.00  0.00    +0.098 C 
ATOM     10  N   UNL     1       2.171  -4.196  -4.592  0.00  0.00    -0.301 N 
ATOM     11  C   UNL     1       3.313  -3.479  -4.197  0.00  0.00    +0.053 A 
ATOM     12  C   UNL     1       4.260  -3.113  -5.141  0.00  0.00    +0.025 A 
ATOM     13  C   UNL     1       5.381  -2.402  -4.755  0.00  0.00    +0.002 A 
ATOM     14  C   UNL     1       5.561  -2.055  -3.428  0.00  0.00    +0.002 A 
ATOM     15  C   UNL     1       4.623  -2.418  -2.480  0.00  0.00    +0.025 A 
ATOM     16  C   UNL     1       3.498  -3.135  -2.859  0.00  0.00    +0.049 A 
ATOM     17  N   UNL     1       2.557  -3.519  -1.891  0.00  0.00    -0.329 N 
ATOM     18  N   UNL     1       0.833  -5.916  -3.742  0.00  0.00    -0.371 N 
ATOM     19  H   UNL     1       2.784  -3.503  -0.949  0.00  0.00    +0.147 HD
ATOM     20  H   UNL     1       0.291  -6.286  -3.028  0.00  0.00    +0.161 HD
ATOM     21  H   UNL     1       1.938  -4.293  -5.529  0.00  0.00    +0.153 HD
ENDROOT
BRANCH   1  23
ATOM     22  C   UNL     1       0.215   1.536  -0.172  0.00  0.00    +0.020 C 
ATOM     23  C   UNL     1      -0.025   0.038   0.020  0.00  0.00    +0.039 C 
ATOM     24  C   UNL     1       0.822  -0.469   1.189  0.00  0.00    +0.020 C 
ATOM     25  C   UNL     1      -1.506  -0.207   0.319  0.00  0.00    +0.020 C 
ENDBRANCH   1  23
BRANCH  18  26
ATOM     26  C   UNL     1       1.022  -6.670  -4.985  0.00  0.00    +0.149 C 
BRANCH  26  27
ATOM     27  C   UNL     1       0.275  -7.976  -4.898  0.00  0.00    -0.028 A 
ATOM     28  C   UNL     1       0.900  -9.098  -4.388  0.00  0.00    +0.005 A 
ATOM     29  C   UNL     1       0.215 -10.296  -4.309  0.00  0.00    +0.000 A 
ATOM     30  C   UNL     1      -1.096 -10.371  -4.739  0.00  0.00    +0.000 A 
ATOM     31  C   UNL     1      -1.722  -9.249  -5.248  0.00  0.00    +0.000 A 
ATOM     32  C   UNL     1      -1.038  -8.050  -5.324  0.00  0.00    +0.005 A 
ENDBRANCH  26  27
ENDBRANCH  18  26
TORSDOF 3
