REMARK  Name = ZINC14886642
REMARK  6 active torsions:
REMARK  status: ('A' for Active; 'I' for Inactive)
REMARK    1  A    between atoms: C_1  and  O_2
REMARK    2  A    between atoms: O_2  and  C_3
REMARK    3  A    between atoms: C_7  and  C_9
REMARK    4  A    between atoms: C_12  and  O_30
REMARK    5  A    between atoms: C_13  and  C_15
REMARK    6  A    between atoms: C_15  and  N_16
REMARK                            x       y       z     vdW  Elec       q    Type
REMARK                         _______ _______ _______ _____ _____    ______ ____
ROOT
ATOM      1  C   UNL     1       2.388   0.409   4.081  0.00  0.00    +0.001 A 
ATOM      2  C   UNL     1       3.044  -0.171   5.166  0.00  0.00    +0.013 A 
ATOM      3  C   UNL     1       3.599   0.629   6.142  0.00  0.00    +0.046 A 
ATOM      4  C   UNL     1       3.505   2.011   6.045  0.00  0.00    +0.118 A 
ATOM      5  C   UNL     1       2.853   2.591   4.966  0.00  0.00    -0.022 A 
ATOM      6  C   UNL     1       2.301   1.797   3.984  0.00  0.00    +0.015 A 
ENDROOT
BRANCH   1  11
ATOM      7  C   UNL     1       0.625  -0.617   1.040  0.00  0.00    +0.215 A 
ATOM      8  C   UNL     1       0.681  -2.005   1.084  0.00  0.00    +0.067 A 
ATOM      9  C   UNL     1       1.318  -2.625   2.146  0.00  0.00    +0.007 A 
ATOM     10  C   UNL     1       1.881  -1.834   3.134  0.00  0.00    +0.028 A 
ATOM     11  C   UNL     1       1.790  -0.449   3.030  0.00  0.00    +0.075 A 
ATOM     12  N   UNL     1       1.176   0.112   1.994  0.00  0.00    -0.213 NA
BRANCH   7  14
ATOM     13  C   UNL     1      -0.017   1.425   0.010  0.00  0.00    +0.279 C 
ATOM     14  O   UNL     1       0.002  -0.004   0.002  0.00  0.00    -0.480 OA
ENDBRANCH   7  14
ENDBRANCH   1  11
BRANCH   4  15
ATOM     15  O   UNL     1       4.052   2.796   7.009  0.00  0.00    -0.507 OA
ATOM     16  H   UNL     1       4.972   3.044   6.840  0.00  0.00    +0.292 HD
ENDBRANCH   4  15
BRANCH   5  17
ATOM     17  C   UNL     1       2.752   4.092   4.866  0.00  0.00    -0.039 C 
BRANCH  17  18
ATOM     18  N   UNL     1       1.749   4.581   5.820  0.00  0.00    +0.386 N 
ATOM     19  C   UNL     1       1.554   6.024   5.625  0.00  0.00    -0.073 C 
ATOM     20  C   UNL     1       0.299   6.478   6.383  0.00  0.00    +0.019 C 
ATOM     21  C   UNL     1       0.391   5.945   7.791  0.00  0.00    -0.023 A 
ATOM     22  C   UNL     1      -0.355   6.323   8.969  0.00  0.00    +0.003 A 
ATOM     23  C   UNL     1      -1.366   7.263   9.194  0.00  0.00    +0.010 A 
ATOM     24  C   UNL     1      -1.856   7.355  10.473  0.00  0.00    +0.001 A 
ATOM     25  C   UNL     1      -1.380   6.559  11.502  0.00  0.00    +0.002 A 
ATOM     26  C   UNL     1      -0.380   5.621  11.309  0.00  0.00    +0.026 A 
ATOM     27  C   UNL     1       0.136   5.506  10.020  0.00  0.00    +0.047 A 
ATOM     28  N   UNL     1       1.107   4.702   9.492  0.00  0.00    -0.359 N 
ATOM     29  H   UNL     1       1.615   4.041   9.988  0.00  0.00    +0.166 HD
ATOM     30  C   UNL     1       1.254   4.970   8.159  0.00  0.00    +0.003 A 
ATOM     31  C   UNL     1       2.208   4.311   7.191  0.00  0.00    -0.024 C 
ATOM     32  H   UNL     1       0.875   4.103   5.661  0.00  0.00    -0.081 HD
ENDBRANCH  17  18
ENDBRANCH   5  17
TORSDOF 5
