REMARK  Name = ZINC36145840
REMARK  14 active torsions:
REMARK  status: ('A' for Active; 'I' for Inactive)
REMARK    1  A    between atoms: C_1  and  O_2
REMARK    2  A    between atoms: O_2  and  C_3
REMARK    3  A    between atoms: C_6  and  C_9
REMARK    4  A    between atoms: C_12  and  C_15
REMARK    5  A    between atoms: C_15  and  N_16
REMARK    6  A    between atoms: N_16  and  C_17
REMARK    7  A    between atoms: N_16  and  C_26
REMARK    8  A    between atoms: C_17  and  C_18
REMARK    9  A    between atoms: C_26  and  C_27
REMARK   10  A    between atoms: C_27  and  C_29
REMARK   11  A    between atoms: C_27  and  O_38
REMARK   12  A    between atoms: C_29  and  O_30
REMARK   13  A    between atoms: O_30  and  C_31
REMARK   14  A    between atoms: C_31  and  C_32
REMARK                            x       y       z     vdW  Elec       q    Type
REMARK                         _______ _______ _______ _____ _____    ______ ____
ROOT
ATOM      1  N   UNL     1       4.578  -5.085   7.883  0.00  0.00    +0.387 N 
ATOM      2  H   UNL     1       4.953  -4.224   8.254  0.00  0.00    -0.081 HD
ENDROOT
BRANCH   1   3
ATOM      3  C   UNL     1       4.071  -4.853   6.524  0.00  0.00    -0.030 C 
BRANCH   3   7
ATOM      4  C   UNL     1       2.281  -1.955   5.159  0.00  0.00    +0.091 C 
ATOM      5  N   UNL     1       2.924  -1.482   6.174  0.00  0.00    -0.089 NA
ATOM      6  O   UNL     1       3.588  -2.484   6.919  0.00  0.00    -0.392 OA
ATOM      7  C   UNL     1       3.007  -3.753   6.557  0.00  0.00    +0.194 C 
ATOM      8  C   UNL     1       2.464  -3.461   5.140  0.00  0.00    +0.104 C 
BRANCH   4  12
ATOM      9  C   UNL     1       0.025   0.313   2.367  0.00  0.00    +0.120 A 
ATOM     10  C   UNL     1       0.676   0.953   3.414  0.00  0.00    +0.046 A 
ATOM     11  C   UNL     1       1.409   0.221   4.323  0.00  0.00    +0.013 A 
ATOM     12  C   UNL     1       1.497  -1.167   4.189  0.00  0.00    -0.000 A 
ATOM     13  C   UNL     1       0.840  -1.807   3.135  0.00  0.00    +0.013 A 
ATOM     14  C   UNL     1       0.105  -1.067   2.234  0.00  0.00    +0.046 A 
BRANCH   9  16
ATOM     15  C   UNL     1      -0.736   2.454   1.669  0.00  0.00    +0.277 C 
ATOM     16  O   UNL     1      -0.696   1.039   1.473  0.00  0.00    -0.495 OA
ENDBRANCH   9  16
ENDBRANCH   4  12
ENDBRANCH   3   7
ENDBRANCH   1   3
BRANCH   1  17
ATOM     17  C   UNL     1       3.481  -5.551   8.742  0.00  0.00    -0.040 C 
BRANCH  17  18
ATOM     18  C   UNL     1       3.992  -5.747  10.146  0.00  0.00    -0.029 A 
ATOM     19  C   UNL     1       4.207  -7.023  10.632  0.00  0.00    +0.007 A 
ATOM     20  C   UNL     1       4.676  -7.204  11.919  0.00  0.00    +0.039 A 
ATOM     21  C   UNL     1       4.929  -6.106  12.725  0.00  0.00    +0.126 A 
ATOM     22  C   UNL     1       4.714  -4.828  12.240  0.00  0.00    +0.076 A 
ATOM     23  C   UNL     1       4.250  -4.648  10.948  0.00  0.00    +0.127 A 
ATOM     24  F   UNL     1       4.045  -3.400  10.472  0.00  0.00    -0.205 F 
ATOM     25  F   UNL     1       5.386  -6.283  13.984  0.00  0.00    -0.205 F 
ENDBRANCH  17  18
ENDBRANCH   1  17
BRANCH   1  26
ATOM     26  C   UNL     1       5.636  -6.103   7.844  0.00  0.00    -0.044 C 
BRANCH  26  27
ATOM     27  C   UNL     1       6.862  -5.537   7.123  0.00  0.00    +0.124 C 
BRANCH  27  28
ATOM     28  O   UNL     1       6.572  -5.397   5.731  0.00  0.00    -0.391 OA
ATOM     29  H   UNL     1       6.340  -6.227   5.292  0.00  0.00    +0.210 HD
ENDBRANCH  27  28
BRANCH  27  30
ATOM     30  C   UNL     1       8.045  -6.490   7.304  0.00  0.00    +0.189 C 
BRANCH  30  31
ATOM     31  O   UNL     1       9.217  -5.907   6.731  0.00  0.00    -0.373 OA
BRANCH  31  32
ATOM     32  C   UNL     1      10.387  -6.721   6.848  0.00  0.00    +0.195 C 
BRANCH  32  33
ATOM     33  C   UNL     1      11.556  -6.013   6.214  0.00  0.00    -0.022 A 
ATOM     34  C   UNL     1      11.834  -6.201   4.873  0.00  0.00    +0.006 A 
ATOM     35  C   UNL     1      12.906  -5.552   4.291  0.00  0.00    +0.000 A 
ATOM     36  C   UNL     1      13.701  -4.714   5.050  0.00  0.00    +0.000 A 
ATOM     37  C   UNL     1      13.423  -4.524   6.391  0.00  0.00    +0.000 A 
ATOM     38  C   UNL     1      12.348  -5.170   6.972  0.00  0.00    +0.006 A 
ENDBRANCH  32  33
ENDBRANCH  31  32
ENDBRANCH  30  31
ENDBRANCH  27  30
ENDBRANCH  26  27
ENDBRANCH   1  26
TORSDOF 13
