REMARK  Name = ZINC44020844
REMARK  5 active torsions:
REMARK  status: ('A' for Active; 'I' for Inactive)
REMARK    1  A    between atoms: C_1  and  C_2
REMARK    2  A    between atoms: C_2  and  C_3
REMARK    3  A    between atoms: C_3  and  N_4
REMARK    4  A    between atoms: C_8  and  N_13
REMARK    5  A    between atoms: C_21  and  C_23
REMARK                            x       y       z     vdW  Elec       q    Type
REMARK                         _______ _______ _______ _____ _____    ______ ____
ROOT
ATOM      1  N   UNL     1       0.695  -1.978   1.250  0.00  0.00    -0.261 N 
ATOM      2  C   UNL     1       1.901  -2.577   1.226  0.00  0.00    +0.258 A 
ATOM      3  O   UNL     1       2.919  -1.906   1.225  0.00  0.00    -0.267 OA
ATOM      4  C   UNL     1       1.980  -3.979   1.202  0.00  0.00    +0.112 A 
ATOM      5  C   UNL     1       0.824  -4.708   1.204  0.00  0.00    +0.112 A 
ATOM      6  N   UNL     1      -0.386  -4.056   1.229  0.00  0.00    -0.295 N 
ATOM      7  H   UNL     1      -1.210  -4.568   1.231  0.00  0.00    +0.172 HD
ATOM      8  C   UNL     1      -0.433  -2.712   1.257  0.00  0.00    +0.331 A 
ATOM      9  O   UNL     1      -1.512  -2.151   1.285  0.00  0.00    -0.246 OA
ENDROOT
BRANCH   5  10
ATOM     10  N   UNL     1       0.871  -6.080   1.180  0.00  0.00    -0.283 N 
ATOM     11  C   UNL     1      -0.039  -6.924   1.823  0.00  0.00    +0.039 A 
ATOM     12  C   UNL     1      -1.153  -6.597   2.600  0.00  0.00    +0.024 A 
ATOM     13  C   UNL     1      -1.931  -7.592   3.152  0.00  0.00    +0.002 A 
ATOM     14  C   UNL     1      -1.615  -8.921   2.940  0.00  0.00    +0.000 A 
ATOM     15  C   UNL     1      -0.515  -9.253   2.171  0.00  0.00    +0.005 A 
ATOM     16  C   UNL     1       0.268  -8.259   1.616  0.00  0.00    -0.024 A 
ATOM     17  C   UNL     1       1.506  -8.339   0.750  0.00  0.00    +0.059 C 
ATOM     18  C   UNL     1       1.879  -6.874   0.473  0.00  0.00    +0.082 C 
ATOM     19  C   UNL     1       1.824  -6.585  -1.029  0.00  0.00    +0.029 C 
ENDBRANCH   5  10
BRANCH   1  20
ATOM     20  C   UNL     1       0.610  -0.516   1.275  0.00  0.00    +0.130 C 
BRANCH  20  22
ATOM     21  C   UNL     1       0.516   1.497   2.752  0.00  0.00    +0.005 C 
ATOM     22  C   UNL     1       0.604  -0.030   2.726  0.00  0.00    +0.018 C 
ENDBRANCH  20  22
ENDBRANCH   1  20
TORSDOF 3
