REMARK  Name = ZINC12704728
REMARK  9 active torsions:
REMARK  status: ('A' for Active; 'I' for Inactive)
REMARK    1  A    between atoms: C_1  and  C_2
REMARK    2  A    between atoms: C_7  and  C_8
REMARK    3  A    between atoms: C_8  and  C_9
REMARK    4  A    between atoms: C_9  and  N_10
REMARK    5  A    between atoms: N_10  and  C_11
REMARK    6  A    between atoms: C_11  and  C_12
REMARK    7  A    between atoms: C_16  and  C_25
REMARK    8  A    between atoms: C_17  and  C_24
REMARK    9  A    between atoms: N_28  and  C_29
REMARK                            x       y       z     vdW  Elec       q    Type
REMARK                         _______ _______ _______ _____ _____    ______ ____
ROOT
ATOM      1  N   UNL     1      -1.411   1.113   4.171  0.00  0.00    -0.281 N 
ATOM      2  C   UNL     1      -1.492   0.435   5.334  0.00  0.00    +0.303 C 
ATOM      3  O   UNL     1      -1.490   1.038   6.390  0.00  0.00    -0.253 OA
ATOM      4  N   UNL     1      -1.576  -0.910   5.325  0.00  0.00    -0.296 N 
ATOM      5  H   UNL     1      -1.577  -1.390   4.482  0.00  0.00    +0.151 HD
ENDROOT
BRANCH   4   6
ATOM      6  C   UNL     1      -1.664  -1.646   6.588  0.00  0.00    +0.074 C 
ATOM      7  C   UNL     1      -3.124  -1.705   7.043  0.00  0.00    +0.022 C 
ATOM      8  C   UNL     1      -3.216  -2.474   8.363  0.00  0.00    +0.002 C 
ATOM      9  C   UNL     1      -2.687  -3.896   8.162  0.00  0.00    +0.000 C 
ATOM     10  C   UNL     1      -1.228  -3.837   7.707  0.00  0.00    +0.002 C 
ATOM     11  C   UNL     1      -1.135  -3.068   6.388  0.00  0.00    +0.022 C 
ENDBRANCH   4   6
BRANCH   1  12
ATOM     12  C   UNL     1      -1.413   0.387   2.899  0.00  0.00    +0.114 C 
BRANCH  12  13
ATOM     13  C   UNL     1       0.025   0.045   2.504  0.00  0.00    +0.054 C 
BRANCH  13  20
ATOM     14  C   UNL     1      -0.018   1.503   0.010  0.00  0.00    +0.044 C 
ATOM     15  C   UNL     1       0.002  -0.004   0.002  0.00  0.00    -0.047 A 
ATOM     16  C   UNL     1       0.006  -0.689  -1.199  0.00  0.00    +0.003 A 
ATOM     17  C   UNL     1       0.025  -2.071  -1.207  0.00  0.00    +0.000 A 
ATOM     18  C   UNL     1       0.040  -2.768  -0.013  0.00  0.00    +0.000 A 
ATOM     19  C   UNL     1       0.037  -2.084   1.188  0.00  0.00    +0.004 A 
ATOM     20  C   UNL     1       0.023  -0.702   1.195  0.00  0.00    -0.043 A 
ENDBRANCH  13  20
ENDBRANCH  12  13
ENDBRANCH   1  12
BRANCH   1  21
ATOM     21  C   UNL     1      -1.320   2.575   4.181  0.00  0.00    +0.150 C 
BRANCH  21  22
ATOM     22  C   UNL     1      -2.706   3.165   4.136  0.00  0.00    +0.035 A 
ATOM     23  C   UNL     1      -3.325   3.524   5.288  0.00  0.00    +0.020 A 
ATOM     24  C   UNL     1      -4.671   4.094   5.210  0.00  0.00    -0.001 A 
ATOM     25  C   UNL     1      -5.359   4.483   6.364  0.00  0.00    +0.013 A 
ATOM     26  C   UNL     1      -6.614   5.013   6.258  0.00  0.00    -0.047 A 
ATOM     27  C   UNL     1      -7.213   5.168   5.014  0.00  0.00    -0.046 A 
ATOM     28  C   UNL     1      -6.553   4.790   3.865  0.00  0.00    +0.030 A 
ATOM     29  C   UNL     1      -5.274   4.250   3.948  0.00  0.00    +0.049 A 
ATOM     30  N   UNL     1      -4.591   3.865   2.814  0.00  0.00    -0.322 N 
ATOM     31  H   UNL     1      -5.008   3.973   1.945  0.00  0.00    +0.169 HD
ATOM     32  C   UNL     1      -3.353   3.347   2.895  0.00  0.00    +0.254 A 
ATOM     33  O   UNL     1      -2.776   3.022   1.871  0.00  0.00    -0.268 OA
ATOM     34  C   UNL     1      -8.598   5.753   4.921  0.00  0.00    +0.044 C 
ATOM     35  C   UNL     1      -7.356   5.432   7.501  0.00  0.00    +0.044 C 
ENDBRANCH  21  22
ENDBRANCH   1  21
TORSDOF 6
