REMARK  Name = ZINC31822978
REMARK  8 active torsions:
REMARK  status: ('A' for Active; 'I' for Inactive)
REMARK    1  A    between atoms: C_1  and  C_2
REMARK    2  A    between atoms: C_5  and  N_9
REMARK    3  A    between atoms: C_10  and  C_12
REMARK    4  A    between atoms: C_12  and  C_14
REMARK    5  A    between atoms: C_12  and  S_15
REMARK    6  A    between atoms: S_15  and  C_16
REMARK    7  A    between atoms: C_20  and  C_26
REMARK    8  A    between atoms: C_21  and  C_25
REMARK                            x       y       z     vdW  Elec       q    Type
REMARK                         _______ _______ _______ _____ _____    ______ ____
ROOT
ATOM      1  S   UNL     1       0.868   4.270   0.728  0.00  0.00    -0.073 S 
ENDROOT
BRANCH   1   2
ATOM      2  C   UNL     1       0.752   2.525   0.517  0.00  0.00    +0.192 A 
ATOM      3  N   UNL     1      -0.405   1.916   0.754  0.00  0.00    -0.207 NA
ATOM      4  C   UNL     1      -0.552   0.609   0.613  0.00  0.00    +0.129 A 
ATOM      5  C   UNL     1       0.558  -0.176   0.195  0.00  0.00    +0.050 A 
ATOM      6  C   UNL     1       0.648  -1.609  -0.029  0.00  0.00    -0.028 A 
ATOM      7  C   UNL     1       1.815  -2.138  -0.427  0.00  0.00    -0.008 A 
ATOM      8  S   UNL     1       2.897  -0.725  -0.531  0.00  0.00    -0.073 S 
ATOM      9  C   UNL     1       1.754   0.537  -0.038  0.00  0.00    +0.115 A 
ATOM     10  N   UNL     1       1.820   1.844   0.125  0.00  0.00    -0.214 NA
ATOM     11  C   UNL     1       2.134  -3.582  -0.716  0.00  0.00    +0.052 C 
ATOM     12  C   UNL     1      -0.555  -2.491   0.183  0.00  0.00    +0.045 C 
ATOM     13  N   UNL     1      -1.773   0.013   0.870  0.00  0.00    -0.343 N 
ATOM     14  H   UNL     1      -1.890  -1.075   0.751  0.00  0.00    +0.144 HD
ATOM     15  H   UNL     1      -2.627   0.625   1.193  0.00  0.00    +0.144 HD
ENDBRANCH   1   2
BRANCH   1  16
ATOM     16  C   UNL     1      -0.826   4.638   1.250  0.00  0.00    +0.137 C 
ATOM     17  C   UNL     1      -1.791   4.324   0.106  0.00  0.00    +0.029 C 
BRANCH  16  19
ATOM     18  N   UNL     1      -1.885   6.507   2.475  0.00  0.00    -0.284 N 
ATOM     19  C   UNL     1      -0.934   6.096   1.613  0.00  0.00    +0.230 C 
ATOM     20  O   UNL     1      -0.166   6.900   1.130  0.00  0.00    -0.274 OA
ATOM     21  H   UNL     1      -2.494   5.768   3.016  0.00  0.00    +0.155 HD
BRANCH  18  26
ATOM     22  C   UNL     1      -2.749  12.052   3.314  0.00  0.00    +0.044 C 
ATOM     23  C   UNL     1      -2.520  10.579   3.091  0.00  0.00    -0.049 A 
ATOM     24  C   UNL     1      -1.825  10.150   1.975  0.00  0.00    +0.005 A 
ATOM     25  C   UNL     1      -1.613   8.801   1.768  0.00  0.00    +0.024 A 
ATOM     26  C   UNL     1      -2.098   7.875   2.682  0.00  0.00    +0.047 A 
ATOM     27  C   UNL     1      -2.801   8.309   3.800  0.00  0.00    +0.039 A 
ATOM     28  C   UNL     1      -3.005   9.660   4.004  0.00  0.00    +0.020 A 
ATOM     29 BR   UNL     1      -3.471   7.052   5.044  0.00  0.00    -0.048 Br
ENDBRANCH  18  26
ENDBRANCH  16  19
ENDBRANCH   1  16
TORSDOF 4
