REMARK  Name = ZINC39303617
REMARK  11 active torsions:
REMARK  status: ('A' for Active; 'I' for Inactive)
REMARK    1  A    between atoms: C_1  and  O_2
REMARK    2  A    between atoms: O_2  and  C_3
REMARK    3  A    between atoms: C_5  and  N_11
REMARK    4  A    between atoms: C_7  and  O_9
REMARK    5  A    between atoms: O_9  and  C_10
REMARK    6  A    between atoms: C_17  and  C_19
REMARK    7  A    between atoms: C_19  and  C_21
REMARK    8  A    between atoms: C_19  and  N_26
REMARK    9  A    between atoms: N_26  and  C_27
REMARK   10  A    between atoms: C_27  and  C_28
REMARK   11  A    between atoms: C_27  and  C_34
REMARK                            x       y       z     vdW  Elec       q    Type
REMARK                         _______ _______ _______ _____ _____    ______ ____
ROOT
ATOM      1  C   UNL     1       3.201  -8.484   2.831  0.00  0.00    +0.055 C 
ENDROOT
BRANCH   1   8
ATOM      2  N   UNL     1       2.432  -3.819   1.687  0.00  0.00    -0.327 N 
ATOM      3  C   UNL     1       1.401  -4.551   0.938  0.00  0.00    +0.124 C 
ATOM      4  C   UNL     1       2.034  -5.813   0.339  0.00  0.00    +0.126 C 
ATOM      5  N   UNL     1       2.774  -6.515   1.396  0.00  0.00    -0.300 N 
ATOM      6  C   UNL     1       3.805  -5.783   2.145  0.00  0.00    +0.126 C 
ATOM      7  C   UNL     1       3.176  -4.523   2.741  0.00  0.00    +0.124 C 
ATOM      8  C   UNL     1       2.511  -7.808   1.675  0.00  0.00    +0.206 C 
ATOM      9  O   UNL     1       1.719  -8.426   0.995  0.00  0.00    -0.277 OA
BRANCH   2  12
ATOM     10  C   UNL     1       3.867  -0.438   1.900  0.00  0.00    +0.125 A 
ATOM     11  C   UNL     1       3.597  -1.767   2.187  0.00  0.00    +0.069 A 
ATOM     12  C   UNL     1       2.704  -2.480   1.398  0.00  0.00    +0.037 A 
ATOM     13  C   UNL     1       2.082  -1.861   0.322  0.00  0.00    +0.069 A 
ATOM     14  C   UNL     1       2.353  -0.532   0.036  0.00  0.00    +0.125 A 
ATOM     15  C   UNL     1       3.241   0.181   0.828  0.00  0.00    +0.091 A 
BRANCH  10  17
ATOM     16  C   UNL     1       4.967   1.627   2.322  0.00  0.00    +0.277 C 
ATOM     17  O   UNL     1       4.740   0.261   2.672  0.00  0.00    -0.495 OA
ENDBRANCH  10  17
BRANCH  14  18
ATOM     18  O   UNL     1       1.745   0.074  -1.018  0.00  0.00    -0.495 OA
ATOM     19  C   UNL     1       2.071   1.445  -1.254  0.00  0.00    +0.277 C 
ENDBRANCH  14  18
ENDBRANCH   2  12
ENDBRANCH   1   8
BRANCH   1  20
ATOM     20  C   UNL     1       2.445  -8.200   4.104  0.00  0.00    -0.015 A 
ATOM     21  C   UNL     1       2.762  -7.353   5.113  0.00  0.00    +0.010 A 
ATOM     22  C   UNL     1       1.908  -7.252   6.196  0.00  0.00    +0.008 A 
ATOM     23  C   UNL     1       0.780  -8.002   6.216  0.00  0.00    +0.045 A 
ATOM     24  S   UNL     1       0.896  -8.884   4.668  0.00  0.00    -0.103 S 
ENDBRANCH   1  20
BRANCH   1  25
ATOM     25  N   UNL     1       3.239  -9.934   2.598  0.00  0.00    +0.397 N 
ATOM     26  H   UNL     1       2.298 -10.299   2.598  0.00  0.00    -0.083 HD
ATOM     27  H   UNL     1       3.672 -10.120   1.706  0.00  0.00    -0.083 HD
BRANCH  25  28
ATOM     28  C   UNL     1       4.015 -10.581   3.664  0.00  0.00    -0.009 C 
BRANCH  28  29
ATOM     29  C   UNL     1       3.951 -12.077   3.495  0.00  0.00    -0.057 A 
ATOM     30  C   UNL     1       4.029 -12.633   2.232  0.00  0.00    +0.002 A 
ATOM     31  C   UNL     1       3.971 -14.006   2.076  0.00  0.00    +0.000 A 
ATOM     32  C   UNL     1       3.835 -14.822   3.183  0.00  0.00    +0.000 A 
ATOM     33  C   UNL     1       3.759 -14.266   4.446  0.00  0.00    +0.000 A 
ATOM     34  C   UNL     1       3.821 -12.894   4.603  0.00  0.00    +0.002 A 
ENDBRANCH  28  29
BRANCH  28  35
ATOM     35  C   UNL     1       5.450 -10.127   3.588  0.00  0.00    -0.057 A 
ATOM     36  C   UNL     1       6.061  -9.974   2.357  0.00  0.00    +0.002 A 
ATOM     37  C   UNL     1       7.377  -9.557   2.287  0.00  0.00    +0.000 A 
ATOM     38  C   UNL     1       8.082  -9.294   3.446  0.00  0.00    +0.000 A 
ATOM     39  C   UNL     1       7.471  -9.447   4.677  0.00  0.00    +0.000 A 
ATOM     40  C   UNL     1       6.153  -9.859   4.747  0.00  0.00    +0.002 A 
ENDBRANCH  28  35
ENDBRANCH  25  28
ENDBRANCH   1  25
TORSDOF 9
