REMARK  Name = ZINC44779622
REMARK  7 active torsions:
REMARK  status: ('A' for Active; 'I' for Inactive)
REMARK    1  A    between atoms: C_1  and  C_2
REMARK    2  A    between atoms: C_2  and  C_4
REMARK    3  A    between atoms: C_2  and  N_10
REMARK    4  A    between atoms: C_4  and  N_5
REMARK    5  A    between atoms: C_11  and  C_13
REMARK    6  A    between atoms: C_13  and  C_20
REMARK    7  A    between atoms: C_20  and  N_22
REMARK                            x       y       z     vdW  Elec       q    Type
REMARK                         _______ _______ _______ _____ _____    ______ ____
ROOT
ATOM      1  N   UNL     1       0.751  -0.427   1.137  0.00  0.00    -0.314 N 
ATOM      2  C   UNL     1       2.092  -0.554   1.157  0.00  0.00    +0.225 C 
ATOM      3  O   UNL     1       2.739  -0.322   0.157  0.00  0.00    -0.275 OA
ATOM      4  H   UNL     1       0.228  -0.685   1.912  0.00  0.00    +0.149 HD
ENDROOT
BRANCH   2   5
ATOM      5  C   UNL     1       2.790  -0.984   2.421  0.00  0.00    +0.091 C 
ATOM      6  C   UNL     1       2.287  -2.387   2.817  0.00  0.00    +0.023 C 
ATOM      7  C   UNL     1       2.161  -3.219   1.569  0.00  0.00    +0.001 C 
ATOM      8  C   UNL     1       3.421  -4.062   1.293  0.00  0.00    +0.000 C 
ATOM      9  C   UNL     1       4.727  -3.286   1.550  0.00  0.00    +0.000 C 
ATOM     10  C   UNL     1       4.666  -1.871   1.042  0.00  0.00    +0.001 C 
ATOM     11  C   UNL     1       4.228  -0.952   2.201  0.00  0.00    +0.023 C 
BRANCH   5  12
ATOM     12  C   UNL     1       2.443  -0.015   3.523  0.00  0.00    +0.061 C 
ATOM     13  S   UNL     1       3.574   0.933   4.139  0.00  0.00    -0.040 S 
BRANCH  12  14
ATOM     14  N   UNL     1       1.180   0.052   3.988  0.00  0.00    -0.355 N 
ATOM     15  H   UNL     1       0.481  -0.474   3.570  0.00  0.00    +0.143 HD
ATOM     16  H   UNL     1       0.971   0.627   4.741  0.00  0.00    +0.143 HD
ENDBRANCH  12  14
ENDBRANCH   5  12
ENDBRANCH   2   5
BRANCH   1  18
ATOM     17  C   UNL     1       0.080   1.629  -0.005  0.00  0.00    +0.026 C 
ATOM     18  C   UNL     1       0.083   0.100  -0.056  0.00  0.00    +0.053 C 
BRANCH  18  19
ATOM     19  C   UNL     1      -1.359  -0.411  -0.101  0.00  0.00    -0.057 C 
BRANCH  19  20
ATOM     20  N   UNL     1      -1.360  -1.879  -0.029  0.00  0.00    +0.381 N 
ATOM     21  C   UNL     1      -0.916  -2.326   1.316  0.00  0.00    -0.079 C 
ATOM     22  C   UNL     1      -1.494  -3.760   1.422  0.00  0.00    -0.020 C 
ATOM     23  C   UNL     1      -2.864  -3.632   0.717  0.00  0.00    -0.020 C 
ATOM     24  C   UNL     1      -2.736  -2.396  -0.192  0.00  0.00    -0.079 C 
ATOM     25  H   UNL     1      -0.757  -2.263  -0.741  0.00  0.00    -0.082 HD
ENDBRANCH  19  20
ENDBRANCH  18  19
ENDBRANCH   1  18
TORSDOF 6
