REMARK  Name = ZINC44737351
REMARK  10 active torsions:
REMARK  status: ('A' for Active; 'I' for Inactive)
REMARK    1  A    between atoms: C_1  and  C_2
REMARK    2  A    between atoms: C_10  and  C_12
REMARK    3  A    between atoms: C_12  and  C_13
REMARK    4  A    between atoms: C_12  and  N_14
REMARK    5  A    between atoms: C_15  and  C_17
REMARK    6  A    between atoms: C_27  and  C_29
REMARK    7  A    between atoms: C_33  and  O_36
REMARK    8  A    between atoms: C_34  and  C_35
REMARK    9  A    between atoms: O_36  and  C_37
REMARK   10  A    between atoms: C_37  and  C_39
REMARK                            x       y       z     vdW  Elec       q    Type
REMARK                         _______ _______ _______ _____ _____    ______ ____
ROOT
ATOM      1  C   UNL     1      -1.445  -9.283   1.646  0.00  0.00    +0.100 C 
ATOM      2  C   UNL     1      -0.459  -9.708   0.534  0.00  0.00    +0.121 C 
ATOM      3  N   UNL     1       0.245 -10.888   1.089  0.00  0.00    -0.296 N 
ATOM      4  C   UNL     1      -0.809 -11.642   1.808  0.00  0.00    +0.115 C 
ATOM      5  C   UNL     1      -1.672 -10.557   2.477  0.00  0.00    -0.004 C 
ATOM      6  C   UNL     1      -1.217 -10.337   3.916  0.00  0.00    -0.010 C 
ATOM      7  C   UNL     1      -1.505 -11.598   4.736  0.00  0.00    -0.082 C 
ATOM      8  N   UNL     1      -2.942 -11.893   4.696  0.00  0.00    +0.379 N 
ATOM      9  C   UNL     1      -3.354 -12.194   3.319  0.00  0.00    -0.082 C 
ATOM     10  C   UNL     1      -3.143 -10.958   2.439  0.00  0.00    -0.010 C 
ATOM     11  C   UNL     1       1.550 -11.204   0.968  0.00  0.00    +0.247 C 
ATOM     12  O   UNL     1       1.962 -12.261   1.403  0.00  0.00    -0.270 OA
ATOM     13  H   UNL     1      -3.138 -12.688   5.285  0.00  0.00    -0.086 HD
ATOM     14  H   UNL     1      -3.458 -11.093   5.032  0.00  0.00    -0.086 HD
ENDROOT
BRANCH  11  15
ATOM     15  C   UNL     1       2.479 -10.264   0.305  0.00  0.00    +0.043 A 
ATOM     16  C   UNL     1       2.048  -9.503  -0.784  0.00  0.00    +0.013 A 
ATOM     17  C   UNL     1       2.918  -8.627  -1.400  0.00  0.00    +0.004 A 
ATOM     18  C   UNL     1       4.217  -8.499  -0.943  0.00  0.00    +0.047 A 
ATOM     19  C   UNL     1       4.654  -9.252   0.139  0.00  0.00    +0.135 A 
ATOM     20  C   UNL     1       3.788 -10.130   0.768  0.00  0.00    +0.004 A 
ATOM     21  C   UNL     1       4.259 -10.943   1.946  0.00  0.00    +0.048 C 
BRANCH  19  22
ATOM     22  O   UNL     1       5.932  -9.122   0.584  0.00  0.00    -0.426 OA
BRANCH  22  23
ATOM     23  C   UNL     1       6.855  -9.973   0.109  0.00  0.00    +0.309 C 
ATOM     24  O   UNL     1       6.560 -10.761  -0.759  0.00  0.00    -0.251 OA
ATOM     25  C   UNL     1       8.258  -9.946   0.656  0.00  0.00    +0.136 C 
ENDBRANCH  22  23
ENDBRANCH  19  22
ENDBRANCH  11  15
BRANCH   1  27
ATOM     26  N   UNL     1      -1.633  -7.318   3.137  0.00  0.00    -0.305 N 
ATOM     27  C   UNL     1      -0.837  -8.201   2.501  0.00  0.00    +0.219 C 
ATOM     28  O   UNL     1       0.368  -8.124   2.615  0.00  0.00    -0.275 OA
ATOM     29  H   UNL     1      -2.596  -7.380   3.045  0.00  0.00    +0.149 HD
BRANCH  26  30
ATOM     30  C   UNL     1      -1.042  -6.266   3.967  0.00  0.00    +0.136 C 
ATOM     31  C   UNL     1      -0.668  -5.072   3.088  0.00  0.00    +0.036 C 
BRANCH  30  41
ATOM     32  C   UNL     1      -4.890  -3.740   9.815  0.00  0.00    +0.044 C 
ATOM     33  C   UNL     1      -4.543  -4.341   8.478  0.00  0.00    -0.048 A 
ATOM     34  C   UNL     1      -5.555  -4.775   7.633  0.00  0.00    +0.005 A 
ATOM     35  C   UNL     1      -5.261  -5.322   6.417  0.00  0.00    +0.030 A 
ATOM     36  C   UNL     1      -3.929  -5.450   6.014  0.00  0.00    +0.089 A 
ATOM     37  C   UNL     1      -2.904  -5.011   6.869  0.00  0.00    +0.067 A 
ATOM     38  C   UNL     1      -3.222  -4.452   8.099  0.00  0.00    +0.031 A 
ATOM     39  N   UNL     1      -1.720  -5.265   6.205  0.00  0.00    -0.340 N 
ATOM     40  H   UNL     1      -0.826  -5.075   6.532  0.00  0.00    +0.167 HD
ATOM     41  C   UNL     1      -2.039  -5.830   5.010  0.00  0.00    +0.128 A 
ATOM     42  N   UNL     1      -3.331  -5.938   4.897  0.00  0.00    -0.231 NA
ENDBRANCH  30  41
ENDBRANCH  26  30
ENDBRANCH   1  27
TORSDOF 6
