REMARK  Name = ZINC04522784
REMARK  4 active torsions:
REMARK  status: ('A' for Active; 'I' for Inactive)
REMARK    1  A    between atoms: C_1  and  N_2
REMARK    2  A    between atoms: N_2  and  C_3
REMARK    3  A    between atoms: C_15  and  N_19
REMARK    4  A    between atoms: C_20  and  C_22
REMARK                            x       y       z     vdW  Elec       q    Type
REMARK                         _______ _______ _______ _____ _____    ______ ____
ROOT
ATOM      1  C   UNL     1       5.489  -1.802   0.010  0.00  0.00    +0.048 A 
ATOM      2  C   UNL     1       5.706  -2.421  -1.220  0.00  0.00    +0.024 A 
ATOM      3  C   UNL     1       6.929  -2.990  -1.509  0.00  0.00    +0.003 A 
ATOM      4  C   UNL     1       7.960  -2.955  -0.582  0.00  0.00    +0.012 A 
ATOM      5  C   UNL     1       7.766  -2.344   0.651  0.00  0.00    +0.035 A 
ATOM      6  C   UNL     1       6.521  -1.757   0.952  0.00  0.00    +0.054 A 
ATOM      7  C   UNL     1       6.318  -1.106   2.259  0.00  0.00    +0.196 C 
ATOM      8  O   UNL     1       5.354  -0.389   2.446  0.00  0.00    -0.287 OA
ATOM      9  C   UNL     1       7.301  -1.335   3.340  0.00  0.00    +0.035 A 
ATOM     10  C   UNL     1       7.006  -0.982   4.651  0.00  0.00    +0.012 A 
ATOM     11  C   UNL     1       7.937  -1.203   5.656  0.00  0.00    +0.003 A 
ATOM     12  C   UNL     1       9.159  -1.771   5.368  0.00  0.00    +0.023 A 
ATOM     13  C   UNL     1       9.478  -2.135   4.059  0.00  0.00    +0.036 A 
ATOM     14  C   UNL     1       8.548  -1.918   3.037  0.00  0.00    +0.054 A 
ATOM     15  C   UNL     1       8.856  -2.301   1.649  0.00  0.00    +0.196 C 
ATOM     16  O   UNL     1       9.998  -2.569   1.326  0.00  0.00    -0.287 OA
ENDROOT
BRANCH   1  18
ATOM     17  C   UNL     1       4.005   0.175  -0.036  0.00  0.00    +0.138 C 
ATOM     18  N   UNL     1       4.255  -1.229   0.297  0.00  0.00    -0.270 N 
ATOM     19  C   UNL     1       3.289  -1.966   0.881  0.00  0.00    +0.251 C 
ATOM     20  O   UNL     1       3.524  -3.105   1.235  0.00  0.00    -0.270 OA
BRANCH  19  21
ATOM     21  C   UNL     1       1.945  -1.389   1.090  0.00  0.00    +0.037 A 
ATOM     22  C   UNL     1       1.807  -0.058   1.488  0.00  0.00    +0.013 A 
ATOM     23  C   UNL     1       0.549   0.474   1.681  0.00  0.00    +0.001 A 
ATOM     24  C   UNL     1      -0.575  -0.308   1.482  0.00  0.00    +0.000 A 
ATOM     25  C   UNL     1      -0.445  -1.628   1.087  0.00  0.00    +0.001 A 
ATOM     26  C   UNL     1       0.807  -2.173   0.891  0.00  0.00    +0.013 A 
ENDBRANCH  19  21
ENDBRANCH   1  18
BRANCH  13  27
ATOM     27  N   UNL     1      10.708  -2.707   3.774  0.00  0.00    -0.357 N 
ATOM     28  H   UNL     1      10.831  -3.210   2.954  0.00  0.00    +0.142 HD
ATOM     29  H   UNL     1      11.447  -2.604   4.394  0.00  0.00    +0.142 HD
ENDBRANCH  13  27
TORSDOF 3
