REMARK  Name = ZINC67179943
REMARK  7 active torsions:
REMARK  status: ('A' for Active; 'I' for Inactive)
REMARK    1  A    between atoms: C_1  and  C_2
REMARK    2  A    between atoms: C_2  and  C_3
REMARK    3  A    between atoms: C_2  and  C_4
REMARK    4  A    between atoms: C_7  and  C_11
REMARK    5  A    between atoms: C_8  and  O_10
REMARK    6  A    between atoms: N_13  and  C_14
REMARK    7  A    between atoms: C_23  and  C_26
REMARK                            x       y       z     vdW  Elec       q    Type
REMARK                         _______ _______ _______ _____ _____    ______ ____
ROOT
ATOM      1  C   UNL     1       2.906  -1.511   4.673  0.00  0.00    +0.248 C 
ATOM      2  O   UNL     1       2.322  -2.372   5.302  0.00  0.00    -0.270 OA
ATOM      3  N   UNL     1       4.170  -1.177   5.001  0.00  0.00    -0.308 N 
ATOM      4  H   UNL     1       4.636  -0.490   4.499  0.00  0.00    +0.149 HD
ENDROOT
BRANCH   3   5
ATOM      5  C   UNL     1       4.840  -1.851   6.116  0.00  0.00    +0.076 C 
ATOM      6  C   UNL     1       5.468  -3.156   5.619  0.00  0.00    +0.041 C 
ATOM      7  C   UNL     1       6.137  -3.875   6.794  0.00  0.00    +0.108 C 
ATOM      8  N   UNL     1       7.086  -2.954   7.434  0.00  0.00    -0.315 N 
ATOM      9  C   UNL     1       6.607  -1.635   7.868  0.00  0.00    +0.108 C 
ATOM     10  C   UNL     1       5.932  -0.940   6.681  0.00  0.00    +0.041 C 
ATOM     11  C   UNL     1       8.409  -3.322   7.624  0.00  0.00    +0.121 A 
ATOM     12  C   UNL     1       8.789  -4.647   7.419  0.00  0.00    +0.045 A 
ATOM     13  C   UNL     1      10.096  -5.008   7.608  0.00  0.00    +0.024 A 
ATOM     14  C   UNL     1      11.012  -4.021   8.006  0.00  0.00    +0.070 A 
ATOM     15  C   UNL     1      10.561  -2.714   8.193  0.00  0.00    +0.131 A 
ATOM     16  N   UNL     1       9.295  -2.408   7.994  0.00  0.00    -0.239 NA
BRANCH  14  17
ATOM     17  C   UNL     1      12.389  -4.352   8.216  0.00  0.00    +0.101 C 
ATOM     18  N   UNL     1      13.482  -4.614   8.383  0.00  0.00    -0.191 NA
ENDBRANCH  14  17
ENDBRANCH   3   5
BRANCH   1  22
ATOM     19  C   UNL     1       0.964   0.446   1.439  0.00  0.00    -0.041 A 
ATOM     20  C   UNL     1       2.263   0.789   1.777  0.00  0.00    +0.005 A 
ATOM     21  C   UNL     1       2.899   0.159   2.825  0.00  0.00    +0.017 A 
ATOM     22  C   UNL     1       2.231  -0.831   3.550  0.00  0.00    +0.078 A 
ATOM     23  C   UNL     1       0.918  -1.176   3.205  0.00  0.00    +0.129 A 
ATOM     24  C   UNL     1       0.291  -0.527   2.151  0.00  0.00    +0.050 A 
BRANCH  19  26
ATOM     25  C   UNL     1       0.212   2.645   0.574  0.00  0.00    +0.012 C 
ATOM     26  C   UNL     1       0.280   1.143   0.292  0.00  0.00    +0.013 C 
ATOM     27  C   UNL     1       1.070   0.901  -0.996  0.00  0.00    +0.012 C 
ENDBRANCH  19  26
BRANCH  23  28
ATOM     28  O   UNL     1       0.260  -2.136   3.902  0.00  0.00    -0.506 OA
ATOM     29  H   UNL     1      -0.238  -1.800   4.660  0.00  0.00    +0.292 HD
ENDBRANCH  23  28
ENDBRANCH   1  22
TORSDOF 5
