REMARK  Name = ZINC63732068
REMARK  13 active torsions:
REMARK  status: ('A' for Active; 'I' for Inactive)
REMARK    1  A    between atoms: C_1  and  C_2
REMARK    2  A    between atoms: C_2  and  C_3
REMARK    3  A    between atoms: C_2  and  C_4
REMARK    4  A    between atoms: C_2  and  C_5
REMARK    5  A    between atoms: C_8  and  C_11
REMARK    6  A    between atoms: N_13  and  C_14
REMARK    7  A    between atoms: C_14  and  C_16
REMARK    8  A    between atoms: C_14  and  C_26
REMARK    9  A    between atoms: C_16  and  C_17
REMARK   10  A    between atoms: C_26  and  O_28
REMARK   11  A    between atoms: O_28  and  C_29
REMARK   12  A    between atoms: C_29  and  C_30
REMARK   13  A    between atoms: C_30  and  C_32
REMARK                            x       y       z     vdW  Elec       q    Type
REMARK                         _______ _______ _______ _____ _____    ______ ____
ROOT
ATOM      1  C   UNL     1       4.667  -1.994  -6.158  0.00  0.00    +0.186 C 
ENDROOT
BRANCH   1   4
ATOM      2  C   UNL     1       2.696  -1.860  -4.732  0.00  0.00    +0.245 C 
ATOM      3  O   UNL     1       2.106  -2.559  -5.533  0.00  0.00    -0.270 OA
ATOM      4  N   UNL     1       3.981  -1.521  -4.953  0.00  0.00    -0.298 N 
ATOM      5  H   UNL     1       4.452  -0.963  -4.314  0.00  0.00    +0.150 HD
BRANCH   2   9
ATOM      6  C   UNL     1       0.707  -0.490  -1.238  0.00  0.00    -0.042 A 
ATOM      7  C   UNL     1       0.033  -1.285  -2.147  0.00  0.00    +0.005 A 
ATOM      8  C   UNL     1       0.672  -1.733  -3.284  0.00  0.00    +0.013 A 
ATOM      9  C   UNL     1       2.004  -1.383  -3.516  0.00  0.00    +0.037 A 
ATOM     10  C   UNL     1       2.679  -0.581  -2.595  0.00  0.00    +0.013 A 
ATOM     11  C   UNL     1       2.025  -0.135  -1.464  0.00  0.00    +0.005 A 
BRANCH   6  13
ATOM     12  C   UNL     1      -0.019   1.526   0.010  0.00  0.00    +0.015 C 
ATOM     13  C   UNL     1       0.002  -0.004   0.002  0.00  0.00    -0.013 C 
ATOM     14  C   UNL     1       0.742  -0.511   1.242  0.00  0.00    +0.015 C 
ATOM     15  C   UNL     1      -1.433  -0.534   0.013  0.00  0.00    +0.015 C 
ENDBRANCH   6  13
ENDBRANCH   2   9
ENDBRANCH   1   4
BRANCH   1  16
ATOM     16  C   UNL     1       6.153  -2.031  -5.909  0.00  0.00    +0.328 C 
ATOM     17  O   UNL     1       6.593  -1.698  -4.834  0.00  0.00    -0.249 OA
BRANCH  16  18
ATOM     18  O   UNL     1       6.986  -2.436  -6.880  0.00  0.00    -0.455 OA
BRANCH  18  19
ATOM     19  C   UNL     1       8.382  -2.447  -6.574  0.00  0.00    +0.311 C 
BRANCH  19  20
ATOM     20  C   UNL     1       9.156  -2.926  -7.775  0.00  0.00    +0.200 C 
ATOM     21  O   UNL     1       8.570  -3.228  -8.793  0.00  0.00    -0.288 OA
BRANCH  20  22
ATOM     22  C   UNL     1      10.623  -3.027  -7.712  0.00  0.00    +0.021 A 
ATOM     23  C   UNL     1      11.302  -2.685  -6.538  0.00  0.00    +0.011 A 
ATOM     24  C   UNL     1      12.676  -2.783  -6.488  0.00  0.00    +0.001 A 
ATOM     25  C   UNL     1      13.384  -3.219  -7.595  0.00  0.00    +0.000 A 
ATOM     26  C   UNL     1      12.719  -3.558  -8.760  0.00  0.00    +0.001 A 
ATOM     27  C   UNL     1      11.345  -3.471  -8.825  0.00  0.00    +0.011 A 
ENDBRANCH  20  22
ENDBRANCH  19  20
ENDBRANCH  18  19
ENDBRANCH  16  18
ENDBRANCH   1  16
BRANCH   1  28
ATOM     28  C   UNL     1       4.369  -1.044  -7.321  0.00  0.00    +0.067 C 
BRANCH  28  29
ATOM     29  C   UNL     1       2.900  -1.099  -7.651  0.00  0.00    -0.039 C 
ATOM     30  C   UNL     1       1.934  -0.265  -7.202  0.00  0.00    -0.001 A 
ATOM     31  C   UNL     1       1.961   0.898  -6.306  0.00  0.00    +0.010 A 
ATOM     32  C   UNL     1       0.805   1.546  -6.037  0.00  0.00    +0.001 A 
ATOM     33  C   UNL     1      -0.416   1.135  -6.590  0.00  0.00    +0.002 A 
ATOM     34  C   UNL     1      -0.521   0.077  -7.421  0.00  0.00    +0.026 A 
ATOM     35  C   UNL     1       0.632  -0.678  -7.774  0.00  0.00    +0.043 A 
ATOM     36  N   UNL     1       0.788  -1.726  -8.545  0.00  0.00    -0.380 N 
ATOM     37  C   UNL     1       2.208  -2.094  -8.555  0.00  0.00    +0.144 C 
ATOM     38  H   UNL     1       0.082  -2.180  -9.032  0.00  0.00    +0.160 HD
ENDBRANCH  28  29
ENDBRANCH   1  28
TORSDOF 10
