REMARK  Name = ZINC55119619
REMARK  10 active torsions:
REMARK  status: ('A' for Active; 'I' for Inactive)
REMARK    1  A    between atoms: C_1  and  C_2
REMARK    2  A    between atoms: C_2  and  C_3
REMARK    3  A    between atoms: C_3  and  C_5
REMARK    4  A    between atoms: C_3  and  C_6
REMARK    5  A    between atoms: C_6  and  N_7
REMARK    6  A    between atoms: N_15  and  C_23
REMARK    7  A    between atoms: C_23  and  C_25
REMARK    8  A    between atoms: C_23  and  C_26
REMARK    9  A    between atoms: N_28  and  C_29
REMARK   10  A    between atoms: C_29  and  C_30
REMARK                            x       y       z     vdW  Elec       q    Type
REMARK                         _______ _______ _______ _____ _____    ______ ____
ROOT
ATOM      1  N   UNL     1      -2.755  -2.856   0.325  0.00  0.00    +0.380 N 
ATOM      2  C   UNL     1      -3.521  -2.398  -0.841  0.00  0.00    -0.076 C 
ATOM      3  C   UNL     1      -5.006  -2.700  -0.630  0.00  0.00    +0.016 C 
ATOM      4  C   UNL     1      -5.196  -4.207  -0.449  0.00  0.00    +0.106 C 
ATOM      5  C   UNL     1      -4.330  -4.690   0.717  0.00  0.00    +0.016 C 
ATOM      6  C   UNL     1      -2.871  -4.313   0.455  0.00  0.00    -0.076 C 
ATOM      7  C   UNL     1      -6.643  -4.506  -0.160  0.00  0.00    +0.244 C 
ATOM      8  O   UNL     1      -7.040  -4.492   0.986  0.00  0.00    -0.273 OA
ATOM      9  N   UNL     1      -7.503  -4.787  -1.157  0.00  0.00    -0.256 N 
ATOM     10  C   UNL     1      -7.061  -4.856  -2.484  0.00  0.00    +0.058 A 
ATOM     11  C   UNL     1      -7.966  -4.864  -3.533  0.00  0.00    +0.025 A 
ATOM     12  C   UNL     1      -7.510  -4.937  -4.836  0.00  0.00    +0.002 A 
ATOM     13  C   UNL     1      -6.154  -5.003  -5.099  0.00  0.00    +0.002 A 
ATOM     14  C   UNL     1      -5.242  -4.994  -4.059  0.00  0.00    +0.025 A 
ATOM     15  C   UNL     1      -5.692  -4.921  -2.752  0.00  0.00    +0.050 A 
ATOM     16  N   UNL     1      -4.792  -4.904  -1.677  0.00  0.00    -0.329 N 
ATOM     17  H   UNL     1      -3.928  -5.340  -1.743  0.00  0.00    +0.147 HD
ATOM     18  H   UNL     1      -3.117  -2.415   1.157  0.00  0.00    -0.082 HD
ENDROOT
BRANCH   9  19
ATOM     19  C   UNL     1      -8.916  -5.024  -0.852  0.00  0.00    +0.164 C 
ATOM     20  C   UNL     1      -9.035  -6.174   0.149  0.00  0.00    +0.038 C 
BRANCH  19  21
ATOM     21  C   UNL     1      -9.517  -3.776  -0.257  0.00  0.00    +0.234 C 
ATOM     22  O   UNL     1      -8.832  -2.787  -0.103  0.00  0.00    -0.274 OA
ATOM     23  N   UNL     1     -10.815  -3.760   0.105  0.00  0.00    -0.314 N 
ATOM     24  H   UNL     1     -11.362  -4.551  -0.018  0.00  0.00    +0.149 HD
BRANCH  23  25
ATOM     25  C   UNL     1     -11.399  -2.547   0.683  0.00  0.00    +0.101 C 
ATOM     26  C   UNL     1     -12.874  -2.794   1.003  0.00  0.00    +0.024 C 
ENDBRANCH  23  25
ENDBRANCH  19  21
ENDBRANCH   9  19
BRANCH   1  27
ATOM     27  C   UNL     1      -1.342  -2.492   0.155  0.00  0.00    -0.076 C 
BRANCH  27  28
ATOM     28  C   UNL     1      -0.568  -2.842   1.427  0.00  0.00    -0.031 C 
ATOM     29  C   UNL     1      -1.067  -1.972   2.583  0.00  0.00    +0.005 C 
BRANCH  28  31
ATOM     30  C   UNL     1       1.711  -3.052   2.430  0.00  0.00    +0.004 C 
ATOM     31  C   UNL     1       0.924  -2.586   1.204  0.00  0.00    -0.002 C 
ENDBRANCH  28  31
ENDBRANCH  27  28
ENDBRANCH   1  27
TORSDOF 6
