REMARK  Name = ZINC20477382
REMARK  5 active torsions:
REMARK  status: ('A' for Active; 'I' for Inactive)
REMARK    1  A    between atoms: C_1  and  C_2
REMARK    2  A    between atoms: C_5  and  O_22
REMARK    3  A    between atoms: C_8  and  C_21
REMARK    4  A    between atoms: C_11  and  N_13
REMARK    5  A    between atoms: N_13  and  C_14
REMARK                            x       y       z     vdW  Elec       q    Type
REMARK                         _______ _______ _______ _____ _____    ______ ____
ROOT
ATOM      1  C   UNL     1      -1.934   4.299  -2.532  0.00  0.00    +0.044 C 
ATOM      2  C   UNL     1      -1.835   4.144  -1.036  0.00  0.00    -0.046 A 
ATOM      3  C   UNL     1      -2.545   4.993  -0.208  0.00  0.00    +0.007 A 
ATOM      4  C   UNL     1      -2.457   4.853   1.163  0.00  0.00    +0.046 A 
ATOM      5  C   UNL     1      -1.657   3.860   1.706  0.00  0.00    +0.122 A 
ATOM      6  C   UNL     1      -0.944   3.006   0.874  0.00  0.00    +0.018 A 
ATOM      7  C   UNL     1      -1.035   3.150  -0.498  0.00  0.00    -0.033 A 
ATOM      8  C   UNL     1      -0.173   2.109  -1.179  0.00  0.00    +0.019 C 
ATOM      9  C   UNL     1       0.788   1.600  -0.084  0.00  0.00    +0.035 C 
ATOM     10  C   UNL     1      -0.011   1.859   1.211  0.00  0.00    +0.105 C 
ATOM     11  C   UNL     1       0.617   2.740  -2.328  0.00  0.00    +0.012 C 
ENDROOT
BRANCH  10  12
ATOM     12  N   UNL     1      -0.781   0.669   1.579  0.00  0.00    -0.337 N 
ATOM     13  H   UNL     1      -1.073  -0.058   0.807  0.00  0.00    +0.147 HD
BRANCH  12  14
ATOM     14  C   UNL     1      -1.146   0.458   2.911  0.00  0.00    +0.028 A 
ATOM     15  C   UNL     1      -0.774   1.373   3.888  0.00  0.00    +0.024 A 
ATOM     16  C   UNL     1      -1.140   1.163   5.203  0.00  0.00    +0.016 A 
ATOM     17  C   UNL     1      -1.869   0.039   5.549  0.00  0.00    +0.013 A 
ATOM     18  C   UNL     1      -2.236  -0.876   4.580  0.00  0.00    +0.016 A 
ATOM     19  C   UNL     1      -1.877  -0.670   3.262  0.00  0.00    +0.024 A 
ATOM     20  I   UNL     1      -2.415  -0.278   7.547  0.00  0.00    -0.044 I 
ENDBRANCH  12  14
ENDBRANCH  10  12
BRANCH   5  21
ATOM     21  O   UNL     1      -1.570   3.721   3.055  0.00  0.00    -0.506 OA
ATOM     22  H   UNL     1      -0.936   2.933   3.487  0.00  0.00    +0.292 HD
ENDBRANCH   5  21
TORSDOF 3
