REMARK  Name = ZINC38596440
REMARK  14 active torsions:
REMARK  status: ('A' for Active; 'I' for Inactive)
REMARK    1  A    between atoms: C_1  and  C_2
REMARK    2  A    between atoms: C_2  and  C_4
REMARK    3  A    between atoms: C_2  and  N_24
REMARK    4  A    between atoms: C_4  and  C_6
REMARK    5  A    between atoms: C_4  and  N_11
REMARK    6  A    between atoms: N_14  and  C_17
REMARK    7  A    between atoms: C_17  and  C_18
REMARK    8  A    between atoms: N_24  and  S_25
REMARK    9  A    between atoms: S_25  and  C_28
REMARK   10  A    between atoms: C_31  and  O_34
REMARK   11  A    between atoms: O_34  and  C_35
REMARK   12  A    between atoms: C_35  and  C_36
REMARK   13  A    between atoms: C_36  and  C_37
REMARK   14  A    between atoms: C_36  and  C_38
REMARK                            x       y       z     vdW  Elec       q    Type
REMARK                         _______ _______ _______ _____ _____    ______ ____
ROOT
ATOM      1  C   UNL     1       0.606  -0.499  -1.314  0.00  0.00    +0.112 C 
ENDROOT
BRANCH   1   2
ATOM      2  N   UNL     1       0.041   0.244  -2.448  0.00  0.00    -0.297 NA
ATOM      3  C   UNL     1       0.791  -0.027  -3.682  0.00  0.00    +0.066 C 
ATOM      4  C   UNL     1       0.210   0.810  -4.824  0.00  0.00    -0.063 C 
ATOM      5  N   UNL     1      -1.208   0.470  -5.007  0.00  0.00    +0.384 N 
ATOM      6  C   UNL     1      -1.948   0.769  -3.775  0.00  0.00    -0.063 C 
ATOM      7  C   UNL     1      -1.385  -0.068  -2.624  0.00  0.00    +0.066 C 
ATOM      8  H   UNL     1      -1.293  -0.513  -5.220  0.00  0.00    -0.081 HD
BRANCH   5   9
ATOM      9  C   UNL     1      -1.761   1.260  -6.115  0.00  0.00    -0.043 C 
BRANCH   9  10
ATOM     10  C   UNL     1      -3.178   0.825  -6.384  0.00  0.00    -0.064 A 
ATOM     11  C   UNL     1      -3.429  -0.194  -7.284  0.00  0.00    +0.002 A 
ATOM     12  C   UNL     1      -4.730  -0.594  -7.530  0.00  0.00    +0.000 A 
ATOM     13  C   UNL     1      -5.779   0.025  -6.877  0.00  0.00    +0.000 A 
ATOM     14  C   UNL     1      -5.527   1.044  -5.976  0.00  0.00    +0.000 A 
ATOM     15  C   UNL     1      -4.227   1.440  -5.726  0.00  0.00    +0.002 A 
ENDBRANCH   9  10
ENDBRANCH   5   9
ENDBRANCH   1   2
BRANCH   1  16
ATOM     16  C   UNL     1       2.072  -0.177  -1.183  0.00  0.00    +0.008 A 
ATOM     17  C   UNL     1       3.113  -1.014  -0.951  0.00  0.00    +0.013 A 
ATOM     18  C   UNL     1       4.389  -0.490  -0.869  0.00  0.00    +0.008 A 
ATOM     19  C   UNL     1       4.563   0.845  -1.024  0.00  0.00    +0.045 A 
ATOM     20  S   UNL     1       2.891   1.405  -1.301  0.00  0.00    -0.100 S 
ENDBRANCH   1  16
BRANCH   1  22
ATOM     21  C   UNL     1      -0.040   1.419   0.151  0.00  0.00    +0.027 C 
ATOM     22  C   UNL     1      -0.121  -0.098  -0.029  0.00  0.00    +0.095 C 
BRANCH  22  23
ATOM     23  N   UNL     1       0.510  -0.760   1.116  0.00  0.00    -0.185 NA
ATOM     24  H   UNL     1       1.470  -0.905   1.124  0.00  0.00    +0.148 HD
BRANCH  23  25
ATOM     25  S   UNL     1      -0.413  -1.260   2.396  0.00  0.00    +0.059 S 
ATOM     26  O   UNL     1       0.473  -1.879   3.319  0.00  0.00    -0.153 OA
ATOM     27  O   UNL     1      -1.240  -0.161   2.755  0.00  0.00    -0.153 OA
BRANCH  25  28
ATOM     28  C   UNL     1      -1.486  -2.524   1.802  0.00  0.00    +0.105 A 
ATOM     29  C   UNL     1      -2.728  -2.192   1.293  0.00  0.00    +0.032 A 
ATOM     30  C   UNL     1      -3.572  -3.182   0.827  0.00  0.00    +0.047 A 
ATOM     31  C   UNL     1      -3.172  -4.510   0.870  0.00  0.00    +0.121 A 
ATOM     32  C   UNL     1      -1.925  -4.840   1.381  0.00  0.00    +0.047 A 
ATOM     33  C   UNL     1      -1.083  -3.846   1.841  0.00  0.00    +0.032 A 
BRANCH  31  34
ATOM     34  O   UNL     1      -4.000  -5.485   0.412  0.00  0.00    -0.492 OA
BRANCH  34  35
ATOM     35  C   UNL     1      -3.522  -6.830   0.487  0.00  0.00    +0.232 C 
BRANCH  35  36
ATOM     36  C   UNL     1      -4.584  -7.780  -0.069  0.00  0.00    +0.020 C 
ATOM     37  C   UNL     1      -4.784  -7.505  -1.561  0.00  0.00    +0.010 C 
ATOM     38  C   UNL     1      -4.126  -9.227   0.125  0.00  0.00    +0.010 C 
ENDBRANCH  35  36
ENDBRANCH  34  35
ENDBRANCH  31  34
ENDBRANCH  25  28
ENDBRANCH  23  25
ENDBRANCH  22  23
ENDBRANCH   1  22
TORSDOF 11
