REMARK  Name = ZINC08001090
REMARK  4 active torsions:
REMARK  status: ('A' for Active; 'I' for Inactive)
REMARK    1  A    between atoms: C_5  and  N_7
REMARK    2  A    between atoms: C_11  and  C_13
REMARK    3  A    between atoms: C_13  and  N_46
REMARK    4  A    between atoms: C_21  and  C_23
REMARK                            x       y       z     vdW  Elec       q    Type
REMARK                         _______ _______ _______ _____ _____    ______ ____
ROOT
ATOM      1  C   UNL     1       1.123   3.539   0.048  0.00  0.00    +0.020 C 
ENDROOT
BRANCH   1  10
ATOM      2  C   UNL     1       3.178   3.723  -1.220  0.00  0.00    -0.072 C 
ATOM      3  C   UNL     1       4.695   3.894  -1.028  0.00  0.00    +0.024 C 
ATOM      4  C   UNL     1       4.922   5.198  -0.337  0.00  0.00    -0.010 A 
ATOM      5  C   UNL     1       3.983   5.960   0.292  0.00  0.00    -0.046 A 
ATOM      6  C   UNL     1       4.429   7.147   0.869  0.00  0.00    +0.010 A 
ATOM      7  C   UNL     1       5.736   7.489   0.787  0.00  0.00    +0.045 A 
ATOM      8  S   UNL     1       6.421   6.118  -0.131  0.00  0.00    -0.101 S 
ATOM      9  C   UNL     1       2.534   5.486   0.334  0.00  0.00    +0.002 C 
ATOM     10  N   UNL     1       2.516   4.027   0.071  0.00  0.00    +0.393 N 
ATOM     11  H   UNL     1       3.024   3.549   0.824  0.00  0.00    -0.080 HD
BRANCH   9  12
ATOM     12  C   UNL     1       1.958   5.738   1.704  0.00  0.00    -0.019 A 
ATOM     13  C   UNL     1       1.144   6.740   2.116  0.00  0.00    +0.010 A 
ATOM     14  C   UNL     1       0.735   6.772   3.436  0.00  0.00    +0.008 A 
ATOM     15  C   UNL     1       1.160   5.799   4.279  0.00  0.00    +0.045 A 
ATOM     16  S   UNL     1       2.165   4.790   3.203  0.00  0.00    -0.103 S 
ENDBRANCH   9  12
ENDBRANCH   1  10
BRANCH   1  21
ATOM     17  N   UNL     1      -1.156  -0.694   0.009  0.00  0.00    -0.267 N 
ATOM     18  C   UNL     1       0.002  -0.005   0.009  0.00  0.00    +0.310 C 
ATOM     19  O   UNL     1       1.063  -0.598  -0.007  0.00  0.00    -0.252 OA
ATOM     20  N   UNL     1      -0.015   1.343   0.028  0.00  0.00    -0.241 N 
ATOM     21  C   UNL     1       1.143   2.032   0.028  0.00  0.00    +0.204 C 
ATOM     22  O   UNL     1       2.201   1.440   0.011  0.00  0.00    -0.277 OA
ATOM     23  H   UNL     1      -2.000  -0.223   0.088  0.00  0.00    +0.156 HD
ATOM     24  H   UNL     1      -0.861   1.817   0.037  0.00  0.00    +0.159 HD
BRANCH  17  29
ATOM     25  C   UNL     1      -0.100  -4.200   0.360  0.00  0.00    +0.002 A 
ATOM     26  C   UNL     1      -1.110  -4.849  -0.327  0.00  0.00    +0.003 A 
ATOM     27  C   UNL     1      -2.136  -4.123  -0.903  0.00  0.00    +0.040 A 
ATOM     28  C   UNL     1      -2.157  -2.745  -0.790  0.00  0.00    +0.145 A 
ATOM     29  C   UNL     1      -1.140  -2.090  -0.104  0.00  0.00    +0.070 A 
ATOM     30  C   UNL     1      -0.113  -2.823   0.473  0.00  0.00    +0.026 A 
ATOM     31  F   UNL     1      -3.162  -2.035  -1.349  0.00  0.00    -0.204 F 
ENDBRANCH  17  29
ENDBRANCH   1  21
TORSDOF 4
