REMARK  Name = ZINC36714648
REMARK  9 active torsions:
REMARK  status: ('A' for Active; 'I' for Inactive)
REMARK    1  A    between atoms: C_1  and  C_2
REMARK    2  A    between atoms: C_2  and  C_4
REMARK    3  A    between atoms: C_2  and  N_12
REMARK    4  A    between atoms: C_13  and  C_15
REMARK    5  A    between atoms: C_15  and  N_16
REMARK    6  A    between atoms: C_22  and  C_25
REMARK    7  A    between atoms: C_25  and  C_26
REMARK    8  A    between atoms: C_25  and  C_27
REMARK    9  A    between atoms: C_25  and  C_28
REMARK                            x       y       z     vdW  Elec       q    Type
REMARK                         _______ _______ _______ _____ _____    ______ ____
ROOT
ATOM      1  N   UNL     1       4.223  -1.127   2.126  0.00  0.00    -0.215 N 
ATOM      2  C   UNL     1       4.877  -2.187   1.608  0.00  0.00    +0.247 C 
ATOM      3  O   UNL     1       4.404  -3.257   1.288  0.00  0.00    -0.273 OA
ATOM      4  C   UNL     1       6.323  -1.761   1.510  0.00  0.00    +0.113 C 
ATOM      5  C   UNL     1       7.202  -2.660   2.372  0.00  0.00    +0.035 C 
ATOM      6  C   UNL     1       8.657  -2.192   2.283  0.00  0.00    +0.006 C 
ATOM      7  C   UNL     1       9.120  -2.244   0.825  0.00  0.00    -0.005 C 
ATOM      8  C   UNL     1       8.244  -1.320  -0.023  0.00  0.00    +0.006 C 
ATOM      9  C   UNL     1       6.787  -1.784   0.058  0.00  0.00    +0.035 C 
ATOM     10  N   UNL     1       6.326  -0.387   2.029  0.00  0.00    -0.285 N 
ATOM     11  C   UNL     1       5.052  -0.102   2.359  0.00  0.00    +0.310 C 
ATOM     12  O   UNL     1       4.695   0.964   2.821  0.00  0.00    -0.252 OA
ATOM     13  H   UNL     1       7.093   0.200   2.114  0.00  0.00    +0.151 HD
ENDROOT
BRANCH   7  14
ATOM     14  C   UNL     1      10.578  -1.788   0.736  0.00  0.00    -0.035 C 
ATOM     15  C   UNL     1      11.454  -2.713   1.583  0.00  0.00    +0.011 C 
ATOM     16  C   UNL     1      11.040  -1.841  -0.722  0.00  0.00    +0.011 C 
ATOM     17  C   UNL     1      10.696  -0.355   1.258  0.00  0.00    +0.011 C 
ENDBRANCH   7  14
BRANCH   1  18
ATOM     18  C   UNL     1       2.783  -1.099   2.395  0.00  0.00    +0.213 C 
BRANCH  18  20
ATOM     19  N   UNL     1       0.711  -0.489   1.189  0.00  0.00    -0.307 N 
ATOM     20  C   UNL     1       2.054  -0.600   1.174  0.00  0.00    +0.231 C 
ATOM     21  O   UNL     1       2.676  -0.297   0.177  0.00  0.00    -0.274 OA
ATOM     22  H   UNL     1       0.213  -0.731   1.986  0.00  0.00    +0.149 HD
BRANCH  19  24
ATOM     23  C   UNL     1      -0.019   1.526   0.010  0.00  0.00    +0.033 C 
ATOM     24  C   UNL     1       0.002  -0.004   0.002  0.00  0.00    +0.102 C 
BRANCH  24  25
ATOM     25  C   UNL     1      -1.412  -0.526   0.013  0.00  0.00    -0.009 A 
ATOM     26  C   UNL     1      -2.014  -0.864   1.210  0.00  0.00    +0.008 A 
ATOM     27  C   UNL     1      -3.311  -1.342   1.221  0.00  0.00    +0.020 A 
ATOM     28  C   UNL     1      -4.007  -1.483   0.033  0.00  0.00    +0.042 A 
ATOM     29  C   UNL     1      -3.404  -1.144  -1.165  0.00  0.00    +0.040 A 
ATOM     30  C   UNL     1      -2.108  -0.661  -1.175  0.00  0.00    +0.047 A 
ATOM     31 CL   UNL     1      -1.353  -0.230  -2.678  0.00  0.00    -0.083 Cl
ATOM     32 CL   UNL     1      -5.635  -2.084   0.046  0.00  0.00    -0.083 Cl
ENDBRANCH  24  25
ENDBRANCH  19  24
ENDBRANCH  18  20
ENDBRANCH   1  18
TORSDOF 5
