REMARK  Name = ZINC11591780
REMARK  10 active torsions:
REMARK  status: ('A' for Active; 'I' for Inactive)
REMARK    1  A    between atoms: C_1  and  C_2
REMARK    2  A    between atoms: C_2  and  O_3
REMARK    3  A    between atoms: O_3  and  C_4
REMARK    4  A    between atoms: C_4  and  C_6
REMARK    5  A    between atoms: C_10  and  N_11
REMARK    6  A    between atoms: C_12  and  C_14
REMARK    7  A    between atoms: C_14  and  S_15
REMARK    8  A    between atoms: S_15  and  C_16
REMARK    9  A    between atoms: C_19  and  C_22
REMARK   10  A    between atoms: N_20  and  N_21
REMARK                            x       y       z     vdW  Elec       q    Type
REMARK                         _______ _______ _______ _____ _____    ______ ____
ROOT
ATOM      1  N   UNL     1      -5.946   4.124   0.049  0.00  0.00    -0.279 N 
ATOM      2  C   UNL     1      -5.121   3.058   0.039  0.00  0.00    +0.228 C 
ATOM      3  O   UNL     1      -5.580   1.936   0.035  0.00  0.00    -0.275 OA
ATOM      4  H   UNL     1      -5.579   5.021   0.052  0.00  0.00    +0.155 HD
ENDROOT
BRANCH   1   9
ATOM      5  C   UNL     1      -8.319   4.896   0.068  0.00  0.00    +0.091 A 
ATOM      6  C   UNL     1      -9.705   4.429   0.066  0.00  0.00    -0.021 A 
ATOM      7  C   UNL     1      -9.858   3.093   0.059  0.00  0.00    -0.004 A 
ATOM      8  S   UNL     1      -8.202   2.448   0.049  0.00  0.00    -0.077 S 
ATOM      9  C   UNL     1      -7.319   3.937   0.053  0.00  0.00    +0.086 A 
ATOM     10  C   UNL     1     -11.307   2.690   0.059  0.00  0.00    +0.043 C 
ATOM     11  C   UNL     1     -12.066   3.966  -0.369  0.00  0.00    +0.010 C 
ATOM     12  C   UNL     1     -11.091   5.075   0.076  0.00  0.00    +0.037 C 
BRANCH   5  13
ATOM     13  C   UNL     1      -7.999   6.325   0.081  0.00  0.00    +0.342 C 
ATOM     14  O   UNL     1      -7.872   6.929  -0.967  0.00  0.00    -0.245 OA
BRANCH  13  15
ATOM     15  O   UNL     1      -7.846   6.971   1.255  0.00  0.00    -0.461 OA
BRANCH  15  17
ATOM     16  C   UNL     1      -7.395   8.943   2.611  0.00  0.00    +0.048 C 
ATOM     17  C   UNL     1      -7.530   8.387   1.192  0.00  0.00    +0.229 C 
ENDBRANCH  15  17
ENDBRANCH  13  15
ENDBRANCH   5  13
ENDBRANCH   1   9
BRANCH   2  18
ATOM     18  C   UNL     1      -3.628   3.261   0.034  0.00  0.00    +0.173 C 
BRANCH  18  19
ATOM     19  S   UNL     1      -2.800   1.652   0.022  0.00  0.00    -0.075 S 
BRANCH  19  20
ATOM     20  C   UNL     1      -1.117   2.173   0.018  0.00  0.00    +0.209 A 
ATOM     21  N   UNL     1      -0.686   3.414   0.027  0.00  0.00    -0.121 NA
ATOM     22  N   UNL     1       0.599   3.437   0.015  0.00  0.00    -0.126 NA
ATOM     23  C   UNL     1       1.069   2.209   0.004  0.00  0.00    +0.188 A 
ATOM     24  N   UNL     1      -0.016   1.362   0.009  0.00  0.00    -0.223 N 
BRANCH  23  25
ATOM     25  C   UNL     1       2.487   1.815  -0.012  0.00  0.00    +0.058 A 
ATOM     26  C   UNL     1       3.593   2.575  -0.300  0.00  0.00    +0.019 A 
ATOM     27  C   UNL     1       4.834   1.983  -0.245  0.00  0.00    +0.008 A 
ATOM     28  C   UNL     1       4.926   0.667   0.080  0.00  0.00    +0.046 A 
ATOM     29  S   UNL     1       3.216   0.222   0.331  0.00  0.00    -0.093 S 
ENDBRANCH  23  25
BRANCH  24  30
ATOM     30  N   UNL     1       0.002  -0.004   0.002  0.00  0.00    -0.295 N 
ATOM     31  H   UNL     1       0.016  -0.371   0.942  0.00  0.00    +0.163 HD
ATOM     32  H   UNL     1      -0.779  -0.373  -0.519  0.00  0.00    +0.163 HD
ENDBRANCH  24  30
ENDBRANCH  19  20
ENDBRANCH  18  19
ENDBRANCH   2  18
TORSDOF 9
