REMARK  Name = ZINC04872800
REMARK  6 active torsions:
REMARK  status: ('A' for Active; 'I' for Inactive)
REMARK    1  A    between atoms: C_5  and  C_7
REMARK    2  A    between atoms: C_7  and  C_9
REMARK    3  A    between atoms: C_7  and  N_21
REMARK    4  A    between atoms: N_13  and  C_14
REMARK    5  A    between atoms: C_14  and  C_15
REMARK    6  A    between atoms: C_24  and  C_27
REMARK                            x       y       z     vdW  Elec       q    Type
REMARK                         _______ _______ _______ _____ _____    ______ ____
ROOT
ATOM      1  C   UNL     1       1.271  -2.082  -0.057  0.00  0.00    +0.035 C 
ENDROOT
BRANCH   1   6
ATOM      2  C   UNL     1      -0.043   1.454  -0.224  0.00  0.00    +0.000 A 
ATOM      3  C   UNL     1       1.131   2.185  -0.217  0.00  0.00    +0.001 A 
ATOM      4  C   UNL     1       2.349   1.536  -0.158  0.00  0.00    +0.020 A 
ATOM      5  C   UNL     1       2.396   0.154  -0.106  0.00  0.00    +0.043 A 
ATOM      6  C   UNL     1       1.222  -0.577  -0.113  0.00  0.00    -0.035 A 
ATOM      7  C   UNL     1       0.003   0.073  -0.172  0.00  0.00    +0.004 A 
ATOM      8 CL   UNL     1       3.926  -0.661  -0.033  0.00  0.00    -0.083 Cl
ENDBRANCH   1   6
BRANCH   1   9
ATOM      9  N   UNL     1       0.053  -2.588   0.590  0.00  0.00    +0.389 N 
ATOM     10  C   UNL     1       0.099  -4.055   0.636  0.00  0.00    -0.077 C 
ATOM     11  C   UNL     1      -1.203  -4.591   1.235  0.00  0.00    -0.006 C 
ATOM     12  C   UNL     1      -1.371  -4.039   2.654  0.00  0.00    +0.071 C 
ATOM     13  C   UNL     1      -1.342  -2.509   2.603  0.00  0.00    -0.006 C 
ATOM     14  C   UNL     1      -0.035  -2.050   1.953  0.00  0.00    -0.077 C 
ATOM     15  H   UNL     1      -0.754  -2.295   0.061  0.00  0.00    -0.080 HD
BRANCH  12  16
ATOM     16  C   UNL     1      -2.688  -4.500   3.221  0.00  0.00    +0.213 C 
ATOM     17  O   UNL     1      -3.423  -5.201   2.558  0.00  0.00    -0.276 OA
ATOM     18  N   UNL     1      -3.051  -4.133   4.467  0.00  0.00    -0.329 N 
ATOM     19  H   UNL     1      -2.463  -3.573   4.998  0.00  0.00    +0.145 HD
ATOM     20  H   UNL     1      -3.899  -4.430   4.832  0.00  0.00    +0.145 HD
ENDBRANCH  12  16
ENDBRANCH   1   9
BRANCH   1  21
ATOM     21  C   UNL     1       1.363  -2.634  -1.456  0.00  0.00    +0.142 A 
ATOM     22  N   UNL     1       0.438  -2.576  -2.383  0.00  0.00    -0.115 NA
ATOM     23  N   UNL     1       0.894  -3.158  -3.438  0.00  0.00    -0.023 NA
ATOM     24  N   UNL     1       2.087  -3.586  -3.209  0.00  0.00    -0.044 NA
ATOM     25  N   UNL     1       2.413  -3.277  -1.999  0.00  0.00    -0.228 N 
BRANCH  25  26
ATOM     26  C   UNL     1       3.687  -3.574  -1.340  0.00  0.00    +0.178 C 
BRANCH  26  27
ATOM     27  C   UNL     1       3.666  -5.011  -0.814  0.00  0.00    +0.140 C 
ATOM     28  C   UNL     1       5.038  -5.376  -0.192  0.00  0.00    +0.035 C 
ATOM     29  C   UNL     1       4.624  -6.502   0.794  0.00  0.00    +0.031 C 
ATOM     30  C   UNL     1       3.225  -6.038   1.253  0.00  0.00    +0.160 C 
ATOM     31  O   UNL     1       2.720  -5.135   0.260  0.00  0.00    -0.375 OA
ENDBRANCH  26  27
ENDBRANCH  25  26
ENDBRANCH   1  21
TORSDOF 6
