REMARK  Name = ZINC03353061
REMARK  5 active torsions:
REMARK  status: ('A' for Active; 'I' for Inactive)
REMARK    1  A    between atoms: C_7  and  C_13
REMARK    2  A    between atoms: C_13  and  C_14
REMARK    3  A    between atoms: N_16  and  C_17
REMARK    4  A    between atoms: C_17  and  C_18
REMARK    5  A    between atoms: C_18  and  N_58
REMARK                            x       y       z     vdW  Elec       q    Type
REMARK                         _______ _______ _______ _____ _____    ______ ____
ROOT
ATOM      1  C   UNL     1      -4.785   4.927  -2.079  0.00  0.00    +0.219 C 
ATOM      2  O   UNL     1      -4.533   5.674  -3.001  0.00  0.00    -0.275 OA
ATOM      3  N   UNL     1      -3.872   4.723  -1.109  0.00  0.00    -0.316 N 
ATOM      4  H   UNL     1      -4.074   4.125  -0.372  0.00  0.00    +0.149 HD
ENDROOT
BRANCH   1   5
ATOM      5  C   UNL     1      -6.119   4.228  -2.019  0.00  0.00    +0.153 C 
BRANCH   5  12
ATOM      6  C   UNL     1     -10.109   2.697  -2.668  0.00  0.00    +0.001 A 
ATOM      7  C   UNL     1     -10.851   3.081  -3.777  0.00  0.00    +0.001 A 
ATOM      8  C   UNL     1     -10.330   3.961  -4.701  0.00  0.00    +0.014 A 
ATOM      9  C   UNL     1      -9.045   4.468  -4.514  0.00  0.00    +0.050 A 
ATOM     10  C   UNL     1      -8.291   4.071  -3.387  0.00  0.00    +0.011 A 
ATOM     11  C   UNL     1      -8.847   3.181  -2.465  0.00  0.00    +0.010 A 
ATOM     12  C   UNL     1      -6.948   4.624  -3.213  0.00  0.00    +0.078 A 
ATOM     13  N   UNL     1      -6.468   5.454  -4.091  0.00  0.00    -0.175 NA
ATOM     14  N   UNL     1      -7.187   5.859  -5.216  0.00  0.00    -0.242 N 
ATOM     15  H   UNL     1      -6.765   6.500  -5.858  0.00  0.00    +0.192 HD
ATOM     16  C   UNL     1      -8.435   5.409  -5.462  0.00  0.00    +0.272 A 
ATOM     17  O   UNL     1      -9.043   5.776  -6.451  0.00  0.00    -0.266 OA
ENDBRANCH   5  12
ENDBRANCH   1   5
BRANCH   3  18
ATOM     18  C   UNL     1      -2.576   5.402  -1.168  0.00  0.00    +0.092 C 
BRANCH  18  19
ATOM     19  C   UNL     1      -1.734   5.000   0.044  0.00  0.00    -0.050 C 
ATOM     20  C   UNL     1      -0.380   5.710  -0.017  0.00  0.00    -0.010 C 
ATOM     21  C   UNL     1      -0.597   7.224  -0.007  0.00  0.00    -0.001 C 
ATOM     22  C   UNL     1      -1.326   7.626   1.277  0.00  0.00    -0.000 C 
ATOM     23  C   UNL     1      -2.680   6.916   1.338  0.00  0.00    -0.001 C 
ATOM     24  C   UNL     1      -2.463   5.402   1.328  0.00  0.00    -0.010 C 
BRANCH  19  30
ATOM     25  C   UNL     1      -0.826   3.122  -1.185  0.00  0.00    -0.078 C 
ATOM     26  C   UNL     1      -0.756   1.594  -1.230  0.00  0.00    -0.019 C 
ATOM     27  C   UNL     1      -0.013   1.086   0.008  0.00  0.00    -0.004 C 
ATOM     28  C   UNL     1      -0.732   1.581   1.266  0.00  0.00    -0.019 C 
ATOM     29  C   UNL     1      -0.804   3.109   1.238  0.00  0.00    -0.078 C 
ATOM     30  N   UNL     1      -1.552   3.533   0.035  0.00  0.00    +0.384 N 
ATOM     31  H   UNL     1      -2.475   3.083   0.041  0.00  0.00    -0.081 HD
ENDBRANCH  19  30
ENDBRANCH  18  19
ENDBRANCH   3  18
TORSDOF 5
