REMARK  Name = ZINC63229180
REMARK  6 active torsions:
REMARK  status: ('A' for Active; 'I' for Inactive)
REMARK    1  A    between atoms: C_1  and  C_2
REMARK    2  A    between atoms: C_7  and  N_8
REMARK    3  A    between atoms: C_12  and  N_13
REMARK    4  A    between atoms: N_13  and  C_14
REMARK    5  A    between atoms: C_14  and  C_15
REMARK    6  A    between atoms: C_15  and  C_16
REMARK                            x       y       z     vdW  Elec       q    Type
REMARK                         _______ _______ _______ _____ _____    ______ ____
ROOT
ATOM      1  N   UNL     1       0.028   0.338   2.259  0.00  0.00    -0.217 N 
ATOM      2  C   UNL     1      -1.131   0.439   2.942  0.00  0.00    +0.263 C 
ATOM      3  O   UNL     1      -2.145  -0.099   2.535  0.00  0.00    -0.269 OA
ATOM      4  C   UNL     1      -1.138   1.216   4.193  0.00  0.00    +0.113 C 
ATOM      5  C   UNL     1      -2.288   1.363   4.946  0.00  0.00    +0.085 C 
ATOM      6  C   UNL     1       0.137   1.831   4.608  0.00  0.00    +0.256 C 
ATOM      7  O   UNL     1       0.210   2.488   5.629  0.00  0.00    -0.270 OA
ATOM      8  N   UNL     1       1.219   1.645   3.824  0.00  0.00    -0.263 N 
ATOM      9  C   UNL     1       1.153   0.920   2.699  0.00  0.00    +0.150 C 
ATOM     10  S   UNL     1       2.578   0.732   1.770  0.00  0.00    -0.018 S 
ATOM     11  H   UNL     1       2.065   2.043   4.082  0.00  0.00    +0.157 HD
ENDROOT
BRANCH   1  18
ATOM     12  C   UNL     1      -0.510   1.705  -0.178  0.00  0.00    +0.045 C 
ATOM     13  C   UNL     1      -0.198   0.231  -0.144  0.00  0.00    -0.029 A 
ATOM     14  C   UNL     1      -0.162  -0.495  -1.319  0.00  0.00    +0.005 A 
ATOM     15  C   UNL     1       0.124  -1.848  -1.288  0.00  0.00    +0.000 A 
ATOM     16  C   UNL     1       0.375  -2.477  -0.083  0.00  0.00    +0.002 A 
ATOM     17  C   UNL     1       0.341  -1.757   1.095  0.00  0.00    +0.024 A 
ATOM     18  C   UNL     1       0.058  -0.397   1.067  0.00  0.00    +0.046 A 
ENDBRANCH   1  18
BRANCH   5  19
ATOM     19  N   UNL     1      -2.228   1.939   6.164  0.00  0.00    -0.349 N 
ATOM     20  H   UNL     1      -1.368   2.177   6.546  0.00  0.00    +0.146 HD
BRANCH  19  21
ATOM     21  C   UNL     1      -3.460   2.204   6.910  0.00  0.00    +0.105 C 
BRANCH  21  22
ATOM     22  C   UNL     1      -3.114   2.857   8.250  0.00  0.00    +0.052 C 
BRANCH  22  23
ATOM     23  C   UNL     1      -4.382   3.130   9.018  0.00  0.00    -0.040 C 
ATOM     24  C   UNL     1      -4.946   2.344   9.963  0.00  0.00    -0.001 A 
ATOM     25  C   UNL     1      -4.563   1.048  10.536  0.00  0.00    +0.010 A 
ATOM     26  C   UNL     1      -5.347   0.495  11.489  0.00  0.00    +0.001 A 
ATOM     27  C   UNL     1      -6.513   1.127  11.943  0.00  0.00    +0.002 A 
ATOM     28  C   UNL     1      -6.930   2.318  11.464  0.00  0.00    +0.026 A 
ATOM     29  C   UNL     1      -6.182   2.991  10.459  0.00  0.00    +0.043 A 
ATOM     30  N   UNL     1      -6.374   4.133   9.844  0.00  0.00    -0.380 N 
ATOM     31  C   UNL     1      -5.278   4.342   8.892  0.00  0.00    +0.144 C 
ATOM     32  H   UNL     1      -7.115   4.739   9.996  0.00  0.00    +0.160 HD
ENDBRANCH  22  23
ENDBRANCH  21  22
ENDBRANCH  19  21
ENDBRANCH   5  19
TORSDOF 5
