REMARK  Name = ZINC06720425
REMARK  8 active torsions:
REMARK  status: ('A' for Active; 'I' for Inactive)
REMARK    1  A    between atoms: C_1  and  C_2
REMARK    2  A    between atoms: C_2  and  C_3
REMARK    3  A    between atoms: C_3  and  C_4
REMARK    4  A    between atoms: C_4  and  C_5
REMARK    5  A    between atoms: C_17  and  C_19
REMARK    6  A    between atoms: C_22  and  O_27
REMARK    7  A    between atoms: C_23  and  O_25
REMARK    8  A    between atoms: O_25  and  C_26
REMARK                            x       y       z     vdW  Elec       q    Type
REMARK                         _______ _______ _______ _____ _____    ______ ____
ROOT
ATOM      1  C   UNL     1       7.071   2.127   0.709  0.00  0.00    +0.221 C 
ATOM      2  O   UNL     1       7.454   2.113  -0.442  0.00  0.00    -0.275 OA
ATOM      3  N   UNL     1       5.899   2.715   1.022  0.00  0.00    -0.258 N 
ATOM      4  C   UNL     1       5.470   2.725   2.349  0.00  0.00    +0.058 A 
ATOM      5  C   UNL     1       5.109   1.555   3.000  0.00  0.00    +0.025 A 
ATOM      6  C   UNL     1       4.615   1.618   4.290  0.00  0.00    +0.002 A 
ATOM      7  C   UNL     1       4.481   2.837   4.932  0.00  0.00    +0.002 A 
ATOM      8  C   UNL     1       4.863   4.005   4.294  0.00  0.00    +0.025 A 
ATOM      9  C   UNL     1       5.374   3.941   3.010  0.00  0.00    +0.053 A 
ATOM     10  N   UNL     1       5.822   5.067   2.329  0.00  0.00    -0.316 N 
ATOM     11  C   UNL     1       5.268   5.554   1.189  0.00  0.00    +0.017 C 
ATOM     12  C   UNL     1       4.945   4.822   0.112  0.00  0.00    +0.037 C 
ATOM     13  C   UNL     1       5.106   3.325  -0.024  0.00  0.00    +0.147 C 
ATOM     14  C   UNL     1       4.404   5.443  -1.039  0.00  0.00    +0.163 C 
ATOM     15  O   UNL     1       4.107   4.752  -1.993  0.00  0.00    -0.292 OA
ATOM     16  C   UNL     1       4.183   6.923  -1.122  0.00  0.00    +0.080 C 
ATOM     17  C   UNL     1       5.197   7.621  -0.208  0.00  0.00    +0.014 C 
ATOM     18  C   UNL     1       5.020   7.054   1.200  0.00  0.00    +0.051 C 
ATOM     19  H   UNL     1       6.585   5.541   2.696  0.00  0.00    +0.152 HD
ENDROOT
BRANCH  13  20
ATOM     20  C   UNL     1       3.738   2.693  -0.018  0.00  0.00    -0.018 A 
ATOM     21  C   UNL     1       2.936   2.797   1.103  0.00  0.00    +0.009 A 
ATOM     22  C   UNL     1       1.677   2.224   1.111  0.00  0.00    +0.049 A 
ATOM     23  C   UNL     1       1.223   1.535  -0.002  0.00  0.00    +0.158 A 
ATOM     24  C   UNL     1       2.030   1.431  -1.130  0.00  0.00    +0.162 A 
ATOM     25  C   UNL     1       3.288   2.012  -1.134  0.00  0.00    +0.055 A 
BRANCH  24  26
ATOM     26  O   UNL     1       1.586   0.761  -2.227  0.00  0.00    -0.491 OA
ATOM     27  C   UNL     1       2.469   0.695  -3.349  0.00  0.00    +0.277 C 
ENDBRANCH  24  26
BRANCH  23  28
ATOM     28  O   UNL     1      -0.013   0.966   0.007  0.00  0.00    -0.503 OA
ATOM     29  H   UNL     1      -0.023   0.053   0.326  0.00  0.00    +0.292 HD
ENDBRANCH  23  28
ENDBRANCH  13  20
BRANCH   1  30
ATOM     30  C   UNL     1       7.906   1.489   1.789  0.00  0.00    +0.096 C 
BRANCH  30  31
ATOM     31  C   UNL     1       9.175   0.899   1.171  0.00  0.00    +0.009 C 
BRANCH  31  33
ATOM     32  C   UNL     1      11.292  -0.339   1.649  0.00  0.00    +0.004 C 
ATOM     33  C   UNL     1      10.023   0.251   2.267  0.00  0.00    -0.003 C 
ENDBRANCH  31  33
ENDBRANCH  30  31
ENDBRANCH   1  30
TORSDOF 6
