REMARK  Name = ZINC04993885
REMARK  10 active torsions:
REMARK  status: ('A' for Active; 'I' for Inactive)
REMARK    1  A    between atoms: C_1  and  C_2
REMARK    2  A    between atoms: C_3  and  C_22
REMARK    3  A    between atoms: C_4  and  C_10
REMARK    4  A    between atoms: C_13  and  O_18
REMARK    5  A    between atoms: C_14  and  O_16
REMARK    6  A    between atoms: O_16  and  C_17
REMARK    7  A    between atoms: O_18  and  C_19
REMARK    8  A    between atoms: C_19  and  C_20
REMARK    9  A    between atoms: N_24  and  C_25
REMARK   10  A    between atoms: C_25  and  C_26
REMARK                            x       y       z     vdW  Elec       q    Type
REMARK                         _______ _______ _______ _____ _____    ______ ____
ROOT
ATOM      1  C   UNL     1       1.983   1.554   1.164  0.00  0.00    +0.061 C 
ATOM      2  C   UNL     1       0.670   2.292   1.118  0.00  0.00    +0.017 C 
ATOM      3  C   UNL     1      -0.471   1.604   0.907  0.00  0.00    +0.055 C 
ATOM      4  C   UNL     1      -1.768   2.387   0.862  0.00  0.00    +0.139 C 
ATOM      5  N   UNL     1      -1.677   3.842   1.065  0.00  0.00    -0.315 N 
ATOM      6  C   UNL     1      -0.460   4.387   1.265  0.00  0.00    +0.135 C 
ATOM      7  S   UNL     1      -0.337   6.079   1.495  0.00  0.00    -0.019 S 
ATOM      8  N   UNL     1       0.656   3.647   1.289  0.00  0.00    -0.300 N 
ATOM      9  H   UNL     1      -2.473   4.397   1.051  0.00  0.00    +0.149 HD
ATOM     10  H   UNL     1       1.501   4.099   1.438  0.00  0.00    +0.154 HD
ENDROOT
BRANCH   4  11
ATOM     11  C   UNL     1      -2.414   2.139  -0.477  0.00  0.00    -0.019 A 
ATOM     12  C   UNL     1      -1.899   2.737  -1.612  0.00  0.00    +0.009 A 
ATOM     13  C   UNL     1      -2.488   2.513  -2.843  0.00  0.00    +0.050 A 
ATOM     14  C   UNL     1      -3.596   1.687  -2.940  0.00  0.00    +0.162 A 
ATOM     15  C   UNL     1      -4.114   1.085  -1.798  0.00  0.00    +0.162 A 
ATOM     16  C   UNL     1      -3.516   1.310  -0.568  0.00  0.00    +0.055 A 
BRANCH  15  17
ATOM     17  O   UNL     1      -5.202   0.273  -1.888  0.00  0.00    -0.491 OA
ATOM     18  C   UNL     1      -5.724  -0.251  -0.666  0.00  0.00    +0.277 C 
ENDBRANCH  15  17
BRANCH  14  19
ATOM     19  O   UNL     1      -4.176   1.464  -4.150  0.00  0.00    -0.484 OA
BRANCH  19  20
ATOM     20  C   UNL     1      -3.590   2.114  -5.280  0.00  0.00    +0.256 C 
BRANCH  20  21
ATOM     21  C   UNL     1      -4.360   1.752  -6.523  0.00  0.00    +0.006 C 
ATOM     22  C   UNL     1      -4.682   2.682  -7.388  0.00  0.00    +0.007 C 
ENDBRANCH  20  21
ENDBRANCH  19  20
ENDBRANCH  14  19
ENDBRANCH   4  11
BRANCH   3  23
ATOM     23  C   UNL     1      -0.457   0.199   0.728  0.00  0.00    +0.244 C 
ATOM     24  O   UNL     1      -0.780  -0.534   1.645  0.00  0.00    -0.270 OA
ATOM     25  N   UNL     1      -0.087  -0.325  -0.457  0.00  0.00    -0.307 N 
ATOM     26  H   UNL     1       0.243   0.253  -1.162  0.00  0.00    +0.149 HD
BRANCH  25  27
ATOM     27  C   UNL     1      -0.184  -1.770  -0.681  0.00  0.00    +0.139 C 
BRANCH  27  28
ATOM     28  C   UNL     1       0.397  -2.110  -2.029  0.00  0.00    -0.030 A 
ATOM     29  C   UNL     1      -0.430  -2.219  -3.131  0.00  0.00    +0.005 A 
ATOM     30  C   UNL     1       0.104  -2.525  -4.369  0.00  0.00    +0.000 A 
ATOM     31  C   UNL     1       1.464  -2.733  -4.502  0.00  0.00    +0.000 A 
ATOM     32  C   UNL     1       2.291  -2.630  -3.399  0.00  0.00    +0.000 A 
ATOM     33  C   UNL     1       1.757  -2.318  -2.163  0.00  0.00    +0.005 A 
ENDBRANCH  27  28
ENDBRANCH  25  27
ENDBRANCH   3  23
TORSDOF 8
