REMARK  Name = ZINC37640610
REMARK  5 active torsions:
REMARK  status: ('A' for Active; 'I' for Inactive)
REMARK    1  A    between atoms: C_6  and  N_7
REMARK    2  A    between atoms: C_8  and  C_10
REMARK    3  A    between atoms: C_10  and  N_11
REMARK    4  A    between atoms: N_19  and  C_22
REMARK    5  A    between atoms: C_22  and  C_23
REMARK                            x       y       z     vdW  Elec       q    Type
REMARK                         _______ _______ _______ _____ _____    ______ ____
ROOT
ATOM      1  N   UNL     1      -2.193  -4.261  -0.311  0.00  0.00    -0.251 N 
ATOM      2  C   UNL     1      -2.022  -4.805  -1.530  0.00  0.00    +0.266 A 
ATOM      3  O   UNL     1      -2.103  -4.117  -2.530  0.00  0.00    -0.267 OA
ATOM      4  C   UNL     1      -1.734  -6.252  -1.637  0.00  0.00    +0.074 A 
ATOM      5  C   UNL     1      -1.513  -7.048  -2.854  0.00  0.00    -0.023 A 
ATOM      6  C   UNL     1      -1.271  -8.350  -2.637  0.00  0.00    -0.004 A 
ATOM      7  S   UNL     1      -1.329  -8.529  -0.872  0.00  0.00    -0.075 S 
ATOM      8  C   UNL     1      -1.661  -6.952  -0.438  0.00  0.00    +0.097 A 
ATOM      9  N   UNL     1      -1.849  -6.317   0.764  0.00  0.00    -0.278 N 
ATOM     10  C   UNL     1      -2.104  -4.996   0.809  0.00  0.00    +0.334 A 
ATOM     11  O   UNL     1      -2.262  -4.457   1.888  0.00  0.00    -0.246 OA
ATOM     12  C   UNL     1      -1.059  -9.104  -3.922  0.00  0.00    +0.043 C 
ATOM     13  C   UNL     1      -1.624  -8.174  -5.018  0.00  0.00    +0.010 C 
ATOM     14  C   UNL     1      -1.479  -6.787  -4.358  0.00  0.00    +0.037 C 
ENDROOT
BRANCH   1  15
ATOM     15  C   UNL     1      -2.478  -2.828  -0.204  0.00  0.00    +0.226 C 
BRANCH  15  17
ATOM     16  N   UNL     1      -1.200  -0.722   0.010  0.00  0.00    -0.284 N 
ATOM     17  C   UNL     1      -1.183  -2.065  -0.099  0.00  0.00    +0.237 C 
ATOM     18  O   UNL     1      -0.126  -2.659  -0.113  0.00  0.00    -0.274 OA
ATOM     19  H   UNL     1      -2.044  -0.252   0.098  0.00  0.00    +0.155 HD
BRANCH  16  25
ATOM     20  C   UNL     1       1.072  -0.453  -0.766  0.00  0.00    +0.024 A 
ATOM     21  C   UNL     1       2.256   0.258  -0.778  0.00  0.00    +0.017 A 
ATOM     22  C   UNL     1       2.377   1.416  -0.032  0.00  0.00    +0.018 A 
ATOM     23  C   UNL     1       1.312   1.866   0.729  0.00  0.00    +0.017 A 
ATOM     24  C   UNL     1       0.126   1.159   0.745  0.00  0.00    +0.024 A 
ATOM     25  C   UNL     1       0.002  -0.004  -0.004  0.00  0.00    +0.034 A 
ATOM     26 BR   UNL     1       4.000   2.387  -0.051  0.00  0.00    -0.050 Br
ENDBRANCH  16  25
ENDBRANCH  15  17
ENDBRANCH   1  15
BRANCH   9  27
ATOM     27  C   UNL     1      -1.766  -7.084   2.010  0.00  0.00    +0.222 C 
BRANCH  27  28
ATOM     28  C   UNL     1      -0.345  -7.075   2.512  0.00  0.00    +0.230 C 
ATOM     29  O   UNL     1       0.514  -6.487   1.891  0.00  0.00    -0.274 OA
ATOM     30  N   UNL     1      -0.029  -7.721   3.652  0.00  0.00    -0.328 N 
ATOM     31  H   UNL     1      -0.717  -8.191   4.150  0.00  0.00    +0.145 HD
ATOM     32  H   UNL     1       0.885  -7.715   3.975  0.00  0.00    +0.145 HD
ENDBRANCH  27  28
ENDBRANCH   9  27
TORSDOF 5
