REMARK  Name = ZINC38742221
REMARK  6 active torsions:
REMARK  status: ('A' for Active; 'I' for Inactive)
REMARK    1  A    between atoms: C_1  and  C_2
REMARK    2  A    between atoms: C_4  and  C_8
REMARK    3  A    between atoms: C_16  and  C_18
REMARK    4  A    between atoms: C_19  and  C_20
REMARK    5  A    between atoms: C_23  and  O_26
REMARK    6  A    between atoms: O_26  and  C_27
REMARK                            x       y       z     vdW  Elec       q    Type
REMARK                         _______ _______ _______ _____ _____    ______ ____
ROOT
ATOM      1  C   UNL     1      -0.976  -2.937  -1.266  0.00  0.00    +0.206 C 
ATOM      2  N   UNL     1      -2.455  -2.963  -1.351  0.00  0.00    -0.231 NA
ATOM      3  N   UNL     1      -2.858  -4.373  -1.218  0.00  0.00    -0.224 NA
ATOM      4  C   UNL     1      -1.724  -4.975  -0.488  0.00  0.00    +0.240 C 
ATOM      5  N   UNL     1      -0.555  -4.355  -1.196  0.00  0.00    -0.206 N 
ATOM      6  N   UNL     1       0.404  -5.264  -1.587  0.00  0.00    -0.174 NA
ATOM      7  C   UNL     1       0.180  -6.550  -1.637  0.00  0.00    +0.118 C 
ATOM      8  S   UNL     1      -1.492  -6.734  -0.939  0.00  0.00    -0.063 S 
ATOM      9  H   UNL     1      -2.869  -2.399  -0.624  0.00  0.00    +0.143 HD
ATOM     10  H   UNL     1      -2.974  -4.803  -2.124  0.00  0.00    +0.144 HD
ENDROOT
BRANCH   1  14
ATOM     11  C   UNL     1      -0.018   1.503   0.010  0.00  0.00    +0.067 C 
ATOM     12  C   UNL     1       0.002  -0.004   0.002  0.00  0.00    +0.058 C 
ATOM     13  C   UNL     1      -1.086  -0.777   0.003  0.00  0.00    +0.029 C 
ATOM     14  C   UNL     1      -0.531  -2.190  -0.007  0.00  0.00    +0.190 C 
ATOM     15  N   UNL     1       0.926  -1.973  -0.013  0.00  0.00    -0.177 NA
ATOM     16  N   UNL     1       1.125  -0.756  -0.013  0.00  0.00    -0.159 NA
ENDBRANCH   1  14
BRANCH   7  17
ATOM     17  C   UNL     1       1.072  -7.604  -2.130  0.00  0.00    +0.037 C 
ATOM     18  C   UNL     1       2.291  -7.285  -2.606  0.00  0.00    +0.010 C 
BRANCH  18  19
ATOM     19  C   UNL     1       3.187  -8.344  -3.101  0.00  0.00    -0.025 A 
ATOM     20  C   UNL     1       2.772  -9.679  -3.083  0.00  0.00    +0.011 A 
ATOM     21  C   UNL     1       3.615 -10.666  -3.548  0.00  0.00    +0.046 A 
ATOM     22  C   UNL     1       4.873 -10.336  -4.033  0.00  0.00    +0.120 A 
ATOM     23  C   UNL     1       5.290  -9.011  -4.053  0.00  0.00    +0.046 A 
ATOM     24  C   UNL     1       4.454  -8.016  -3.596  0.00  0.00    +0.011 A 
BRANCH  22  25
ATOM     25  O   UNL     1       5.700 -11.312  -4.490  0.00  0.00    -0.495 OA
ATOM     26  C   UNL     1       6.981 -10.904  -4.975  0.00  0.00    +0.277 C 
ENDBRANCH  22  25
ENDBRANCH  18  19
ENDBRANCH   7  17
TORSDOF 4
