REMARK  Name = ZINC17157047
REMARK  6 active torsions:
REMARK  status: ('A' for Active; 'I' for Inactive)
REMARK    1  A    between atoms: C_1  and  C_2
REMARK    2  A    between atoms: C_2  and  C_3
REMARK    3  A    between atoms: C_4  and  C_24
REMARK    4  A    between atoms: C_6  and  C_8
REMARK    5  A    between atoms: N_10  and  N_11
REMARK    6  A    between atoms: C_12  and  C_14
REMARK                            x       y       z     vdW  Elec       q    Type
REMARK                         _______ _______ _______ _____ _____    ______ ____
ROOT
ATOM      1  N   UNL     1      -0.863   3.334   1.472  0.00  0.00    -0.234 N 
ATOM      2  C   UNL     1      -0.724   2.012   1.250  0.00  0.00    +0.235 C 
ATOM      3  O   UNL     1      -1.167   1.213   2.049  0.00  0.00    -0.274 OA
ATOM      4  H   UNL     1      -0.462   4.058   0.748  0.00  0.00    +0.173 HD
ENDROOT
BRANCH   2   5
ATOM      5  C   UNL     1      -0.019   1.526   0.010  0.00  0.00    +0.049 C 
ATOM      6  C   UNL     1       1.417   2.055  -0.000  0.00  0.00    +0.019 C 
ATOM      7  C   UNL     1       2.133   1.562  -1.259  0.00  0.00    -0.009 C 
ATOM      8  C   UNL     1       2.154   0.032  -1.268  0.00  0.00    +0.007 C 
ATOM      9  C   UNL     1       0.718  -0.497  -1.257  0.00  0.00    -0.009 C 
ATOM     10  C   UNL     1       0.002  -0.004   0.002  0.00  0.00    +0.019 C 
ATOM     11  C   UNL     1      -0.022   0.009  -2.496  0.00  0.00    +0.007 C 
ATOM     12  C   UNL     1      -0.043   1.539  -2.488  0.00  0.00    -0.009 C 
ATOM     13  C   UNL     1       1.393   2.069  -2.499  0.00  0.00    +0.007 C 
ATOM     14  C   UNL     1      -0.759   2.033  -1.229  0.00  0.00    +0.019 C 
ENDBRANCH   2   5
BRANCH   1  17
ATOM     15  C   UNL     1      -1.658   5.108   2.846  0.00  0.00    +0.267 C 
ATOM     16  O   UNL     1      -1.214   5.909   2.045  0.00  0.00    -0.268 OA
ATOM     17  N   UNL     1      -1.519   3.786   2.625  0.00  0.00    -0.230 N 
ATOM     18  H   UNL     1      -1.920   3.061   3.349  0.00  0.00    +0.173 HD
BRANCH  15  22
ATOM     19  C   UNL     1      -3.648   5.946   6.351  0.00  0.00    -0.007 A 
ATOM     20  C   UNL     1      -3.263   7.044   5.650  0.00  0.00    -0.040 A 
ATOM     21  C   UNL     1      -2.590   6.881   4.465  0.00  0.00    +0.024 A 
ATOM     22  C   UNL     1      -2.344   5.580   4.052  0.00  0.00    +0.076 A 
ATOM     23  S   UNL     1      -3.087   4.632   5.369  0.00  0.00    -0.088 S 
ATOM     24  C   UNL     1      -3.569   8.425   6.168  0.00  0.00    +0.044 C 
BRANCH  19  26
ATOM     25  C   UNL     1      -5.895   5.850   7.394  0.00  0.00    +0.009 C 
ATOM     26  C   UNL     1      -4.389   5.884   7.662  0.00  0.00    +0.039 C 
ENDBRANCH  19  26
ENDBRANCH  15  22
ENDBRANCH   1  17
TORSDOF 4
