REMARK  Name = ZINC23426224
REMARK  8 active torsions:
REMARK  status: ('A' for Active; 'I' for Inactive)
REMARK    1  A    between atoms: C_1  and  C_2
REMARK    2  A    between atoms: C_2  and  C_4
REMARK    3  A    between atoms: C_2  and  S_20
REMARK    4  A    between atoms: N_6  and  C_7
REMARK    5  A    between atoms: C_7  and  C_8
REMARK    6  A    between atoms: N_10  and  C_11
REMARK    7  A    between atoms: S_20  and  C_21
REMARK    8  A    between atoms: N_26  and  C_27
REMARK                            x       y       z     vdW  Elec       q    Type
REMARK                         _______ _______ _______ _____ _____    ______ ____
ROOT
ATOM      1  C   UNL     1       0.322  -0.401  -1.361  0.00  0.00    +0.227 C 
ATOM      2  O   UNL     1       1.470  -0.761  -1.214  0.00  0.00    -0.275 OA
ATOM      3  N   UNL     1      -0.255  -0.466  -2.578  0.00  0.00    -0.306 N 
ATOM      4  H   UNL     1      -1.174  -0.177  -2.695  0.00  0.00    +0.149 HD
ENDROOT
BRANCH   1   6
ATOM      5  C   UNL     1      -0.475   1.649  -0.216  0.00  0.00    +0.029 C 
ATOM      6  C   UNL     1      -0.461   0.120  -0.183  0.00  0.00    +0.136 C 
BRANCH   6   7
ATOM      7  S   UNL     1       0.315  -0.445   1.356  0.00  0.00    -0.084 S 
BRANCH   7   8
ATOM      8  C   UNL     1      -0.783   0.112   2.616  0.00  0.00    +0.161 A 
ATOM      9  N   UNL     1      -1.916   0.778   2.504  0.00  0.00    -0.133 NA
ATOM     10  N   UNL     1      -2.626   1.117   3.633  0.00  0.00    -0.125 NA
ATOM     11  C   UNL     1      -2.171   0.773   4.822  0.00  0.00    +0.187 A 
ATOM     12  S   UNL     1      -0.664  -0.083   4.388  0.00  0.00    -0.024 S 
ATOM     13  N   UNL     1      -2.719   1.010   6.077  0.00  0.00    -0.292 N 
ATOM     14  H   UNL     1      -2.228   0.763   6.876  0.00  0.00    +0.154 HD
BRANCH  13  15
ATOM     15  C   UNL     1      -3.979   1.603   6.188  0.00  0.00    +0.033 A 
ATOM     16  C   UNL     1      -4.318   2.309   7.336  0.00  0.00    +0.023 A 
ATOM     17  C   UNL     1      -5.564   2.894   7.442  0.00  0.00    +0.002 A 
ATOM     18  C   UNL     1      -6.475   2.778   6.408  0.00  0.00    +0.000 A 
ATOM     19  C   UNL     1      -6.141   2.076   5.264  0.00  0.00    +0.002 A 
ATOM     20  C   UNL     1      -4.895   1.493   5.149  0.00  0.00    +0.023 A 
ENDBRANCH  13  15
ENDBRANCH   7   8
ENDBRANCH   6   7
ENDBRANCH   1   6
BRANCH   3  21
ATOM     21  C   UNL     1       0.506  -0.972  -3.723  0.00  0.00    +0.200 C 
BRANCH  21  22
ATOM     22  C   UNL     1      -0.361  -0.941  -4.955  0.00  0.00    +0.234 C 
ATOM     23  O   UNL     1      -1.502  -0.536  -4.884  0.00  0.00    -0.274 OA
ATOM     24  N   UNL     1       0.132  -1.364  -6.136  0.00  0.00    -0.282 N 
ATOM     25  H   UNL     1       1.062  -1.628  -6.207  0.00  0.00    +0.155 HD
BRANCH  24  26
ATOM     26  C   UNL     1      -0.701  -1.421  -7.262  0.00  0.00    +0.072 A 
ATOM     27  C   UNL     1      -1.700  -0.474  -7.437  0.00  0.00    +0.029 A 
ATOM     28  C   UNL     1      -2.521  -0.531  -8.547  0.00  0.00    +0.043 A 
ATOM     29  C   UNL     1      -2.348  -1.532  -9.487  0.00  0.00    +0.161 A 
ATOM     30  C   UNL     1      -1.351  -2.480  -9.317  0.00  0.00    +0.195 A 
ATOM     31  C   UNL     1      -0.523  -2.423  -8.209  0.00  0.00    +0.182 A 
ATOM     32  F   UNL     1       0.453  -3.343  -8.045  0.00  0.00    -0.200 F 
ATOM     33  F   UNL     1      -1.184  -3.457 -10.236  0.00  0.00    -0.199 F 
ATOM     34  F   UNL     1      -3.152  -1.585 -10.572  0.00  0.00    -0.202 F 
ENDBRANCH  24  26
ENDBRANCH  21  22
ENDBRANCH   3  21
TORSDOF 7
