REMARK  Name = ZINC15015403
REMARK  9 active torsions:
REMARK  status: ('A' for Active; 'I' for Inactive)
REMARK    1  A    between atoms: C_1  and  C_2
REMARK    2  A    between atoms: N_16  and  N_17
REMARK    3  A    between atoms: C_18  and  C_19
REMARK    4  A    between atoms: C_23  and  C_28
REMARK    5  A    between atoms: C_25  and  C_27
REMARK    6  A    between atoms: C_28  and  C_29
REMARK    7  A    between atoms: C_29  and  C_30
REMARK    8  A    between atoms: C_31  and  C_32
REMARK    9  A    between atoms: C_31  and  C_33
REMARK                            x       y       z     vdW  Elec       q    Type
REMARK                         _______ _______ _______ _____ _____    ______ ____
ROOT
ATOM      1  C   UNL     1      -3.605   5.696  -0.048  0.00  0.00    +0.044 C 
ATOM      2  C   UNL     1      -2.382   4.851   0.197  0.00  0.00    -0.050 A 
ATOM      3  C   UNL     1      -2.515   3.488   0.412  0.00  0.00    +0.005 A 
ATOM      4  C   UNL     1      -1.406   2.703   0.644  0.00  0.00    +0.026 A 
ATOM      5  C   UNL     1      -0.138   3.275   0.653  0.00  0.00    +0.050 A 
ATOM      6  C   UNL     1      -0.004   4.653   0.429  0.00  0.00    +0.029 A 
ATOM      7  C   UNL     1      -1.133   5.436   0.202  0.00  0.00    +0.015 A 
ATOM      8  C   UNL     1       1.438   4.947   0.500  0.00  0.00    +0.138 A 
ATOM      9  C   UNL     1       2.081   3.720   0.763  0.00  0.00    +0.163 A 
ATOM     10  N   UNL     1       1.125   2.738   0.850  0.00  0.00    -0.338 N 
ATOM     11  H   UNL     1       1.307   1.802   1.024  0.00  0.00    +0.167 HD
ATOM     12  N   UNL     1       3.405   3.712   0.875  0.00  0.00    -0.192 NA
ATOM     13  C   UNL     1       4.075   4.848   0.737  0.00  0.00    +0.256 A 
ATOM     14  N   UNL     1       3.447   5.993   0.489  0.00  0.00    -0.111 NA
ATOM     15  N   UNL     1       2.164   6.048   0.373  0.00  0.00    -0.142 NA
ATOM     16  N   UNL     1       5.455   4.842   0.854  0.00  0.00    -0.204 N 
ATOM     17  H   UNL     1       5.923   4.011   1.034  0.00  0.00    +0.177 HD
ENDROOT
BRANCH  16  18
ATOM     18  N   UNL     1       6.176   6.035   0.711  0.00  0.00    -0.192 NA
ATOM     19  C   UNL     1       7.451   6.029   0.819  0.00  0.00    +0.107 C 
BRANCH  19  20
ATOM     20  C   UNL     1       8.226   7.312   0.665  0.00  0.00    +0.039 C 
ATOM     21  C   UNL     1       9.209   7.183  -0.501  0.00  0.00    +0.036 C 
ATOM     22  C   UNL     1      10.165   8.340  -0.502  0.00  0.00    -0.027 C 
ATOM     23  C   UNL     1      10.363   9.117   0.514  0.00  0.00    -0.073 C 
ATOM     24  C   UNL     1       9.658   8.977   1.831  0.00  0.00    +0.034 C 
ATOM     25  C   UNL     1       9.026   7.588   1.945  0.00  0.00    -0.001 C 
ATOM     26  C   UNL     1       8.091   7.546   3.155  0.00  0.00    +0.008 C 
BRANCH  23  27
ATOM     27  C   UNL     1      11.365  10.233   0.364  0.00  0.00    +0.034 C 
BRANCH  27  28
ATOM     28  C   UNL     1      10.640  11.520  -0.033  0.00  0.00    +0.031 C 
BRANCH  28  29
ATOM     29  C   UNL     1      11.642  12.636  -0.182  0.00  0.00    -0.028 C 
ATOM     30  C   UNL     1      11.703  13.316  -1.300  0.00  0.00    -0.080 C 
ATOM     31  C   UNL     1      10.694  13.064  -2.392  0.00  0.00    +0.038 C 
ATOM     32  C   UNL     1      12.781  14.351  -1.495  0.00  0.00    +0.038 C 
ENDBRANCH  28  29
ENDBRANCH  27  28
ENDBRANCH  23  27
ENDBRANCH  19  20
ENDBRANCH  16  18
TORSDOF 5
