REMARK  Name = ZINC65322838
REMARK  5 active torsions:
REMARK  status: ('A' for Active; 'I' for Inactive)
REMARK    1  A    between atoms: C_1  and  C_2
REMARK    2  A    between atoms: N_8  and  C_9
REMARK    3  A    between atoms: C_9  and  C_10
REMARK    4  A    between atoms: N_20  and  C_21
REMARK    5  A    between atoms: C_21  and  C_22
REMARK                            x       y       z     vdW  Elec       q    Type
REMARK                         _______ _______ _______ _____ _____    ______ ____
ROOT
ATOM      1  C   UNL     1       2.754  -0.315   2.498  0.00  0.00    +0.034 A 
ATOM      2  C   UNL     1       4.054   0.120   2.750  0.00  0.00    +0.093 A 
ATOM      3  C   UNL     1       4.666  -0.250   3.917  0.00  0.00    +0.276 A 
ATOM      4  O   UNL     1       5.927   0.157   4.191  0.00  0.00    -0.266 OA
ATOM      5  N   UNL     1       3.985  -1.034   4.799  0.00  0.00    -0.158 N 
ATOM      6  C   UNL     1       2.712  -1.440   4.516  0.00  0.00    +0.258 A 
ATOM      7  N   UNL     1       2.122  -1.067   3.374  0.00  0.00    -0.217 NA
ATOM      8  N   UNL     1       2.298  -2.183   5.537  0.00  0.00    -0.176 NA
ATOM      9  C   UNL     1       3.260  -2.262   6.454  0.00  0.00    +0.237 A 
ATOM     10  N   UNL     1       4.309  -1.577   6.049  0.00  0.00    -0.125 NA
ATOM     11  N   UNL     1       3.171  -2.961   7.656  0.00  0.00    -0.308 N 
ATOM     12  H   UNL     1       3.921  -2.967   8.270  0.00  0.00    +0.149 HD
ENDROOT
BRANCH   1  13
ATOM     13  C   UNL     1       2.066   0.083   1.218  0.00  0.00    -0.022 C 
BRANCH  13  20
ATOM     14  C   UNL     1      -0.019   1.526   0.010  0.00  0.00    -0.013 C 
ATOM     15  C   UNL     1       0.002  -0.004   0.002  0.00  0.00    -0.071 C 
ATOM     16  C   UNL     1      -1.434  -0.533   0.011  0.00  0.00    -0.016 C 
ATOM     17  C   UNL     1      -1.408  -2.064   0.003  0.00  0.00    -0.003 C 
ATOM     18  C   UNL     1      -0.600  -2.558   1.206  0.00  0.00    -0.019 C 
ATOM     19  C   UNL     1       0.805  -1.954   1.152  0.00  0.00    -0.078 C 
ATOM     20  N   UNL     1       0.713  -0.490   1.191  0.00  0.00    +0.385 N 
ATOM     21  H   UNL     1       0.213  -0.206   2.020  0.00  0.00    -0.081 HD
ENDBRANCH  13  20
ENDBRANCH   1  13
BRANCH  11  22
ATOM     22  C   UNL     1       1.944  -3.687   7.992  0.00  0.00    +0.139 C 
BRANCH  22  23
ATOM     23  C   UNL     1       2.105  -4.352   9.334  0.00  0.00    -0.030 A 
ATOM     24  C   UNL     1       2.616  -5.634   9.413  0.00  0.00    +0.006 A 
ATOM     25  C   UNL     1       2.764  -6.245  10.644  0.00  0.00    +0.020 A 
ATOM     26  C   UNL     1       2.401  -5.573  11.797  0.00  0.00    +0.041 A 
ATOM     27  C   UNL     1       1.889  -4.290  11.718  0.00  0.00    +0.020 A 
ATOM     28  C   UNL     1       1.747  -3.678  10.487  0.00  0.00    +0.006 A 
ATOM     29 CL   UNL     1       2.586  -6.339  13.344  0.00  0.00    -0.084 Cl
ENDBRANCH  22  23
ENDBRANCH  11  22
TORSDOF 4
