REMARK  Name = ZINC09870322
REMARK  7 active torsions:
REMARK  status: ('A' for Active; 'I' for Inactive)
REMARK    1  A    between atoms: C_4  and  N_7
REMARK    2  A    between atoms: C_8  and  C_10
REMARK    3  A    between atoms: C_15  and  C_16
REMARK    4  A    between atoms: C_15  and  N_58
REMARK    5  A    between atoms: N_18  and  C_19
REMARK    6  A    between atoms: C_19  and  C_21
REMARK    7  A    between atoms: C_19  and  C_28
REMARK                            x       y       z     vdW  Elec       q    Type
REMARK                         _______ _______ _______ _____ _____    ______ ____
ROOT
ATOM      1  C   UNL     1       3.483   2.138   1.250  0.00  0.00    +0.019 C 
ENDROOT
BRANCH   1   7
ATOM      2  C   UNL     1       0.002  -0.004  -0.005  0.00  0.00    +0.072 C 
ATOM      3  C   UNL     1      -0.018   1.527   0.008  0.00  0.00    -0.006 C 
ATOM      4  C   UNL     1       1.419   2.051  -0.012  0.00  0.00    -0.077 C 
ATOM      5  C   UNL     1       2.216   0.078   1.146  0.00  0.00    -0.077 C 
ATOM      6  C   UNL     1       0.802  -0.506   1.200  0.00  0.00    -0.006 C 
ATOM      7  N   UNL     1       2.128   1.553   1.186  0.00  0.00    +0.385 N 
ATOM      8  H   UNL     1       1.604   1.833   2.024  0.00  0.00    -0.081 HD
BRANCH   2  10
ATOM      9  N   UNL     1      -1.636  -1.856   0.079  0.00  0.00    -0.285 N 
ATOM     10  C   UNL     1      -1.409  -0.527   0.075  0.00  0.00    +0.220 C 
ATOM     11  O   UNL     1      -2.341   0.247   0.136  0.00  0.00    -0.275 OA
ATOM     12  H   UNL     1      -0.898  -2.474  -0.037  0.00  0.00    +0.155 HD
BRANCH   9  16
ATOM     13  C   UNL     1      -5.508  -3.307   0.587  0.00  0.00    +0.000 A 
ATOM     14  C   UNL     1      -5.298  -2.133  -0.112  0.00  0.00    +0.002 A 
ATOM     15  C   UNL     1      -4.015  -1.649  -0.282  0.00  0.00    +0.023 A 
ATOM     16  C   UNL     1      -2.937  -2.343   0.250  0.00  0.00    +0.033 A 
ATOM     17  C   UNL     1      -3.151  -3.524   0.948  0.00  0.00    +0.023 A 
ATOM     18  C   UNL     1      -4.436  -4.000   1.119  0.00  0.00    +0.002 A 
ENDBRANCH   9  16
ENDBRANCH   2  10
ENDBRANCH   1   7
BRANCH   1  19
ATOM     19  C   UNL     1       3.362   3.617   1.509  0.00  0.00    +0.197 C 
ATOM     20  O   UNL     1       2.266   4.127   1.610  0.00  0.00    -0.278 OA
ATOM     21  N   UNL     1       4.471   4.374   1.629  0.00  0.00    -0.306 N 
ATOM     22  H   UNL     1       5.347   3.966   1.548  0.00  0.00    +0.150 HD
BRANCH  21  23
ATOM     23  C   UNL     1       4.352   5.812   1.881  0.00  0.00    +0.140 C 
BRANCH  23  24
ATOM     24  C   UNL     1       5.602   6.307   2.563  0.00  0.00    -0.022 A 
ATOM     25  C   UNL     1       6.838   5.827   2.173  0.00  0.00    +0.008 A 
ATOM     26  C   UNL     1       7.985   6.284   2.794  0.00  0.00    +0.038 A 
ATOM     27  C   UNL     1       7.894   7.215   3.815  0.00  0.00    +0.123 A 
ATOM     28  C   UNL     1       6.655   7.691   4.209  0.00  0.00    +0.038 A 
ATOM     29  C   UNL     1       5.510   7.236   3.582  0.00  0.00    +0.008 A 
ATOM     30  F   UNL     1       9.014   7.658   4.427  0.00  0.00    -0.205 F 
ENDBRANCH  23  24
BRANCH  23  31
ATOM     31  C   UNL     1       4.173   6.538   0.573  0.00  0.00    +0.014 A 
ATOM     32  C   UNL     1       3.361   7.583   0.281  0.00  0.00    +0.013 A 
ATOM     33  C   UNL     1       3.364   8.097  -1.003  0.00  0.00    +0.008 A 
ATOM     34  C   UNL     1       4.171   7.533  -1.934  0.00  0.00    +0.045 A 
ATOM     35  S   UNL     1       4.969   6.240  -0.997  0.00  0.00    -0.099 S 
ENDBRANCH  23  31
ENDBRANCH  21  23
ENDBRANCH   1  19
TORSDOF 7
