REMARK  Name = ZINC66403339
REMARK  5 active torsions:
REMARK  status: ('A' for Active; 'I' for Inactive)
REMARK    1  A    between atoms: N_9  and  C_23
REMARK    2  A    between atoms: C_10  and  C_13
REMARK    3  A    between atoms: C_15  and  N_20
REMARK    4  A    between atoms: C_18  and  O_19
REMARK    5  A    between atoms: C_23  and  C_24
REMARK                            x       y       z     vdW  Elec       q    Type
REMARK                         _______ _______ _______ _____ _____    ______ ____
ROOT
ATOM      1  C   UNL     1      -0.570   1.224   0.733  0.00  0.00    +0.001 A 
ATOM      2  C   UNL     1       0.537   2.051   0.626  0.00  0.00    +0.002 A 
ATOM      3  C   UNL     1       1.793   1.519   0.406  0.00  0.00    +0.024 A 
ATOM      4  C   UNL     1       1.946   0.148   0.292  0.00  0.00    +0.041 A 
ATOM      5  C   UNL     1       0.826  -0.695   0.404  0.00  0.00    +0.058 A 
ATOM      6  C   UNL     1      -0.435  -0.145   0.623  0.00  0.00    +0.015 A 
ATOM      7  C   UNL     1       1.028  -2.150   0.287  0.00  0.00    +0.250 C 
ATOM      8  O   UNL     1       0.150  -2.922   0.620  0.00  0.00    -0.270 OA
ATOM      9  N   UNL     1       2.200  -2.616  -0.194  0.00  0.00    -0.266 N 
ATOM     10  C   UNL     1       3.238  -1.704  -0.675  0.00  0.00    +0.196 C 
ATOM     11  N   UNL     1       3.186  -0.438   0.066  0.00  0.00    -0.321 N 
ATOM     12  H   UNL     1       3.999  -0.019   0.390  0.00  0.00    +0.148 HD
ENDROOT
BRANCH  10  13
ATOM     13  C   UNL     1       3.021  -1.430  -2.141  0.00  0.00    +0.034 A 
ATOM     14  C   UNL     1       1.756  -1.544  -2.686  0.00  0.00    +0.043 A 
ATOM     15  C   UNL     1       1.557  -1.292  -4.031  0.00  0.00    +0.127 A 
ATOM     16  C   UNL     1       2.622  -0.927  -4.834  0.00  0.00    +0.036 A 
ATOM     17  C   UNL     1       3.888  -0.812  -4.294  0.00  0.00    +0.048 A 
ATOM     18  C   UNL     1       4.090  -1.058  -2.943  0.00  0.00    +0.123 A 
BRANCH  15  19
ATOM     19  N   UNL     1       0.201  -1.415  -4.612  0.00  0.00    +0.056 N 
ATOM     20  O   UNL     1      -0.730  -1.735  -3.911  0.00  0.00    -0.126 OA
ATOM     21  O   UNL     1       0.026  -1.196  -5.788  0.00  0.00    -0.126 OA
ENDBRANCH  15  19
BRANCH  18  22
ATOM     22  O   UNL     1       5.334  -0.941  -2.408  0.00  0.00    -0.506 OA
ATOM     23  H   UNL     1       5.880  -1.733  -2.505  0.00  0.00    +0.292 HD
ENDBRANCH  18  22
ENDBRANCH  10  13
BRANCH   9  24
ATOM     24  C   UNL     1       2.436  -4.061  -0.235  0.00  0.00    +0.223 C 
BRANCH  24  25
ATOM     25  C   UNL     1       1.909  -4.627  -1.555  0.00  0.00    +0.405 C 
ATOM     26  F   UNL     1       2.668  -4.119  -2.616  0.00  0.00    -0.169 F 
ATOM     27  F   UNL     1       2.009  -6.022  -1.537  0.00  0.00    -0.169 F 
ATOM     28  F   UNL     1       0.571  -4.256  -1.720  0.00  0.00    -0.169 F 
ENDBRANCH  24  25
ENDBRANCH   9  24
TORSDOF 5
