REMARK  Name = ZINC03335626
REMARK  7 active torsions:
REMARK  status: ('A' for Active; 'I' for Inactive)
REMARK    1  A    between atoms: C_1  and  C_2
REMARK    2  A    between atoms: C_4  and  C_14
REMARK    3  A    between atoms: C_5  and  C_13
REMARK    4  A    between atoms: N_6  and  C_7
REMARK    5  A    between atoms: N_16  and  N_17
REMARK    6  A    between atoms: N_17  and  S_18
REMARK    7  A    between atoms: S_18  and  C_21
REMARK                            x       y       z     vdW  Elec       q    Type
REMARK                         _______ _______ _______ _____ _____    ______ ____
ROOT
ATOM      1  C   UNL     1       2.799   8.771   3.119  0.00  0.00    +0.261 C 
ATOM      2  O   UNL     1       2.495   9.942   2.993  0.00  0.00    -0.269 OA
ATOM      3  N   UNL     1       2.112   7.821   2.452  0.00  0.00    -0.228 N 
ATOM      4  H   UNL     1       2.354   6.887   2.553  0.00  0.00    +0.171 HD
ENDROOT
BRANCH   1   8
ATOM      5  C   UNL     1       6.260   6.029   5.675  0.00  0.00    +0.064 C 
ATOM      6  C   UNL     1       5.437   7.161   5.118  0.00  0.00    +0.022 A 
ATOM      7  C   UNL     1       4.410   7.033   4.259  0.00  0.00    +0.036 A 
ATOM      8  C   UNL     1       3.917   8.390   3.998  0.00  0.00    +0.059 A 
ATOM      9  C   UNL     1       4.708   9.230   4.731  0.00  0.00    +0.033 A 
ATOM     10  N   UNL     1       5.612   8.486   5.402  0.00  0.00    -0.317 N 
ATOM     11  C   UNL     1       4.589  10.732   4.784  0.00  0.00    +0.064 C 
BRANCH  10  12
ATOM     12  C   UNL     1       6.592   8.999   6.263  0.00  0.00    +0.047 A 
ATOM     13  C   UNL     1       6.221   9.641   7.437  0.00  0.00    +0.026 A 
ATOM     14  C   UNL     1       7.190  10.141   8.284  0.00  0.00    +0.002 A 
ATOM     15  C   UNL     1       8.528  10.013   7.960  0.00  0.00    +0.000 A 
ATOM     16  C   UNL     1       8.900   9.379   6.789  0.00  0.00    +0.002 A 
ATOM     17  C   UNL     1       7.936   8.872   5.939  0.00  0.00    +0.026 A 
ENDBRANCH  10  12
ENDBRANCH   1   8
BRANCH   3  18
ATOM     18  N   UNL     1       1.048   8.184   1.616  0.00  0.00    -0.108 NA
ATOM     19  H   UNL     1       0.317   8.717   1.964  0.00  0.00    +0.172 HD
BRANCH  18  20
ATOM     20  S   UNL     1       1.040   7.702   0.031  0.00  0.00    +0.074 S 
ATOM     21  O   UNL     1       2.275   8.128  -0.529  0.00  0.00    -0.152 OA
ATOM     22  O   UNL     1      -0.216   8.094  -0.506  0.00  0.00    -0.152 OA
BRANCH  20  23
ATOM     23  C   UNL     1       1.064   5.940   0.022  0.00  0.00    +0.107 A 
ATOM     24  C   UNL     1       2.286   5.270   0.008  0.00  0.00    +0.029 A 
ATOM     25  C   UNL     1       2.340   3.910  -0.000  0.00  0.00    +0.010 A 
ATOM     26  C   UNL     1       1.147   3.167   0.008  0.00  0.00    -0.018 A 
ATOM     27  C   UNL     1       1.163   1.762   0.000  0.00  0.00    +0.008 A 
ATOM     28  C   UNL     1      -0.013   1.076   0.008  0.00  0.00    +0.001 A 
ATOM     29  C   UNL     1      -1.235   1.746   0.017  0.00  0.00    +0.001 A 
ATOM     30  C   UNL     1      -1.288   3.106   0.030  0.00  0.00    +0.008 A 
ATOM     31  C   UNL     1      -0.096   3.849   0.023  0.00  0.00    -0.016 A 
ATOM     32  C   UNL     1      -0.111   5.254   0.030  0.00  0.00    +0.037 A 
ENDBRANCH  20  23
ENDBRANCH  18  20
ENDBRANCH   3  18
TORSDOF 5
