REMARK  Name = ZINC67061646
REMARK  5 active torsions:
REMARK  status: ('A' for Active; 'I' for Inactive)
REMARK    1  A    between atoms: C_1  and  C_2
REMARK    2  A    between atoms: C_5  and  C_7
REMARK    3  A    between atoms: C_7  and  C_9
REMARK    4  A    between atoms: C_7  and  N_10
REMARK    5  A    between atoms: C_17  and  C_19
REMARK                            x       y       z     vdW  Elec       q    Type
REMARK                         _______ _______ _______ _____ _____    ______ ____
ROOT
ATOM      1  N   UNL     1       2.819  -2.969   0.861  0.00  0.00    -0.290 N 
ATOM      2  C   UNL     1       3.507  -3.989   1.413  0.00  0.00    +0.303 C 
ATOM      3  O   UNL     1       3.185  -5.137   1.177  0.00  0.00    -0.253 OA
ATOM      4  N   UNL     1       4.551  -3.735   2.226  0.00  0.00    -0.278 N 
ATOM      5  C   UNL     1       5.043  -2.397   2.601  0.00  0.00    +0.110 C 
ATOM      6  C   UNL     1       6.528  -2.614   2.986  0.00  0.00    +0.021 C 
ATOM      7  C   UNL     1       6.469  -3.994   3.691  0.00  0.00    +0.029 C 
ATOM      8  C   UNL     1       5.385  -4.747   2.892  0.00  0.00    +0.111 C 
ATOM      9  H   UNL     1       3.076  -2.053   1.050  0.00  0.00    +0.151 HD
ENDROOT
BRANCH   8  10
ATOM     10  C   UNL     1       4.539  -5.576   3.824  0.00  0.00    +0.018 A 
ATOM     11  C   UNL     1       3.305  -5.107   4.237  0.00  0.00    +0.009 A 
ATOM     12  C   UNL     1       2.527  -5.864   5.092  0.00  0.00    +0.004 A 
ATOM     13  C   UNL     1       2.980  -7.092   5.538  0.00  0.00    +0.049 A 
ATOM     14  C   UNL     1       4.216  -7.567   5.128  0.00  0.00    +0.162 A 
ATOM     15  C   UNL     1       4.996  -6.809   4.262  0.00  0.00    +0.167 A 
ATOM     16  O   UNL     1       6.207  -7.263   3.837  0.00  0.00    -0.485 OA
ATOM     17  C   UNL     1       6.794  -8.330   4.589  0.00  0.00    +0.270 C 
ATOM     18  C   UNL     1       5.715  -9.392   4.840  0.00  0.00    +0.270 C 
ATOM     19  O   UNL     1       4.651  -8.776   5.579  0.00  0.00    -0.485 OA
ENDBRANCH   8  10
BRANCH   1  20
ATOM     20  C   UNL     1       1.684  -3.245  -0.023  0.00  0.00    +0.137 C 
ATOM     21  C   UNL     1       2.192  -3.480  -1.447  0.00  0.00    +0.036 C 
BRANCH  20  26
ATOM     22  C   UNL     1      -0.018   1.503   0.010  0.00  0.00    +0.086 C 
ATOM     23  C   UNL     1       0.002  -0.004   0.002  0.00  0.00    +0.102 A 
ATOM     24  C   UNL     1      -1.078  -0.805   0.003  0.00  0.00    +0.045 A 
ATOM     25  C   UNL     1      -0.601  -2.136  -0.007  0.00  0.00    +0.047 A 
ATOM     26  C   UNL     1       0.742  -2.069  -0.013  0.00  0.00    +0.125 A 
ATOM     27  O   UNL     1       1.102  -0.775  -0.013  0.00  0.00    -0.463 OA
ENDBRANCH  20  26
ENDBRANCH   1  20
TORSDOF 3
