REMARK  Name = ZINC09634323
REMARK  11 active torsions:
REMARK  status: ('A' for Active; 'I' for Inactive)
REMARK    1  A    between atoms: C_1  and  C_2
REMARK    2  A    between atoms: C_2  and  C_3
REMARK    3  A    between atoms: C_3  and  C_4
REMARK    4  A    between atoms: C_4  and  N_5
REMARK    5  A    between atoms: C_9  and  C_23
REMARK    6  A    between atoms: N_11  and  C_12
REMARK    7  A    between atoms: C_12  and  C_14
REMARK    8  A    between atoms: C_17  and  N_20
REMARK    9  A    between atoms: C_23  and  O_25
REMARK   10  A    between atoms: O_25  and  C_26
REMARK   11  A    between atoms: C_26  and  C_27
REMARK                            x       y       z     vdW  Elec       q    Type
REMARK                         _______ _______ _______ _____ _____    ______ ____
ROOT
ATOM      1  N   UNL     1      -2.854  -2.853  -0.207  0.00  0.00    -0.311 N 
ATOM      2  C   UNL     1      -3.654  -3.062  -1.300  0.00  0.00    +0.150 A 
ATOM      3  C   UNL     1      -5.024  -3.378  -1.122  0.00  0.00    +0.083 A 
ATOM      4  C   UNL     1      -5.561  -3.477   0.163  0.00  0.00    +0.035 A 
ATOM      5  C   UNL     1      -4.731  -3.262   1.263  0.00  0.00    +0.100 A 
ATOM      6  C   UNL     1      -3.364  -2.951   1.058  0.00  0.00    +0.142 A 
ATOM      7  N   UNL     1      -2.569  -2.750   2.106  0.00  0.00    -0.158 NA
ATOM      8  C   UNL     1      -5.847  -3.594  -2.313  0.00  0.00    +0.268 A 
ATOM      9  O   UNL     1      -7.029  -3.868  -2.218  0.00  0.00    -0.267 OA
ATOM     10  N   UNL     1      -5.250  -3.480  -3.522  0.00  0.00    -0.268 N 
ATOM     11  C   UNL     1      -5.994  -3.676  -4.647  0.00  0.00    +0.096 A 
ATOM     12  C   UNL     1      -5.435  -3.571  -5.874  0.00  0.00    +0.018 A 
ATOM     13  C   UNL     1      -4.075  -3.256  -5.999  0.00  0.00    +0.005 A 
ATOM     14  C   UNL     1      -3.323  -3.058  -4.880  0.00  0.00    +0.047 A 
ATOM     15  C   UNL     1      -3.922  -3.171  -3.610  0.00  0.00    +0.143 A 
ATOM     16  N   UNL     1      -3.167  -2.974  -2.529  0.00  0.00    -0.211 NA
ENDROOT
BRANCH   7  17
ATOM     17  C   UNL     1      -3.098  -2.467   3.301  0.00  0.00    +0.269 C 
ATOM     18  O   UNL     1      -3.898  -1.555   3.413  0.00  0.00    -0.268 OA
BRANCH  17  19
ATOM     19  C   UNL     1      -2.711  -3.263   4.489  0.00  0.00    +0.039 A 
ATOM     20  C   UNL     1      -1.800  -4.311   4.363  0.00  0.00    +0.015 A 
ATOM     21  C   UNL     1      -1.439  -5.045   5.475  0.00  0.00    +0.033 A 
ATOM     22  C   UNL     1      -1.987  -4.749   6.710  0.00  0.00    +0.126 A 
ATOM     23  C   UNL     1      -2.896  -3.715   6.840  0.00  0.00    +0.033 A 
ATOM     24  C   UNL     1      -3.261  -2.970   5.737  0.00  0.00    +0.015 A 
BRANCH  22  25
ATOM     25  N   UNL     1      -1.600  -5.544   7.897  0.00  0.00    +0.056 N 
ATOM     26  O   UNL     1      -2.082  -5.286   8.986  0.00  0.00    -0.126 OA
ATOM     27  O   UNL     1      -0.800  -6.455   7.786  0.00  0.00    -0.126 OA
ENDBRANCH  22  25
ENDBRANCH  17  19
ENDBRANCH   7  17
BRANCH   5  28
ATOM     28  C   UNL     1      -5.269  -3.360   2.626  0.00  0.00    +0.343 C 
ATOM     29  O   UNL     1      -4.798  -4.161   3.409  0.00  0.00    -0.245 OA
BRANCH  28  30
ATOM     30  O   UNL     1      -6.286  -2.561   3.008  0.00  0.00    -0.461 OA
BRANCH  30  31
ATOM     31  C   UNL     1      -6.768  -2.713   4.369  0.00  0.00    +0.229 C 
ATOM     32  C   UNL     1      -7.915  -1.731   4.617  0.00  0.00    +0.048 C 
ENDBRANCH  30  31
ENDBRANCH  28  30
ENDBRANCH   5  28
BRANCH   1  33
ATOM     33  C   UNL     1      -1.438  -2.527  -0.396  0.00  0.00    +0.125 C 
BRANCH  33  34
ATOM     34  C   UNL     1      -1.273  -1.008  -0.491  0.00  0.00    +0.021 C 
BRANCH  34  36
ATOM     35  C   UNL     1       0.371   0.850  -0.783  0.00  0.00    +0.004 C 
ATOM     36  C   UNL     1       0.206  -0.668  -0.688  0.00  0.00    -0.002 C 
ENDBRANCH  34  36
ENDBRANCH  33  34
ENDBRANCH   1  33
TORSDOF 9
