REMARK  Name = ZINC36547082
REMARK  12 active torsions:
REMARK  status: ('A' for Active; 'I' for Inactive)
REMARK    1  A    between atoms: C_1  and  C_2
REMARK    2  A    between atoms: C_2  and  C_3
REMARK    3  A    between atoms: C_3  and  C_4
REMARK    4  A    between atoms: N_6  and  C_7
REMARK    5  A    between atoms: N_6  and  C_14
REMARK    6  A    between atoms: C_14  and  C_16
REMARK    7  A    between atoms: C_14  and  C_23
REMARK    8  A    between atoms: C_21  and  O_22
REMARK    9  A    between atoms: N_25  and  C_26
REMARK   10  A    between atoms: C_26  and  S_27
REMARK   11  A    between atoms: S_27  and  C_30
REMARK   12  A    between atoms: C_33  and  C_36
REMARK                            x       y       z     vdW  Elec       q    Type
REMARK                         _______ _______ _______ _____ _____    ______ ____
ROOT
ATOM      1  C   UNL     1      -3.921  -2.050   0.010  0.00  0.00    +0.201 C 
ENDROOT
BRANCH   1   2
ATOM      2  C   UNL     1      -3.939  -1.269  -1.278  0.00  0.00    +0.024 A 
ATOM      3  C   UNL     1      -3.695   0.091  -1.266  0.00  0.00    +0.009 A 
ATOM      4  C   UNL     1      -3.711   0.808  -2.447  0.00  0.00    +0.001 A 
ATOM      5  C   UNL     1      -3.972   0.167  -3.645  0.00  0.00    +0.004 A 
ATOM      6  C   UNL     1      -4.217  -1.192  -3.662  0.00  0.00    +0.046 A 
ATOM      7  C   UNL     1      -4.195  -1.915  -2.478  0.00  0.00    +0.122 A 
BRANCH   7   8
ATOM      8  O   UNL     1      -4.430  -3.254  -2.494  0.00  0.00    -0.506 OA
ATOM      9  H   UNL     1      -5.368  -3.489  -2.472  0.00  0.00    +0.292 HD
ENDBRANCH   7   8
ENDBRANCH   1   2
BRANCH   1  10
ATOM     10  C   UNL     1      -4.078  -1.104   1.173  0.00  0.00    +0.240 C 
ATOM     11  O   UNL     1      -3.116  -0.813   1.852  0.00  0.00    -0.273 OA
ATOM     12  N   UNL     1      -5.288  -0.582   1.459  0.00  0.00    -0.294 N 
ATOM     13  H   UNL     1      -6.069  -0.867   0.960  0.00  0.00    +0.150 HD
BRANCH  12  14
ATOM     14  C   UNL     1      -5.422   0.416   2.523  0.00  0.00    +0.278 C 
BRANCH  14  15
ATOM     15  S   UNL     1      -5.354   2.080   1.803  0.00  0.00    +0.013 S 
ATOM     16  O   UNL     1      -5.546   3.059   2.815  0.00  0.00    -0.168 OA
ATOM     17  O   UNL     1      -4.263   2.178   0.898  0.00  0.00    -0.168 OA
BRANCH  15  18
ATOM     18  C   UNL     1      -6.791   2.193   0.789  0.00  0.00    +0.090 A 
ATOM     19  C   UNL     1      -6.734   1.805  -0.536  0.00  0.00    +0.027 A 
ATOM     20  C   UNL     1      -7.861   1.894  -1.332  0.00  0.00    +0.005 A 
ATOM     21  C   UNL     1      -9.045   2.370  -0.802  0.00  0.00    -0.050 A 
ATOM     22  C   UNL     1      -9.102   2.758   0.524  0.00  0.00    +0.005 A 
ATOM     23  C   UNL     1      -7.977   2.665   1.321  0.00  0.00    +0.027 A 
ATOM     24  C   UNL     1     -10.274   2.468  -1.669  0.00  0.00    +0.044 C 
ENDBRANCH  15  18
ENDBRANCH  14  15
ENDBRANCH  12  14
ENDBRANCH   1  10
BRANCH   1  27
ATOM     25  C   UNL     1      -2.434  -3.589   1.176  0.00  0.00    +0.221 C 
ATOM     26  O   UNL     1      -1.346  -4.102   1.330  0.00  0.00    -0.275 OA
ATOM     27  N   UNL     1      -2.648  -2.765   0.131  0.00  0.00    -0.254 N 
BRANCH  27  28
ATOM     28  C   UNL     1      -1.654  -2.592  -0.840  0.00  0.00    +0.056 A 
ATOM     29  C   UNL     1      -1.619  -3.419  -1.954  0.00  0.00    +0.025 A 
ATOM     30  C   UNL     1      -0.637  -3.246  -2.910  0.00  0.00    +0.002 A 
ATOM     31  C   UNL     1       0.311  -2.250  -2.758  0.00  0.00    +0.002 A 
ATOM     32  C   UNL     1       0.279  -1.425  -1.650  0.00  0.00    +0.022 A 
ATOM     33  C   UNL     1      -0.704  -1.589  -0.692  0.00  0.00    +0.062 A 
ATOM     34 CL   UNL     1      -0.748  -0.547   0.696  0.00  0.00    -0.082 Cl
ENDBRANCH  27  28
BRANCH  25  35
ATOM     35  C   UNL     1      -3.547  -3.872   2.152  0.00  0.00    +0.096 C 
BRANCH  35  37
ATOM     36  C   UNL     1      -4.220  -5.226   4.141  0.00  0.00    +0.004 C 
ATOM     37  C   UNL     1      -3.090  -4.939   3.150  0.00  0.00    +0.006 C 
ENDBRANCH  35  37
ENDBRANCH  25  35
ENDBRANCH   1  27
TORSDOF 10
