REMARK  Name = ZINC24704575
REMARK  10 active torsions:
REMARK  status: ('A' for Active; 'I' for Inactive)
REMARK    1  A    between atoms: C_1  and  C_2
REMARK    2  A    between atoms: C_5  and  C_7
REMARK    3  A    between atoms: N_9  and  C_10
REMARK    4  A    between atoms: C_10  and  C_11
REMARK    5  A    between atoms: N_13  and  N_14
REMARK    6  A    between atoms: C_15  and  C_17
REMARK    7  A    between atoms: C_24  and  C_27
REMARK    8  A    between atoms: C_27  and  C_28
REMARK    9  A    between atoms: C_27  and  C_29
REMARK   10  A    between atoms: C_27  and  C_30
REMARK                            x       y       z     vdW  Elec       q    Type
REMARK                         _______ _______ _______ _____ _____    ______ ____
ROOT
ATOM      1  N   UNL     1       6.599  -5.454  -0.091  0.00  0.00    -0.230 N 
ATOM      2  C   UNL     1       7.132  -6.692  -0.103  0.00  0.00    +0.267 C 
ATOM      3  O   UNL     1       6.405  -7.668  -0.102  0.00  0.00    -0.268 OA
ATOM      4  H   UNL     1       7.257  -4.572  -0.092  0.00  0.00    +0.173 HD
ENDROOT
BRANCH   2   5
ATOM      5  C   UNL     1       8.588  -6.863  -0.118  0.00  0.00    +0.076 A 
ATOM      6  C   UNL     1       9.329  -8.031  -0.126  0.00  0.00    +0.024 A 
ATOM      7  C   UNL     1      10.710  -7.929  -0.144  0.00  0.00    -0.036 A 
ATOM      8  C   UNL     1      11.234  -6.668  -0.142  0.00  0.00    -0.006 A 
ATOM      9  S   UNL     1       9.868  -5.619  -0.122  0.00  0.00    -0.088 S 
ATOM     10  C   UNL     1      12.684  -6.292  -0.155  0.00  0.00    +0.043 C 
ATOM     11  C   UNL     1      13.502  -7.531  -0.546  0.00  0.00    +0.009 C 
ATOM     12  C   UNL     1      13.024  -8.721   0.292  0.00  0.00    -0.001 C 
ATOM     13  C   UNL     1      11.627  -9.149  -0.159  0.00  0.00    +0.040 C 
BRANCH  12  14
ATOM     14  C   UNL     1      13.996  -9.889   0.115  0.00  0.00    -0.035 C 
ATOM     15  C   UNL     1      14.038 -10.299  -1.359  0.00  0.00    +0.011 C 
ATOM     16  C   UNL     1      15.394  -9.463   0.565  0.00  0.00    +0.011 C 
ATOM     17  C   UNL     1      13.527 -11.075   0.960  0.00  0.00    +0.011 C 
ENDBRANCH  12  14
ENDBRANCH   2   5
BRANCH   1  20
ATOM     18  C   UNL     1       4.675  -4.052  -0.065  0.00  0.00    +0.246 C 
ATOM     19  O   UNL     1       5.400  -3.080  -0.066  0.00  0.00    -0.273 OA
ATOM     20  N   UNL     1       5.208  -5.290  -0.077  0.00  0.00    -0.233 N 
ATOM     21  H   UNL     1       4.551  -6.172  -0.076  0.00  0.00    +0.173 HD
BRANCH  18  22
ATOM     22  C   UNL     1       3.179  -3.876  -0.050  0.00  0.00    +0.202 C 
BRANCH  22  25
ATOM     23  C   UNL     1       1.568  -2.048  -0.024  0.00  0.00    +0.251 C 
ATOM     24  O   UNL     1       0.675  -2.874  -0.021  0.00  0.00    -0.270 OA
ATOM     25  N   UNL     1       2.855  -2.447  -0.039  0.00  0.00    -0.302 N 
ATOM     26  H   UNL     1       3.663  -1.701  -0.042  0.00  0.00    +0.150 HD
BRANCH  23  31
ATOM     27  C   UNL     1       1.380   3.539   0.007  0.00  0.00    +0.051 C 
ATOM     28  C   UNL     1       1.160   2.048   0.002  0.00  0.00    -0.013 A 
ATOM     29  C   UNL     1      -0.017   1.368   0.010  0.00  0.00    +0.011 A 
ATOM     30  C   UNL     1       0.002  -0.004   0.002  0.00  0.00    +0.021 A 
ATOM     31  C   UNL     1       1.244  -0.619  -0.013  0.00  0.00    +0.074 A 
ATOM     32  S   UNL     1       2.347   0.784  -0.016  0.00  0.00    -0.089 S 
ENDBRANCH  23  31
ENDBRANCH  22  25
ENDBRANCH  18  22
ENDBRANCH   1  20
TORSDOF 6
