REMARK  Name = ZINC64981589
REMARK  4 active torsions:
REMARK  status: ('A' for Active; 'I' for Inactive)
REMARK    1  A    between atoms: C_1  and  C_2
REMARK    2  A    between atoms: N_16  and  N_17
REMARK    3  A    between atoms: C_18  and  C_19
REMARK    4  A    between atoms: C_20  and  C_24
REMARK                            x       y       z     vdW  Elec       q    Type
REMARK                         _______ _______ _______ _____ _____    ______ ____
ROOT
ATOM      1  C   UNL     1      -0.018   1.503   0.010  0.00  0.00    +0.044 C 
ATOM      2  C   UNL     1       0.002  -0.004   0.002  0.00  0.00    -0.050 A 
ATOM      3  C   UNL     1       0.006  -0.688  -1.204  0.00  0.00    +0.005 A 
ATOM      4  C   UNL     1       0.024  -2.066  -1.228  0.00  0.00    +0.026 A 
ATOM      5  C   UNL     1       0.040  -2.784  -0.036  0.00  0.00    +0.050 A 
ATOM      6  C   UNL     1       0.037  -2.090   1.184  0.00  0.00    +0.029 A 
ATOM      7  C   UNL     1       0.023  -0.697   1.193  0.00  0.00    +0.015 A 
ATOM      8  C   UNL     1       0.055  -3.113   2.243  0.00  0.00    +0.138 A 
ATOM      9  C   UNL     1       0.068  -4.362   1.588  0.00  0.00    +0.163 A 
ATOM     10  N   UNL     1       0.059  -4.143   0.233  0.00  0.00    -0.338 N 
ATOM     11  H   UNL     1       0.065  -4.840  -0.441  0.00  0.00    +0.167 HD
ATOM     12  N   UNL     1       0.087  -5.464   2.331  0.00  0.00    -0.192 NA
ATOM     13  C   UNL     1       0.092  -5.355   3.654  0.00  0.00    +0.256 A 
ATOM     14  N   UNL     1       0.079  -4.167   4.248  0.00  0.00    -0.111 NA
ATOM     15  N   UNL     1       0.061  -3.072   3.568  0.00  0.00    -0.142 NA
ATOM     16  N   UNL     1       0.111  -6.502   4.429  0.00  0.00    -0.204 N 
ATOM     17  H   UNL     1       0.120  -7.374   4.004  0.00  0.00    +0.177 HD
ENDROOT
BRANCH  16  18
ATOM     18  N   UNL     1       0.117  -6.402   5.826  0.00  0.00    -0.187 NA
ATOM     19  C   UNL     1       0.135  -7.479   6.554  0.00  0.00    +0.145 C 
BRANCH  19  20
ATOM     20  C   UNL     1       0.141  -7.375   8.018  0.00  0.00    +0.035 A 
ATOM     21  C   UNL     1       0.164  -8.385   8.964  0.00  0.00    -0.035 A 
ATOM     22  C   UNL     1       0.165  -8.034  10.295  0.00  0.00    +0.011 A 
ATOM     23  C   UNL     1       0.143  -6.719  10.635  0.00  0.00    +0.046 A 
ATOM     24  S   UNL     1       0.127  -5.913   9.042  0.00  0.00    -0.095 S 
ATOM     25  C   UNL     1       0.188  -9.833   8.548  0.00  0.00    +0.045 C 
ENDBRANCH  19  20
ENDBRANCH  16  18
TORSDOF 2
