REMARK  Name = ZINC65148951
REMARK  3 active torsions:
REMARK  status: ('A' for Active; 'I' for Inactive)
REMARK    1  A    between atoms: C_1  and  N_2
REMARK    2  A    between atoms: N_17  and  C_18
REMARK    3  A    between atoms: C_18  and  C_19
REMARK                            x       y       z     vdW  Elec       q    Type
REMARK                         _______ _______ _______ _____ _____    ______ ____
ROOT
ATOM      1  C   UNL     1      -0.018   1.461   0.010  0.00  0.00    +0.149 C 
ATOM      2  N   UNL     1       0.002  -0.004   0.002  0.00  0.00    -0.349 N 
ATOM      3  C   UNL     1       0.008  -0.786  -1.130  0.00  0.00    +0.090 A 
ATOM      4  C   UNL     1       0.056  -2.068  -0.794  0.00  0.00    -0.020 A 
ATOM      5  C   UNL     1       0.133  -2.120   0.678  0.00  0.00    +0.008 A 
ATOM      6  C   UNL     1       0.024  -0.798   1.125  0.00  0.00    +0.049 A 
ATOM      7  C   UNL     1      -0.060  -0.587   2.499  0.00  0.00    +0.026 A 
ATOM      8  C   UNL     1       0.023  -1.663   3.359  0.00  0.00    +0.002 A 
ATOM      9  C   UNL     1       0.216  -2.959   2.891  0.00  0.00    +0.006 A 
ATOM     10  C   UNL     1       0.305  -3.184   1.550  0.00  0.00    -0.021 A 
ATOM     11  C   UNL     1       0.711  -4.533   0.998  0.00  0.00    +0.145 C 
ATOM     12  N   UNL     1       1.710  -4.311  -0.060  0.00  0.00    -0.281 N 
ATOM     13  C   UNL     1       1.342  -4.074  -1.454  0.00  0.00    +0.114 C 
ATOM     14  C   UNL     1       0.025  -3.329  -1.623  0.00  0.00    +0.056 C 
ATOM     15  C   UNL     1       3.017  -4.328   0.270  0.00  0.00    +0.303 C 
ATOM     16  O   UNL     1       3.862  -4.147  -0.585  0.00  0.00    -0.253 OA
ATOM     17  N   UNL     1       3.386  -4.544   1.548  0.00  0.00    -0.297 N 
ATOM     18  H   UNL     1       2.711  -4.687   2.230  0.00  0.00    +0.150 HD
ENDROOT
BRANCH  17  19
ATOM     19  C   UNL     1       4.806  -4.561   1.907  0.00  0.00    +0.137 C 
BRANCH  19  20
ATOM     20  C   UNL     1       4.949  -4.824   3.408  0.00  0.00    +0.135 C 
ATOM     21  C   UNL     1       6.444  -4.812   3.815  0.00  0.00    +0.035 C 
ATOM     22  C   UNL     1       6.337  -4.444   5.320  0.00  0.00    +0.031 C 
ATOM     23  C   UNL     1       5.118  -3.497   5.339  0.00  0.00    +0.160 C 
ATOM     24  O   UNL     1       4.345  -3.761   4.160  0.00  0.00    -0.375 OA
ENDBRANCH  19  20
ENDBRANCH  17  19
TORSDOF 2
