REMARK  Name = ZINC67233291
REMARK  6 active torsions:
REMARK  status: ('A' for Active; 'I' for Inactive)
REMARK    1  A    between atoms: C_1  and  C_2
REMARK    2  A    between atoms: C_2  and  N_3
REMARK    3  A    between atoms: C_6  and  C_9
REMARK    4  A    between atoms: C_9  and  N_10
REMARK    5  A    between atoms: C_11  and  C_13
REMARK    6  A    between atoms: N_22  and  C_23
REMARK                            x       y       z     vdW  Elec       q    Type
REMARK                         _______ _______ _______ _____ _____    ______ ____
ROOT
ATOM      1  C   UNL     1       4.430  -6.260  -5.056  0.00  0.00    +0.092 C 
ATOM      2  C   UNL     1       4.831  -6.607  -6.492  0.00  0.00    +0.016 C 
ATOM      3  C   UNL     1       4.665  -8.112  -6.720  0.00  0.00    +0.020 C 
ATOM      4  C   UNL     1       3.195  -8.495  -6.522  0.00  0.00    +0.109 C 
ATOM      5  N   UNL     1       2.760  -8.034  -5.196  0.00  0.00    -0.285 N 
ATOM      6  C   UNL     1       2.958  -6.623  -4.839  0.00  0.00    +0.122 C 
ATOM      7  C   UNL     1       2.192  -8.890  -4.324  0.00  0.00    +0.307 C 
ATOM      8  O   UNL     1       1.921  -8.520  -3.198  0.00  0.00    -0.252 OA
ATOM      9  N   UNL     1       1.922 -10.156  -4.700  0.00  0.00    -0.267 N 
ATOM     10  H   UNL     1       2.197 -10.470  -5.576  0.00  0.00    +0.156 HD
ENDROOT
BRANCH   9  11
ATOM     11  C   UNL     1       1.246 -11.017  -3.827  0.00  0.00    +0.070 A 
ATOM     12  C   UNL     1       0.533 -10.500  -2.754  0.00  0.00    +0.026 A 
ATOM     13  C   UNL     1      -0.133 -11.352  -1.894  0.00  0.00    +0.002 A 
ATOM     14  C   UNL     1      -0.091 -12.719  -2.100  0.00  0.00    +0.003 A 
ATOM     15  C   UNL     1       0.618 -13.238  -3.168  0.00  0.00    +0.040 A 
ATOM     16  C   UNL     1       1.282 -12.391  -4.036  0.00  0.00    +0.145 A 
ATOM     17  F   UNL     1       1.970 -12.898  -5.082  0.00  0.00    -0.204 F 
ENDBRANCH   9  11
BRANCH   1  19
ATOM     18  N   UNL     1       4.332  -4.247  -3.622  0.00  0.00    -0.315 N 
ATOM     19  C   UNL     1       4.624  -4.784  -4.823  0.00  0.00    +0.218 C 
ATOM     20  O   UNL     1       5.043  -4.079  -5.717  0.00  0.00    -0.275 OA
ATOM     21  H   UNL     1       3.997  -4.811  -2.907  0.00  0.00    +0.149 HD
BRANCH  18  22
ATOM     22  C   UNL     1       4.521  -2.812  -3.395  0.00  0.00    +0.107 C 
BRANCH  22  26
ATOM     23  N   UNL     1       2.508  -0.853  -0.173  0.00  0.00    +0.380 N 
ATOM     24  C   UNL     1       3.955  -0.631  -0.275  0.00  0.00    -0.079 C 
ATOM     25  C   UNL     1       4.432  -0.992  -1.683  0.00  0.00    -0.014 C 
ATOM     26  C   UNL     1       4.119  -2.465  -1.961  0.00  0.00    +0.003 C 
ATOM     27  C   UNL     1       2.617  -2.700  -1.779  0.00  0.00    -0.014 C 
ATOM     28  C   UNL     1       2.207  -2.276  -0.367  0.00  0.00    -0.079 C 
ATOM     29  H   UNL     1       2.036  -0.311  -0.881  0.00  0.00    -0.082 HD
BRANCH  23  31
ATOM     30  C   UNL     1       2.241   1.077   1.311  0.00  0.00    -0.017 C 
ATOM     31  C   UNL     1       2.042  -0.432   1.155  0.00  0.00    -0.082 C 
ENDBRANCH  23  31
ENDBRANCH  22  26
ENDBRANCH  18  22
ENDBRANCH   1  19
TORSDOF 5
