REMARK  Name = ZINC10045962
REMARK  4 active torsions:
REMARK  status: ('A' for Active; 'I' for Inactive)
REMARK    1  A    between atoms: C_3  and  S_8
REMARK    2  A    between atoms: S_8  and  C_11
REMARK    3  A    between atoms: C_11  and  C_12
REMARK    4  A    between atoms: N_14  and  N_15
REMARK                            x       y       z     vdW  Elec       q    Type
REMARK                         _______ _______ _______ _____ _____    ______ ____
ROOT
ATOM      1  C   UNL     1       2.369   1.025  -0.015  0.00  0.00    +0.251 C 
ATOM      2  O   UNL     1       2.385  -0.188  -0.022  0.00  0.00    -0.272 OA
ATOM      3  N   UNL     1       1.193   1.683  -0.000  0.00  0.00    -0.234 N 
ATOM      4  H   UNL     1       1.179   2.653   0.005  0.00  0.00    +0.173 HD
ENDROOT
BRANCH   3   5
ATOM      5  N   UNL     1      -0.011   0.966   0.007  0.00  0.00    -0.243 N 
ATOM      6  C   UNL     1      -1.216   1.640   0.017  0.00  0.00    +0.176 A 
ATOM      7  N   UNL     1      -1.435   2.935   0.031  0.00  0.00    -0.222 NA
ATOM      8  C   UNL     1      -2.681   3.459   0.034  0.00  0.00    +0.100 A 
ATOM      9  C   UNL     1      -3.053   4.824   0.043  0.00  0.00    +0.068 A 
ATOM     10  C   UNL     1      -4.375   5.190   0.052  0.00  0.00    +0.023 A 
ATOM     11  C   UNL     1      -5.389   4.243   0.051  0.00  0.00    +0.022 A 
ATOM     12  C   UNL     1      -5.061   2.899   0.042  0.00  0.00    +0.057 A 
ATOM     13  C   UNL     1      -3.739   2.524   0.034  0.00  0.00    +0.060 A 
ATOM     14  S   UNL     1      -2.874   0.972   0.021  0.00  0.00    -0.049 S 
ATOM     15 CL   UNL     1      -6.311   1.694   0.042  0.00  0.00    -0.082 Cl
ATOM     16 CL   UNL     1      -1.823   6.050   0.044  0.00  0.00    -0.081 Cl
ATOM     17  H   UNL     1       0.002  -0.004   0.002  0.00  0.00    +0.172 HD
ENDBRANCH   3   5
BRANCH   1  18
ATOM     18  C   UNL     1       3.663   1.796  -0.023  0.00  0.00    +0.268 C 
BRANCH  18  19
ATOM     19  S   UNL     1       5.058   0.636  -0.043  0.00  0.00    +0.005 S 
ATOM     20  O   UNL     1       5.123  -0.072   1.188  0.00  0.00    -0.169 OA
ATOM     21  O   UNL     1       5.099  -0.059  -1.282  0.00  0.00    -0.169 OA
BRANCH  19  24
ATOM     22  C   UNL     1       8.197   2.849   1.138  0.00  0.00    +0.040 A 
ATOM     23  C   UNL     1       7.070   2.049   1.143  0.00  0.00    +0.030 A 
ATOM     24  C   UNL     1       6.495   1.656  -0.051  0.00  0.00    +0.089 A 
ATOM     25  C   UNL     1       7.050   2.057  -1.252  0.00  0.00    +0.030 A 
ATOM     26  C   UNL     1       8.174   2.861  -1.260  0.00  0.00    +0.040 A 
ATOM     27  C   UNL     1       8.751   3.256  -0.064  0.00  0.00    +0.124 A 
ATOM     28  F   UNL     1       9.853   4.037  -0.070  0.00  0.00    -0.205 F 
ENDBRANCH  19  24
ENDBRANCH  18  19
ENDBRANCH   1  18
TORSDOF 4
