REMARK  Name = ZINC39608840
REMARK  6 active torsions:
REMARK  status: ('A' for Active; 'I' for Inactive)
REMARK    1  A    between atoms: C_4  and  C_7
REMARK    2  A    between atoms: C_7  and  O_8
REMARK    3  A    between atoms: O_8  and  C_9
REMARK    4  A    between atoms: C_14  and  N_16
REMARK    5  A    between atoms: C_17  and  C_19
REMARK    6  A    between atoms: C_30  and  C_32
REMARK                            x       y       z     vdW  Elec       q    Type
REMARK                         _______ _______ _______ _____ _____    ______ ____
ROOT
ATOM      1  C   UNL     1       9.369   0.760   2.892  0.00  0.00    +0.100 C 
ATOM      2  C   UNL     1       9.321   1.524   1.550  0.00  0.00    +0.121 C 
ATOM      3  N   UNL     1       9.076   2.935   1.930  0.00  0.00    -0.296 N 
ATOM      4  C   UNL     1       9.900   3.137   3.146  0.00  0.00    +0.115 C 
ATOM      5  C   UNL     1       9.753   1.822   3.937  0.00  0.00    -0.004 C 
ATOM      6  C   UNL     1      11.077   1.455   4.601  0.00  0.00    -0.010 C 
ATOM      7  C   UNL     1      11.408   2.494   5.676  0.00  0.00    -0.082 C 
ATOM      8  N   UNL     1      10.330   2.530   6.673  0.00  0.00    +0.379 N 
ATOM      9  C   UNL     1       9.081   2.974   6.043  0.00  0.00    -0.082 C 
ATOM     10  C   UNL     1       8.651   1.956   4.983  0.00  0.00    -0.010 C 
ATOM     11  C   UNL     1       8.283   3.832   1.311  0.00  0.00    +0.248 C 
ATOM     12  O   UNL     1       7.591   3.486   0.373  0.00  0.00    -0.270 OA
ATOM     13  H   UNL     1      10.201   1.608   7.060  0.00  0.00    -0.086 HD
ATOM     14  H   UNL     1      10.579   3.171   7.412  0.00  0.00    -0.086 HD
ENDROOT
BRANCH  11  15
ATOM     15  C   UNL     1       8.256   5.235   1.771  0.00  0.00    +0.055 A 
ATOM     16  C   UNL     1       9.419   5.838   2.254  0.00  0.00    +0.016 A 
ATOM     17  C   UNL     1       9.387   7.148   2.682  0.00  0.00    +0.021 A 
ATOM     18  C   UNL     1       8.204   7.867   2.635  0.00  0.00    +0.042 A 
ATOM     19  C   UNL     1       7.046   7.277   2.159  0.00  0.00    +0.040 A 
ATOM     20  C   UNL     1       7.066   5.967   1.720  0.00  0.00    +0.054 A 
ATOM     21 CL   UNL     1       5.616   5.229   1.116  0.00  0.00    -0.083 Cl
ATOM     22 CL   UNL     1       8.173   9.516   3.177  0.00  0.00    -0.083 Cl
ENDBRANCH  11  15
BRANCH   1  24
ATOM     23  N   UNL     1       7.930  -0.968   3.921  0.00  0.00    -0.310 N 
ATOM     24  C   UNL     1       8.018   0.174   3.212  0.00  0.00    +0.218 C 
ATOM     25  O   UNL     1       7.010   0.731   2.830  0.00  0.00    -0.275 OA
ATOM     26  H   UNL     1       8.736  -1.413   4.226  0.00  0.00    +0.149 HD
BRANCH  23  31
ATOM     27  C   UNL     1       6.741  -3.054   4.461  0.00  0.00    +0.139 C 
ATOM     28  C   UNL     1       6.273  -3.322   5.907  0.00  0.00    +0.033 C 
ATOM     29  C   UNL     1       6.480  -1.968   6.630  0.00  0.00    +0.004 C 
ATOM     30  C   UNL     1       6.076  -0.937   5.547  0.00  0.00    +0.025 C 
ATOM     31  C   UNL     1       6.617  -1.538   4.232  0.00  0.00    +0.102 C 
BRANCH  27  32
ATOM     32  O   UNL     1       5.908  -3.759   3.539  0.00  0.00    -0.370 OA
BRANCH  32  33
ATOM     33  C   UNL     1       6.391  -5.059   3.194  0.00  0.00    +0.195 C 
BRANCH  33  37
ATOM     34  C   UNL     1       3.697  -6.899   0.436  0.00  0.00    +0.000 A 
ATOM     35  C   UNL     1       4.746  -6.129  -0.031  0.00  0.00    +0.000 A 
ATOM     36  C   UNL     1       5.618  -5.534   0.861  0.00  0.00    +0.006 A 
ATOM     37  C   UNL     1       5.440  -5.707   2.221  0.00  0.00    -0.022 A 
ATOM     38  C   UNL     1       4.391  -6.476   2.689  0.00  0.00    +0.006 A 
ATOM     39  C   UNL     1       3.520  -7.072   1.796  0.00  0.00    +0.000 A 
ENDBRANCH  33  37
ENDBRANCH  32  33
ENDBRANCH  27  32
ENDBRANCH  23  31
ENDBRANCH   1  24
TORSDOF 6
