REMARK  Name = ZINC51953092
REMARK  6 active torsions:
REMARK  status: ('A' for Active; 'I' for Inactive)
REMARK    1  A    between atoms: C_1  and  C_2
REMARK    2  A    between atoms: N_7  and  S_9
REMARK    3  A    between atoms: S_9  and  N_12
REMARK    4  A    between atoms: N_12  and  C_13
REMARK    5  A    between atoms: C_16  and  C_19
REMARK    6  A    between atoms: C_19  and  N_20
REMARK                            x       y       z     vdW  Elec       q    Type
REMARK                         _______ _______ _______ _____ _____    ______ ____
ROOT
ATOM      1  N   UNL     1       2.514  -3.247  -0.119  0.00  0.00    -0.067 NA
ENDROOT
BRANCH   1   2
ATOM      2  C   UNL     1       3.649  -4.024  -0.319  0.00  0.00    +0.164 A 
ATOM      3  C   UNL     1       4.079  -4.295  -1.614  0.00  0.00    +0.047 A 
ATOM      4  C   UNL     1       5.210  -5.070  -1.798  0.00  0.00    +0.006 A 
ATOM      5  C   UNL     1       5.875  -5.550  -0.677  0.00  0.00    -0.047 A 
ATOM      6  C   UNL     1       5.392  -5.242   0.579  0.00  0.00    +0.114 A 
ATOM      7  N   UNL     1       4.313  -4.495   0.725  0.00  0.00    -0.237 NA
BRANCH   5   8
ATOM      8  C   UNL     1       7.111  -6.398  -0.830  0.00  0.00    -0.049 C 
BRANCH   8   9
ATOM      9  N   UNL     1       8.298  -5.534  -0.858  0.00  0.00    +0.381 N 
ATOM     10  H   UNL     1       8.230  -4.894  -1.635  0.00  0.00    -0.090 HD
ATOM     11  H   UNL     1       8.354  -5.011   0.004  0.00  0.00    -0.090 HD
ATOM     12  H   UNL     1       9.126  -6.102  -0.960  0.00  0.00    -0.090 HD
ENDBRANCH   8   9
ENDBRANCH   5   8
ENDBRANCH   1   2
BRANCH   1  13
ATOM     13  S   UNL     1       1.999  -2.914   1.419  0.00  0.00    +0.133 S 
ATOM     14  O   UNL     1       2.998  -2.098   2.015  0.00  0.00    -0.136 OA
ATOM     15  O   UNL     1       1.587  -4.150   1.986  0.00  0.00    -0.136 OA
BRANCH  13  21
ATOM     16  C   UNL     1      -0.019   1.526   0.010  0.00  0.00    +0.009 C 
ATOM     17  C   UNL     1       0.002  -0.004   0.002  0.00  0.00    +0.002 C 
ATOM     18  C   UNL     1      -1.433  -0.534   0.015  0.00  0.00    +0.006 C 
ATOM     19  C   UNL     1      -1.414  -2.064  -0.027  0.00  0.00    +0.017 C 
ATOM     20  C   UNL     1      -0.692  -2.596   1.215  0.00  0.00    +0.111 C 
ATOM     21  N   UNL     1       0.639  -1.977   1.288  0.00  0.00    -0.162 NA
ATOM     22  C   UNL     1       0.742  -0.512   1.244  0.00  0.00    +0.114 C 
ENDBRANCH  13  21
ENDBRANCH   1  13
TORSDOF 5
