REMARK  Name = ZINC40173253
REMARK  15 active torsions:
REMARK  status: ('A' for Active; 'I' for Inactive)
REMARK    1  A    between atoms: C_1  and  C_2
REMARK    2  A    between atoms: C_2  and  C_3
REMARK    3  A    between atoms: C_3  and  C_5
REMARK    4  A    between atoms: C_3  and  N_22
REMARK    5  A    between atoms: N_7  and  C_8
REMARK    6  A    between atoms: C_9  and  C_17
REMARK    7  A    between atoms: C_10  and  C_14
REMARK    8  A    between atoms: C_11  and  C_13
REMARK    9  A    between atoms: C_14  and  C_16
REMARK   10  A    between atoms: C_17  and  O_19
REMARK   11  A    between atoms: O_19  and  C_20
REMARK   12  A    between atoms: C_20  and  C_21
REMARK   13  A    between atoms: C_26  and  S_27
REMARK   14  A    between atoms: S_27  and  C_28
REMARK   15  A    between atoms: C_28  and  C_29
REMARK                            x       y       z     vdW  Elec       q    Type
REMARK                         _______ _______ _______ _____ _____    ______ ____
ROOT
ATOM      1  C   UNL     1      -0.752  -0.727  -0.604  0.00  0.00    +0.178 C 
ENDROOT
BRANCH   1   2
ATOM      2  N   UNL     1      -1.341  -0.417  -1.910  0.00  0.00    -0.279 N 
ATOM      3  C   UNL     1      -0.987  -0.980  -3.104  0.00  0.00    +0.216 A 
ATOM      4  N   UNL     1      -1.736  -0.450  -4.039  0.00  0.00    -0.113 NA
ATOM      5  N   UNL     1      -2.594   0.478  -3.433  0.00  0.00    -0.121 NA
ATOM      6  C   UNL     1      -2.344   0.480  -2.146  0.00  0.00    +0.194 A 
ATOM      7  N   UNL     1      -0.005  -1.944  -3.293  0.00  0.00    -0.328 N 
ATOM      8  H   UNL     1       0.500  -2.277  -2.535  0.00  0.00    +0.145 HD
ATOM      9  H   UNL     1       0.175  -2.284  -4.183  0.00  0.00    +0.145 HD
BRANCH   6  10
ATOM     10  S   UNL     1      -3.157   1.468  -0.935  0.00  0.00    -0.081 S 
BRANCH  10  11
ATOM     11  C   UNL     1      -4.367   2.425  -1.889  0.00  0.00    +0.114 C 
BRANCH  11  12
ATOM     12  C   UNL     1      -5.141   3.324  -0.961  0.00  0.00    -0.019 A 
ATOM     13  C   UNL     1      -6.305   2.870  -0.369  0.00  0.00    +0.006 A 
ATOM     14  C   UNL     1      -7.015   3.695   0.483  0.00  0.00    +0.000 A 
ATOM     15  C   UNL     1      -6.562   4.975   0.744  0.00  0.00    +0.001 A 
ATOM     16  C   UNL     1      -5.399   5.430   0.153  0.00  0.00    +0.020 A 
ATOM     17  C   UNL     1      -4.685   4.603  -0.696  0.00  0.00    +0.045 A 
ATOM     18 CL   UNL     1      -3.220   5.172  -1.433  0.00  0.00    -0.083 Cl
ENDBRANCH  11  12
ENDBRANCH  10  11
ENDBRANCH   6  10
ENDBRANCH   1   2
BRANCH   1  19
ATOM     19  C   UNL     1      -0.947  -2.189  -0.299  0.00  0.00    +0.242 C 
ATOM     20  O   UNL     1      -1.521  -2.904  -1.094  0.00  0.00    -0.273 OA
ATOM     21  N   UNL     1      -0.483  -2.704   0.857  0.00  0.00    -0.254 N 
ATOM     22  H   UNL     1      -0.024  -2.133   1.492  0.00  0.00    +0.158 HD
BRANCH  21  23
ATOM     23  C   UNL     1      -0.661  -4.045   1.137  0.00  0.00    +0.207 A 
ATOM     24  C   UNL     1      -0.241  -4.695   2.283  0.00  0.00    +0.130 A 
ATOM     25  C   UNL     1      -0.664  -6.105   2.109  0.00  0.00    +0.074 A 
ATOM     26  C   UNL     1      -1.285  -6.154   0.896  0.00  0.00    +0.116 A 
ATOM     27  O   UNL     1      -1.276  -4.935   0.346  0.00  0.00    -0.445 OA
ATOM     28  C   UNL     1      -1.889  -7.387   0.275  0.00  0.00    +0.087 C 
BRANCH  25  29
ATOM     29  C   UNL     1      -0.459  -7.213   3.044  0.00  0.00    +0.164 C 
ATOM     30  O   UNL     1       0.570  -7.855   3.007  0.00  0.00    -0.292 OA
ATOM     31  C   UNL     1      -1.526  -7.556   4.051  0.00  0.00    +0.092 C 
ENDBRANCH  25  29
BRANCH  24  32
ATOM     32  C   UNL     1       0.469  -4.114   3.424  0.00  0.00    +0.345 C 
ATOM     33  O   UNL     1      -0.157  -3.654   4.360  0.00  0.00    -0.245 OA
BRANCH  32  34
ATOM     34  O   UNL     1       1.818  -4.090   3.437  0.00  0.00    -0.461 OA
BRANCH  34  35
ATOM     35  C   UNL     1       2.445  -3.509   4.582  0.00  0.00    +0.229 C 
ATOM     36  C   UNL     1       3.965  -3.571   4.417  0.00  0.00    +0.048 C 
ENDBRANCH  34  35
ENDBRANCH  32  34
ENDBRANCH  24  32
ENDBRANCH  21  23
ENDBRANCH   1  19
BRANCH   1  38
ATOM     37  C   UNL     1       0.940   1.100  -0.817  0.00  0.00    +0.006 C 
ATOM     38  C   UNL     1       0.744  -0.406  -0.631  0.00  0.00    +0.031 C 
ENDBRANCH   1  38
TORSDOF 11
