REMARK  Name = ZINC32109287
REMARK  2 active torsions:
REMARK  status: ('A' for Active; 'I' for Inactive)
REMARK    1  A    between atoms: C_6  and  C_7
REMARK    2  A    between atoms: C_20  and  C_23
REMARK                            x       y       z     vdW  Elec       q    Type
REMARK                         _______ _______ _______ _____ _____    ______ ____
ROOT
ATOM      1  C   UNL     1      -0.852   2.375   1.279  0.00  0.00    +0.105 C 
ATOM      2  C   UNL     1      -0.198   1.820   0.011  0.00  0.00    +0.029 C 
ATOM      3  C   UNL     1      -0.682   2.661  -1.204  0.00  0.00    +0.033 C 
ATOM      4  C   UNL     1       0.224   3.876  -1.179  0.00  0.00    -0.030 C 
ATOM      5  C   UNL     1       1.320   3.618  -0.509  0.00  0.00    -0.023 C 
ATOM      6  C   UNL     1       1.298   2.201   0.015  0.00  0.00    +0.049 C 
ATOM      7  C   UNL     1       1.876   2.139   1.399  0.00  0.00    -0.018 A 
ATOM      8  C   UNL     1       3.248   2.297   1.538  0.00  0.00    +0.021 A 
ATOM      9  C   UNL     1       3.847   2.254   2.784  0.00  0.00    +0.019 A 
ATOM     10  C   UNL     1       3.085   2.054   3.915  0.00  0.00    +0.032 A 
ATOM     11  C   UNL     1       1.704   1.892   3.795  0.00  0.00    +0.085 A 
ATOM     12  C   UNL     1       1.097   1.933   2.524  0.00  0.00    +0.046 A 
ATOM     13  N   UNL     1      -0.276   1.757   2.453  0.00  0.00    -0.336 N 
ATOM     14 BR   UNL     1       5.720   2.471   2.937  0.00  0.00    -0.050 Br
ATOM     15  H   UNL     1      -0.921   1.224   3.167  0.00  0.00    +0.147 HD
ENDROOT
BRANCH   1  21
ATOM     16  C   UNL     1      -2.794   0.828   1.595  0.00  0.00    +0.006 A 
ATOM     17  C   UNL     1      -4.151   0.562   1.574  0.00  0.00    +0.015 A 
ATOM     18  C   UNL     1      -5.043   1.550   1.197  0.00  0.00    +0.018 A 
ATOM     19  C   UNL     1      -4.578   2.804   0.847  0.00  0.00    +0.015 A 
ATOM     20  C   UNL     1      -3.222   3.071   0.873  0.00  0.00    +0.006 A 
ATOM     21  C   UNL     1      -2.330   2.084   1.250  0.00  0.00    -0.027 A 
ATOM     22 BR   UNL     1      -6.898   1.184   1.161  0.00  0.00    -0.050 Br
ENDBRANCH   1  21
BRANCH  11  23
ATOM     23  C   UNL     1       0.880   1.679   4.998  0.00  0.00    +0.388 C 
ATOM     24  O   UNL     1      -0.301   1.419   4.887  0.00  0.00    -0.241 OA
ATOM     25  O   UNL     1       1.437   1.774   6.221  0.00  0.00    -0.241 OA
ENDBRANCH  11  23
TORSDOF 2
