REMARK  Name = ZINC38704819
REMARK  7 active torsions:
REMARK  status: ('A' for Active; 'I' for Inactive)
REMARK    1  A    between atoms: C_1  and  C_2
REMARK    2  A    between atoms: C_4  and  C_35
REMARK    3  A    between atoms: C_5  and  C_9
REMARK    4  A    between atoms: C_6  and  O_8
REMARK    5  A    between atoms: N_17  and  C_27
REMARK    6  A    between atoms: C_18  and  C_20
REMARK    7  A    between atoms: C_27  and  C_28
REMARK                            x       y       z     vdW  Elec       q    Type
REMARK                         _______ _______ _______ _____ _____    ______ ____
ROOT
ATOM      1  C   UNL     1      -0.230  -4.713  -0.111  0.00  0.00    +0.102 A 
ATOM      2  C   UNL     1       0.044  -5.348   1.105  0.00  0.00    +0.035 A 
ATOM      3  C   UNL     1       0.104  -6.698   0.820  0.00  0.00    +0.126 A 
ATOM      4  N   UNL     1      -0.131  -6.814  -0.521  0.00  0.00    -0.272 N 
ATOM      5  H   UNL     1      -0.151  -7.649  -1.013  0.00  0.00    +0.189 HD
ATOM      6  N   UNL     1      -0.326  -5.651  -1.033  0.00  0.00    -0.173 NA
ATOM      7  C   UNL     1       0.389  -7.425   2.062  0.00  0.00    +0.266 C 
ATOM      8  O   UNL     1       0.504  -8.633   2.148  0.00  0.00    -0.268 OA
ATOM      9  N   UNL     1       0.505  -6.567   3.091  0.00  0.00    -0.281 N 
ATOM     10  C   UNL     1       0.301  -5.205   2.580  0.00  0.00    +0.142 C 
ENDROOT
BRANCH   1  15
ATOM     11  C   UNL     1      -0.853   0.956  -0.938  0.00  0.00    +0.044 C 
ATOM     12  C   UNL     1      -0.688  -0.526  -0.721  0.00  0.00    -0.047 A 
ATOM     13  C   UNL     1      -1.619  -1.407  -1.242  0.00  0.00    +0.007 A 
ATOM     14  C   UNL     1      -1.475  -2.766  -1.047  0.00  0.00    -0.037 A 
ATOM     15  C   UNL     1      -0.389  -3.253  -0.324  0.00  0.00    +0.047 A 
ATOM     16  C   UNL     1       0.550  -2.361   0.201  0.00  0.00    +0.127 A 
ATOM     17  C   UNL     1       0.397  -0.999  -0.006  0.00  0.00    +0.049 A 
ATOM     18  C   UNL     1      -2.492  -3.721  -1.616  0.00  0.00    +0.044 C 
BRANCH  16  19
ATOM     19  O   UNL     1       1.613  -2.827   0.908  0.00  0.00    -0.506 OA
ATOM     20  H   UNL     1       2.414  -2.946   0.380  0.00  0.00    +0.292 HD
ENDBRANCH  16  19
ENDBRANCH   1  15
BRANCH  10  21
ATOM     21  C   UNL     1      -0.889  -4.572   3.255  0.00  0.00    -0.022 A 
ATOM     22  C   UNL     1      -2.044  -5.306   3.450  0.00  0.00    +0.007 A 
ATOM     23  C   UNL     1      -3.135  -4.726   4.069  0.00  0.00    +0.015 A 
ATOM     24  C   UNL     1      -3.072  -3.411   4.493  0.00  0.00    +0.018 A 
ATOM     25  C   UNL     1      -1.916  -2.677   4.297  0.00  0.00    +0.015 A 
ATOM     26  C   UNL     1      -0.823  -3.260   3.683  0.00  0.00    +0.007 A 
ATOM     27 BR   UNL     1      -4.565  -2.617   5.340  0.00  0.00    -0.050 Br
ENDBRANCH  10  21
BRANCH   9  28
ATOM     28  C   UNL     1       0.786  -6.928   4.482  0.00  0.00    +0.144 C 
BRANCH  28  29
ATOM     29  C   UNL     1       2.276  -6.938   4.708  0.00  0.00    -0.030 A 
ATOM     30  C   UNL     1       2.999  -8.097   4.497  0.00  0.00    +0.008 A 
ATOM     31  C   UNL     1       4.366  -8.107   4.703  0.00  0.00    +0.038 A 
ATOM     32  C   UNL     1       5.010  -6.955   5.121  0.00  0.00    +0.123 A 
ATOM     33  C   UNL     1       4.285  -5.794   5.331  0.00  0.00    +0.038 A 
ATOM     34  C   UNL     1       2.920  -5.786   5.120  0.00  0.00    +0.008 A 
ATOM     35  F   UNL     1       6.346  -6.963   5.323  0.00  0.00    -0.205 F 
ENDBRANCH  28  29
ENDBRANCH   9  28
TORSDOF 5
