REMARK  Name = ZINC46318677
REMARK  6 active torsions:
REMARK  status: ('A' for Active; 'I' for Inactive)
REMARK    1  A    between atoms: C_1  and  C_2
REMARK    2  A    between atoms: C_2  and  C_3
REMARK    3  A    between atoms: C_2  and  N_4
REMARK    4  A    between atoms: C_6  and  C_11
REMARK    5  A    between atoms: N_13  and  N_14
REMARK    6  A    between atoms: C_15  and  C_17
REMARK                            x       y       z     vdW  Elec       q    Type
REMARK                         _______ _______ _______ _____ _____    ______ ____
ROOT
ATOM      1  N   UNL     1       5.059  -2.595  -4.695  0.00  0.00    -0.230 N 
ATOM      2  C   UNL     1       5.354  -3.092  -5.913  0.00  0.00    +0.267 C 
ATOM      3  O   UNL     1       4.461  -3.460  -6.653  0.00  0.00    -0.268 OA
ATOM      4  H   UNL     1       5.771  -2.302  -4.105  0.00  0.00    +0.173 HD
ENDROOT
BRANCH   2   5
ATOM      5  C   UNL     1       6.751  -3.188  -6.346  0.00  0.00    +0.076 A 
ATOM      6  C   UNL     1       7.263  -3.655  -7.540  0.00  0.00    +0.024 A 
ATOM      7  C   UNL     1       8.648  -3.634  -7.686  0.00  0.00    -0.036 A 
ATOM      8  C   UNL     1       9.361  -3.155  -6.633  0.00  0.00    -0.006 A 
ATOM      9  S   UNL     1       8.234  -2.727  -5.472  0.00  0.00    -0.088 S 
ATOM     10  C   UNL     1      10.850  -3.026  -6.515  0.00  0.00    +0.043 C 
ATOM     11  C   UNL     1      11.458  -2.826  -7.907  0.00  0.00    +0.005 C 
ATOM     12  C   UNL     1      11.769  -4.195  -8.504  0.00  0.00    +0.001 C 
ATOM     13  C   UNL     1      10.495  -5.024  -8.641  0.00  0.00    +0.005 C 
ATOM     14  C   UNL     1       9.308  -4.125  -8.970  0.00  0.00    +0.036 C 
ENDBRANCH   2   5
BRANCH   1  17
ATOM     15  C   UNL     1       3.429  -2.007  -3.063  0.00  0.00    +0.234 C 
ATOM     16  O   UNL     1       4.319  -1.640  -2.326  0.00  0.00    -0.274 OA
ATOM     17  N   UNL     1       3.724  -2.503  -4.281  0.00  0.00    -0.234 N 
ATOM     18  H   UNL     1       3.012  -2.796  -4.871  0.00  0.00    +0.173 HD
BRANCH  15  21
ATOM     19  N   UNL     1       0.688  -0.476  -1.203  0.00  0.00    -0.298 N 
ATOM     20  C   UNL     1       1.894  -1.312  -1.196  0.00  0.00    +0.121 C 
ATOM     21  C   UNL     1       1.992  -1.907  -2.618  0.00  0.00    +0.102 C 
ATOM     22  C   UNL     1       1.225  -0.856  -3.453  0.00  0.00    +0.110 C 
ATOM     23  C   UNL     1       0.290  -0.205  -2.458  0.00  0.00    +0.217 C 
ATOM     24  O   UNL     1      -0.677   0.466  -2.750  0.00  0.00    -0.276 OA
BRANCH  19  26
ATOM     25  C   UNL     1      -0.019   1.526   0.010  0.00  0.00    +0.028 C 
ATOM     26  C   UNL     1       0.002  -0.004   0.002  0.00  0.00    +0.070 C 
ATOM     27  C   UNL     1      -1.433  -0.534   0.013  0.00  0.00    +0.028 C 
ENDBRANCH  19  26
ENDBRANCH  15  21
ENDBRANCH   1  17
TORSDOF 4
