REMARK  Name = ZINC39486960
REMARK  9 active torsions:
REMARK  status: ('A' for Active; 'I' for Inactive)
REMARK    1  A    between atoms: C_1  and  C_2
REMARK    2  A    between atoms: C_2  and  C_32
REMARK    3  A    between atoms: N_4  and  S_22
REMARK    4  A    between atoms: N_7  and  C_8
REMARK    5  A    between atoms: C_8  and  C_9
REMARK    6  A    between atoms: C_9  and  C_16
REMARK    7  A    between atoms: N_12  and  O_15
REMARK    8  A    between atoms: S_22  and  O_25
REMARK    9  A    between atoms: O_25  and  C_26
REMARK                            x       y       z     vdW  Elec       q    Type
REMARK                         _______ _______ _______ _____ _____    ______ ____
ROOT
ATOM      1  C   UNL     1       0.906   1.139  -0.018  0.00  0.00    +0.033 C 
ATOM      2  C   UNL     1       0.566  -0.352   0.030  0.00  0.00    +0.051 C 
ATOM      3  C   UNL     1       1.528  -1.155  -0.867  0.00  0.00    +0.164 C 
ATOM      4  N   UNL     1       2.207  -2.063   0.070  0.00  0.00    -0.125 N 
ATOM      5  C   UNL     1       1.741  -1.849   1.307  0.00  0.00    +0.327 C 
ATOM      6  O   UNL     1       2.131  -2.466   2.279  0.00  0.00    -0.251 OA
ATOM      7  N   UNL     1       0.805  -0.893   1.376  0.00  0.00    -0.277 N 
ATOM      8  C   UNL     1      -0.886  -0.584  -0.392  0.00  0.00    +0.033 C 
ENDROOT
BRANCH   4   9
ATOM      9  S   UNL     1       3.364  -3.175  -0.340  0.00  0.00    +0.213 S 
ATOM     10  O   UNL     1       3.342  -4.175   0.669  0.00  0.00    -0.115 OA
ATOM     11  O   UNL     1       3.169  -3.476  -1.715  0.00  0.00    -0.115 OA
BRANCH   9  12
ATOM     12  O   UNL     1       4.714  -2.479  -0.234  0.00  0.00    -0.331 OA
BRANCH  12  13
ATOM     13  C   UNL     1       5.141  -2.292   1.042  0.00  0.00    +0.158 A 
ATOM     14  C   UNL     1       4.802  -1.132   1.724  0.00  0.00    +0.048 A 
ATOM     15  C   UNL     1       5.237  -0.944   3.022  0.00  0.00    +0.004 A 
ATOM     16  C   UNL     1       6.009  -1.910   3.641  0.00  0.00    +0.000 A 
ATOM     17  C   UNL     1       6.348  -3.066   2.962  0.00  0.00    +0.004 A 
ATOM     18  C   UNL     1       5.911  -3.262   1.667  0.00  0.00    +0.048 A 
ENDBRANCH  12  13
ENDBRANCH   9  12
ENDBRANCH   4   9
BRANCH   7  19
ATOM     19  C   UNL     1       0.127  -0.455   2.599  0.00  0.00    +0.117 C 
BRANCH  19  20
ATOM     20  C   UNL     1      -0.860  -1.534   3.049  0.00  0.00    -0.008 C 
ATOM     21  C   UNL     1      -1.478  -1.135   4.392  0.00  0.00    +0.026 C 
ATOM     22  C   UNL     1      -0.375  -1.044   5.449  0.00  0.00    +0.115 C 
ATOM     23  N   UNL     1       0.299  -2.344   5.567  0.00  0.00    -0.191 NA
ATOM     24  C   UNL     1       0.940  -2.726   4.302  0.00  0.00    +0.115 C 
ATOM     25  C   UNL     1      -0.123  -2.867   3.211  0.00  0.00    +0.026 C 
BRANCH  20  26
ATOM     26  C   UNL     1      -1.965  -1.685   2.001  0.00  0.00    -0.003 C 
ATOM     27  C   UNL     1      -2.848  -0.436   2.008  0.00  0.00    +0.004 C 
ATOM     28  C   UNL     1      -3.953  -0.587   0.960  0.00  0.00    +0.000 C 
ATOM     29  C   UNL     1      -4.804  -1.815   1.288  0.00  0.00    +0.000 C 
ATOM     30  C   UNL     1      -3.920  -3.064   1.282  0.00  0.00    +0.000 C 
ATOM     31  C   UNL     1      -2.816  -2.913   2.330  0.00  0.00    +0.004 C 
ENDBRANCH  20  26
BRANCH  23  32
ATOM     32  O   UNL     1       1.266  -2.334   6.664  0.00  0.00    -0.312 OA
ATOM     33  H   UNL     1       1.737  -3.171   6.781  0.00  0.00    +0.237 HD
ENDBRANCH  23  32
ENDBRANCH  19  20
ENDBRANCH   7  19
TORSDOF 7
