REMARK  Name = ZINC12780965
REMARK  6 active torsions:
REMARK  status: ('A' for Active; 'I' for Inactive)
REMARK    1  A    between atoms: C_1  and  C_2
REMARK    2  A    between atoms: C_6  and  C_23
REMARK    3  A    between atoms: C_16  and  C_17
REMARK    4  A    between atoms: N_25  and  C_26
REMARK    5  A    between atoms: N_25  and  C_27
REMARK    6  A    between atoms: C_27  and  C_28
REMARK                            x       y       z     vdW  Elec       q    Type
REMARK                         _______ _______ _______ _____ _____    ______ ____
ROOT
ATOM      1  C   UNL     1       7.191   2.479   0.648  0.00  0.00    +0.008 C 
ATOM      2  C   UNL     1       5.727   2.922   0.664  0.00  0.00    -0.005 C 
ATOM      3  C   UNL     1       5.623   4.359   0.162  0.00  0.00    +0.041 C 
ATOM      4  C   UNL     1       4.188   4.789   0.032  0.00  0.00    -0.009 A 
ATOM      5  C   UNL     1       3.891   6.145   0.048  0.00  0.00    +0.051 A 
ATOM      6  C   UNL     1       2.488   6.535  -0.094  0.00  0.00    +0.013 A 
ATOM      7  C   UNL     1       2.098   7.878  -0.091  0.00  0.00    +0.011 A 
ATOM      8  C   UNL     1       0.779   8.197  -0.229  0.00  0.00    +0.001 A 
ATOM      9  C   UNL     1      -0.185   7.201  -0.372  0.00  0.00    +0.002 A 
ATOM     10  C   UNL     1       0.160   5.885  -0.379  0.00  0.00    +0.028 A 
ATOM     11  C   UNL     1       1.512   5.517  -0.239  0.00  0.00    +0.072 A 
ATOM     12  N   UNL     1       1.881   4.237  -0.240  0.00  0.00    -0.247 NA
ATOM     13  C   UNL     1       3.143   3.858  -0.112  0.00  0.00    +0.072 A 
ATOM     14  C   UNL     1       3.453   2.413  -0.119  0.00  0.00    -0.018 C 
ATOM     15  C   UNL     1       2.475   1.489  -0.013  0.00  0.00    +0.052 C 
ATOM     16  C   UNL     1       4.905   2.005  -0.244  0.00  0.00    +0.041 C 
ENDROOT
BRANCH  15  17
ATOM     17  C   UNL     1       1.114   1.901   0.330  0.00  0.00    +0.128 A 
ATOM     18  C   UNL     1      -0.039   1.325  -0.126  0.00  0.00    +0.049 A 
ATOM     19  C   UNL     1      -1.103   2.039   0.452  0.00  0.00    +0.042 A 
ATOM     20  C   UNL     1      -0.561   2.999   1.230  0.00  0.00    +0.195 A 
ATOM     21  O   UNL     1       0.776   2.916   1.152  0.00  0.00    -0.464 OA
ENDBRANCH  15  17
BRANCH   5  22
ATOM     22  C   UNL     1       4.956   7.160   0.204  0.00  0.00    +0.248 C 
ATOM     23  O   UNL     1       5.277   7.538   1.314  0.00  0.00    -0.270 OA
ATOM     24  N   UNL     1       5.570   7.665  -0.884  0.00  0.00    -0.293 N 
ATOM     25  C   UNL     1       5.183   7.208  -2.221  0.00  0.00    +0.133 C 
BRANCH  24  26
ATOM     26  C   UNL     1       6.624   8.670  -0.729  0.00  0.00    +0.181 C 
BRANCH  26  27
ATOM     27  C   UNL     1       7.960   7.982  -0.606  0.00  0.00    +0.128 A 
ATOM     28  N   UNL     1       9.069   8.752  -0.454  0.00  0.00    -0.309 N 
ATOM     29  H   UNL     1       8.984   9.718  -0.428  0.00  0.00    +0.170 HD
ATOM     30  C   UNL     1      10.292   8.183  -0.337  0.00  0.00    +0.259 A 
ATOM     31  O   UNL     1      11.294   8.860  -0.201  0.00  0.00    -0.267 OA
ATOM     32  C   UNL     1      10.362   6.715  -0.383  0.00  0.00    +0.065 A 
ATOM     33  C   UNL     1      11.571   6.031  -0.272  0.00  0.00    +0.015 A 
ATOM     34  C   UNL     1      11.579   4.654  -0.321  0.00  0.00    +0.001 A 
ATOM     35  C   UNL     1      10.395   3.946  -0.479  0.00  0.00    +0.002 A 
ATOM     36  C   UNL     1       9.190   4.603  -0.591  0.00  0.00    +0.028 A 
ATOM     37  C   UNL     1       9.156   5.998  -0.544  0.00  0.00    +0.078 A 
ATOM     38  N   UNL     1       7.990   6.685  -0.645  0.00  0.00    -0.232 NA
ENDBRANCH  26  27
ENDBRANCH  24  26
ENDBRANCH   5  22
TORSDOF 4
