REMARK  Name = ZINC52358554
REMARK  6 active torsions:
REMARK  status: ('A' for Active; 'I' for Inactive)
REMARK    1  A    between atoms: C_1  and  C_2
REMARK    2  A    between atoms: C_4  and  N_9
REMARK    3  A    between atoms: N_9  and  C_10
REMARK    4  A    between atoms: C_10  and  C_11
REMARK    5  A    between atoms: C_14  and  S_17
REMARK    6  A    between atoms: S_17  and  N_20
REMARK                            x       y       z     vdW  Elec       q    Type
REMARK                         _______ _______ _______ _____ _____    ______ ____
ROOT
ATOM      1  C   UNL     1       0.013  -2.139  -3.624  0.00  0.00    +0.138 C 
ENDROOT
BRANCH   1   2
ATOM      2  C   UNL     1       0.022  -3.159  -4.734  0.00  0.00    -0.030 A 
ATOM      3  C   UNL     1       1.223  -3.614  -5.246  0.00  0.00    +0.007 A 
ATOM      4  C   UNL     1       1.230  -4.549  -6.264  0.00  0.00    +0.029 A 
ATOM      5  C   UNL     1       0.037  -5.029  -6.770  0.00  0.00    +0.105 A 
ATOM      6  C   UNL     1      -1.164  -4.575  -6.258  0.00  0.00    +0.029 A 
ATOM      7  C   UNL     1      -1.171  -3.643  -5.237  0.00  0.00    +0.007 A 
BRANCH   5   8
ATOM      8  S   UNL     1       0.047  -6.220  -8.069  0.00  0.00    +0.061 S 
ATOM      9  O   UNL     1      -1.201  -6.102  -8.737  0.00  0.00    -0.153 OA
ATOM     10  O   UNL     1       1.289  -6.075  -8.743  0.00  0.00    -0.153 OA
BRANCH   8  11
ATOM     11  N   UNL     1       0.065  -7.717  -7.360  0.00  0.00    -0.177 NA
ATOM     12  C   UNL     1       1.269  -8.475  -6.991  0.00  0.00    +0.109 C 
ATOM     13  C   UNL     1       0.799  -9.816  -6.389  0.00  0.00    +0.018 C 
ATOM     14  C   UNL     1      -0.630  -9.977  -6.972  0.00  0.00    +0.018 C 
ATOM     15  C   UNL     1      -1.123  -8.506  -6.990  0.00  0.00    +0.109 C 
ENDBRANCH   8  11
ENDBRANCH   5   8
ENDBRANCH   1   2
BRANCH   1  16
ATOM     16  N   UNL     1       0.030  -2.826  -2.330  0.00  0.00    -0.325 N 
ATOM     17  H   UNL     1       0.043  -3.795  -2.296  0.00  0.00    +0.148 HD
BRANCH  16  21
ATOM     18  C   UNL     1      -0.018   1.503   0.010  0.00  0.00    +0.063 C 
ATOM     19  C   UNL     1       0.002  -0.004   0.002  0.00  0.00    +0.019 A 
ATOM     20  C   UNL     1       0.006  -0.696  -1.194  0.00  0.00    +0.064 A 
ATOM     21  C   UNL     1       0.026  -2.091  -1.156  0.00  0.00    +0.124 A 
ATOM     22  N   UNL     1       0.040  -2.705   0.023  0.00  0.00    -0.201 NA
ATOM     23  C   UNL     1       0.035  -2.005   1.148  0.00  0.00    +0.192 A 
ATOM     24  N   UNL     1       0.022  -0.680   1.141  0.00  0.00    -0.332 N 
ATOM     25  N   UNL     1       0.051  -2.674   2.359  0.00  0.00    -0.329 N 
ATOM     26  H   UNL     1       0.064  -3.643   2.377  0.00  0.00    +0.145 HD
ATOM     27  H   UNL     1       0.048  -2.173   3.190  0.00  0.00    +0.145 HD
ATOM     28  H   UNL     1       0.023  -0.198   1.983  0.00  0.00    +0.168 HD
ENDBRANCH  16  21
ENDBRANCH   1  16
TORSDOF 5
