REMARK  Name = ZINC35313557
REMARK  10 active torsions:
REMARK  status: ('A' for Active; 'I' for Inactive)
REMARK    1  A    between atoms: C_1  and  C_2
REMARK    2  A    between atoms: C_4  and  C_33
REMARK    3  A    between atoms: C_9  and  C_14
REMARK    4  A    between atoms: C_18  and  O_31
REMARK    5  A    between atoms: C_19  and  O_29
REMARK    6  A    between atoms: N_24  and  C_25
REMARK    7  A    between atoms: C_25  and  N_27
REMARK    8  A    between atoms: N_27  and  C_28
REMARK    9  A    between atoms: O_29  and  C_30
REMARK   10  A    between atoms: O_31  and  C_32
REMARK                            x       y       z     vdW  Elec       q    Type
REMARK                         _______ _______ _______ _____ _____    ______ ____
ROOT
ATOM      1  C   UNL     1       0.098  -5.010   3.608  0.00  0.00    +0.141 C 
ATOM      2  C   UNL     1      -1.235  -5.696   3.776  0.00  0.00    -0.016 A 
ATOM      3  C   UNL     1      -2.332  -4.906   4.097  0.00  0.00    +0.055 A 
ATOM      4  C   UNL     1      -3.583  -5.472   4.254  0.00  0.00    +0.162 A 
ATOM      5  C   UNL     1      -3.742  -6.845   4.087  0.00  0.00    +0.162 A 
ATOM      6  C   UNL     1      -2.647  -7.627   3.771  0.00  0.00    +0.053 A 
ATOM      7  C   UNL     1      -1.389  -7.055   3.620  0.00  0.00    -0.037 A 
ATOM      8  C   UNL     1      -0.239  -7.976   3.303  0.00  0.00    +0.054 C 
ATOM      9  C   UNL     1       0.931  -7.198   2.704  0.00  0.00    +0.112 C 
ATOM     10  N   UNL     1       1.165  -6.014   3.545  0.00  0.00    -0.301 N 
ENDROOT
BRANCH   1  19
ATOM     11  C   UNL     1      -3.208  -2.613  -2.632  0.00  0.00    +0.044 C 
ATOM     12  C   UNL     1      -2.024  -2.644  -1.702  0.00  0.00    -0.050 A 
ATOM     13  C   UNL     1      -0.886  -1.911  -2.011  0.00  0.00    +0.008 A 
ATOM     14  C   UNL     1       0.209  -1.925  -1.174  0.00  0.00    -0.026 A 
ATOM     15  C   UNL     1       0.176  -2.680  -0.006  0.00  0.00    +0.052 A 
ATOM     16  C   UNL     1      -0.980  -3.422   0.304  0.00  0.00    -0.001 A 
ATOM     17  C   UNL     1      -2.081  -3.389  -0.558  0.00  0.00    +0.013 A 
ATOM     18  C   UNL     1      -1.005  -4.215   1.535  0.00  0.00    +0.021 A 
ATOM     19  C   UNL     1       0.091  -4.205   2.334  0.00  0.00    +0.042 A 
ATOM     20  C   UNL     1       1.224  -3.443   1.977  0.00  0.00    +0.254 A 
ATOM     21  O   UNL     1       2.198  -3.448   2.710  0.00  0.00    -0.268 OA
ATOM     22  N   UNL     1       1.256  -2.712   0.849  0.00  0.00    -0.322 N 
ATOM     23  H   UNL     1       2.052  -2.201   0.633  0.00  0.00    +0.169 HD
ATOM     24  C   UNL     1       1.437  -1.124  -1.522  0.00  0.00    +0.046 C 
ENDBRANCH   1  19
BRANCH  10  25
ATOM     25  C   UNL     1       2.315  -5.858   4.230  0.00  0.00    +0.133 C 
ATOM     26  S   UNL     1       3.594  -6.977   4.022  0.00  0.00    -0.019 S 
BRANCH  25  27
ATOM     27  N   UNL     1       2.458  -4.821   5.080  0.00  0.00    -0.329 N 
ATOM     28  C   UNL     1       3.746  -4.587   5.738  0.00  0.00    +0.127 C 
ATOM     29  H   UNL     1       1.709  -4.231   5.255  0.00  0.00    +0.147 HD
ENDBRANCH  25  27
ENDBRANCH  10  25
BRANCH   5  30
ATOM     30  O   UNL     1      -4.968  -7.415   4.234  0.00  0.00    -0.491 OA
ATOM     31  C   UNL     1      -5.053  -8.829   4.047  0.00  0.00    +0.277 C 
ENDBRANCH   5  30
BRANCH   4  32
ATOM     32  O   UNL     1      -4.652  -4.694   4.571  0.00  0.00    -0.491 OA
ATOM     33  C   UNL     1      -4.411  -3.294   4.727  0.00  0.00    +0.277 C 
ENDBRANCH   4  32
TORSDOF 5
