REMARK  Name = ZINC25183709
REMARK  15 active torsions:
REMARK  status: ('A' for Active; 'I' for Inactive)
REMARK    1  A    between atoms: C_1  and  C_2
REMARK    2  A    between atoms: C_5  and  S_8
REMARK    3  A    between atoms: S_8  and  N_11
REMARK    4  A    between atoms: N_11  and  C_12
REMARK    5  A    between atoms: N_11  and  C_13
REMARK    6  A    between atoms: C_16  and  O_19
REMARK    7  A    between atoms: O_19  and  C_20
REMARK    8  A    between atoms: C_20  and  C_21
REMARK    9  A    between atoms: N_23  and  C_24
REMARK   10  A    between atoms: C_24  and  C_25
REMARK   11  A    between atoms: C_25  and  C_27
REMARK   12  A    between atoms: C_25  and  N_34
REMARK   13  A    between atoms: C_27  and  C_28
REMARK   14  A    between atoms: N_34  and  C_35
REMARK   15  A    between atoms: N_34  and  C_36
REMARK                            x       y       z     vdW  Elec       q    Type
REMARK                         _______ _______ _______ _____ _____    ______ ____
ROOT
ATOM      1  O   UNL     1       2.446   1.760   4.237  0.00  0.00    -0.483 OA
ENDROOT
BRANCH   1   5
ATOM      2  C   UNL     1      -0.297  -0.685   6.120  0.00  0.00    +0.051 A 
ATOM      3  C   UNL     1      -0.668   0.588   5.709  0.00  0.00    +0.028 A 
ATOM      4  C   UNL     1       0.250   1.405   5.079  0.00  0.00    +0.047 A 
ATOM      5  C   UNL     1       1.543   0.954   4.858  0.00  0.00    +0.121 A 
ATOM      6  C   UNL     1       1.913  -0.319   5.263  0.00  0.00    +0.047 A 
ATOM      7  C   UNL     1       0.998  -1.136   5.898  0.00  0.00    +0.028 A 
BRANCH   2   8
ATOM      8  N   UNL     1      -1.227  -1.514   6.758  0.00  0.00    -0.206 N 
ATOM      9  C   UNL     1      -2.336  -0.926   7.513  0.00  0.00    +0.157 C 
BRANCH   8  10
ATOM     10  S   UNL     1      -1.073  -3.160   6.660  0.00  0.00    +0.074 S 
ATOM     11  O   UNL     1      -2.383  -3.698   6.779  0.00  0.00    -0.150 OA
ATOM     12  O   UNL     1      -0.240  -3.424   5.539  0.00  0.00    -0.150 OA
BRANCH  10  17
ATOM     13  C   UNL     1       1.983  -4.962  11.540  0.00  0.00    +0.044 C 
ATOM     14  C   UNL     1       1.220  -4.512  10.321  0.00  0.00    -0.050 A 
ATOM     15  C   UNL     1      -0.152  -4.351  10.385  0.00  0.00    +0.005 A 
ATOM     16  C   UNL     1      -0.852  -3.939   9.267  0.00  0.00    +0.029 A 
ATOM     17  C   UNL     1      -0.181  -3.686   8.085  0.00  0.00    +0.109 A 
ATOM     18  C   UNL     1       1.190  -3.852   8.020  0.00  0.00    +0.029 A 
ATOM     19  C   UNL     1       1.891  -4.260   9.139  0.00  0.00    +0.005 A 
ENDBRANCH  10  17
ENDBRANCH   8  10
ENDBRANCH   2   8
ENDBRANCH   1   5
BRANCH   1  20
ATOM     20  C   UNL     1       3.759   1.231   4.042  0.00  0.00    +0.324 C 
BRANCH  20  21
ATOM     21  C   UNL     1       4.615   2.257   3.345  0.00  0.00    +0.251 C 
ATOM     22  O   UNL     1       4.146   3.335   3.045  0.00  0.00    -0.272 OA
ATOM     23  N   UNL     1       5.901   1.978   3.054  0.00  0.00    -0.314 N 
ATOM     24  H   UNL     1       6.327   1.002   3.330  0.00  0.00    +0.149 HD
BRANCH  23  25
ATOM     25  C   UNL     1       6.731   2.973   2.371  0.00  0.00    +0.089 C 
BRANCH  25  26
ATOM     26  C   UNL     1       8.087   2.354   2.024  0.00  0.00    -0.048 C 
BRANCH  26  27
ATOM     27  N   UNL     1       7.907   1.330   0.987  0.00  0.00    +0.379 N 
ATOM     28  C   UNL     1       7.272   0.127   1.540  0.00  0.00    -0.096 C 
ATOM     29  C   UNL     1       7.135   1.859  -0.146  0.00  0.00    -0.096 C 
ATOM     30  H   UNL     1       8.902   1.047   0.615  0.00  0.00    -0.082 HD
ENDBRANCH  26  27
BRANCH  26  31
ATOM     31  C   UNL     1       9.027   3.445   1.507  0.00  0.00    +0.021 C 
BRANCH  31  32
ATOM     32  C   UNL     1      10.370   2.840   1.185  0.00  0.00    -0.049 A 
ATOM     33  C   UNL     1      11.312   2.679   2.184  0.00  0.00    +0.003 A 
ATOM     34  C   UNL     1      12.541   2.119   1.890  0.00  0.00    +0.000 A 
ATOM     35  C   UNL     1      12.832   1.730   0.596  0.00  0.00    +0.000 A 
ATOM     36  C   UNL     1      11.892   1.896  -0.404  0.00  0.00    +0.000 A 
ATOM     37  C   UNL     1      10.660   2.451  -0.109  0.00  0.00    +0.003 A 
ENDBRANCH  31  32
ENDBRANCH  26  31
ENDBRANCH  25  26
ENDBRANCH  23  25
ENDBRANCH  20  21
ENDBRANCH   1  20
TORSDOF 11
