REMARK  Name = ZINC03223856
REMARK  3 active torsions:
REMARK  status: ('A' for Active; 'I' for Inactive)
REMARK    1  A    between atoms: C_4  and  N_7
REMARK    2  A    between atoms: N_17  and  N_18
REMARK    3  A    between atoms: C_19  and  C_21
REMARK                            x       y       z     vdW  Elec       q    Type
REMARK                         _______ _______ _______ _____ _____    ______ ____
ROOT
ATOM      1  N   UNL     1       1.141   3.498   0.004  0.00  0.00    -0.218 N 
ATOM      2  C   UNL     1       1.279   2.121  -0.244  0.00  0.00    +0.079 A 
ATOM      3  C   UNL     1       2.506   1.551  -0.512  0.00  0.00    +0.028 A 
ATOM      4  C   UNL     1       2.592   0.190  -0.755  0.00  0.00    +0.017 A 
ATOM      5  C   UNL     1       1.453  -0.597  -0.731  0.00  0.00    +0.020 A 
ATOM      6  C   UNL     1       0.218  -0.036  -0.462  0.00  0.00    +0.045 A 
ATOM      7  C   UNL     1       0.119   1.330  -0.215  0.00  0.00    +0.091 A 
ATOM      8  N   UNL     1      -1.089   1.912   0.062  0.00  0.00    -0.215 NA
ATOM      9  C   UNL     1      -1.227   3.218   0.062  0.00  0.00    +0.214 C 
ATOM     10  N   UNL     1      -0.150   4.030  -0.224  0.00  0.00    -0.230 N 
ATOM     11  N   UNL     1      -2.448   3.776   0.350  0.00  0.00    -0.235 N 
ATOM     12 BR   UNL     1       1.588  -2.453  -1.066  0.00  0.00    -0.050 Br
ATOM     13  H   UNL     1      -0.273   4.929  -0.567  0.00  0.00    +0.173 HD
ATOM     14  H   UNL     1      -2.552   4.740   0.352  0.00  0.00    +0.173 HD
ENDROOT
BRANCH   1  18
ATOM     15  C   UNL     1       4.317   5.849   1.315  0.00  0.00    +0.000 A 
ATOM     16  C   UNL     1       4.054   4.638   1.931  0.00  0.00    +0.002 A 
ATOM     17  C   UNL     1       3.002   3.856   1.498  0.00  0.00    +0.025 A 
ATOM     18  C   UNL     1       2.206   4.287   0.444  0.00  0.00    +0.053 A 
ATOM     19  C   UNL     1       2.476   5.501  -0.175  0.00  0.00    +0.025 A 
ATOM     20  C   UNL     1       3.527   6.280   0.266  0.00  0.00    +0.002 A 
ENDBRANCH   1  18
BRANCH  11  21
ATOM     21  N   UNL     1      -3.544   2.953   0.641  0.00  0.00    -0.230 N 
ATOM     22  C   UNL     1      -4.742   3.501   0.924  0.00  0.00    +0.260 C 
ATOM     23  O   UNL     1      -4.873   4.710   0.926  0.00  0.00    -0.269 OA
ATOM     24  H   UNL     1      -3.440   1.988   0.640  0.00  0.00    +0.173 HD
BRANCH  22  25
ATOM     25  C   UNL     1      -5.898   2.633   1.231  0.00  0.00    +0.038 A 
ATOM     26  C   UNL     1      -5.752   1.244   1.224  0.00  0.00    +0.016 A 
ATOM     27  C   UNL     1      -6.832   0.439   1.517  0.00  0.00    +0.039 A 
ATOM     28  C   UNL     1      -8.064   1.006   1.807  0.00  0.00    +0.123 A 
ATOM     29  C   UNL     1      -8.215   2.384   1.810  0.00  0.00    +0.039 A 
ATOM     30  C   UNL     1      -7.141   3.198   1.524  0.00  0.00    +0.016 A 
ATOM     31  F   UNL     1      -9.120   0.212   2.089  0.00  0.00    -0.205 F 
ENDBRANCH  22  25
ENDBRANCH  11  21
TORSDOF 3
