REMARK  Name = ZINC00947672
REMARK  2 active torsions:
REMARK  status: ('A' for Active; 'I' for Inactive)
REMARK    1  A    between atoms: N_20  and  C_21
REMARK    2  A    between atoms: C_21  and  C_22
REMARK                            x       y       z     vdW  Elec       q    Type
REMARK                         _______ _______ _______ _____ _____    ______ ____
ROOT
ATOM      1  C   UNL     1      -0.017   1.374   0.010  0.00  0.00    +0.001 A 
ATOM      2  C   UNL     1       1.167   2.100   0.002  0.00  0.00    +0.001 A 
ATOM      3  C   UNL     1       2.385   1.456  -0.013  0.00  0.00    +0.012 A 
ATOM      4  C   UNL     1       2.426   0.063  -0.021  0.00  0.00    +0.030 A 
ATOM      5  C   UNL     1       1.224  -0.675  -0.013  0.00  0.00    +0.027 A 
ATOM      6  C   UNL     1       0.002  -0.004   0.002  0.00  0.00    +0.012 A 
ATOM      7  C   UNL     1       1.298  -2.142  -0.021  0.00  0.00    +0.148 A 
ATOM      8  N   UNL     1       2.458  -2.738  -0.035  0.00  0.00    -0.146 NA
ATOM      9  N   UNL     1       3.670  -2.040  -0.043  0.00  0.00    -0.176 N 
ATOM     10  C   UNL     1       3.703  -0.672  -0.037  0.00  0.00    +0.166 A 
ATOM     11  N   UNL     1       4.831   0.010  -0.044  0.00  0.00    -0.227 NA
ATOM     12  C   UNL     1       6.030  -0.593  -0.059  0.00  0.00    +0.079 A 
ATOM     13  C   UNL     1       7.223   0.139  -0.066  0.00  0.00    +0.028 A 
ATOM     14  C   UNL     1       8.419  -0.519  -0.080  0.00  0.00    +0.002 A 
ATOM     15  C   UNL     1       8.472  -1.908  -0.089  0.00  0.00    +0.001 A 
ATOM     16  C   UNL     1       7.325  -2.652  -0.082  0.00  0.00    +0.015 A 
ATOM     17  C   UNL     1       6.088  -2.007  -0.067  0.00  0.00    +0.067 A 
ATOM     18  C   UNL     1       4.825  -2.749  -0.058  0.00  0.00    +0.282 A 
ATOM     19  O   UNL     1       4.814  -3.967  -0.063  0.00  0.00    -0.265 OA
ATOM     20  N   UNL     1       0.133  -2.895  -0.014  0.00  0.00    -0.322 N 
ATOM     21  H   UNL     1      -0.730  -2.452  -0.003  0.00  0.00    +0.148 HD
ENDROOT
BRANCH  20  22
ATOM     22  C   UNL     1       0.206  -4.358  -0.022  0.00  0.00    +0.158 C 
BRANCH  22  23
ATOM     23  C   UNL     1      -1.188  -4.931  -0.011  0.00  0.00    +0.058 A 
ATOM     24  C   UNL     1      -1.790  -5.286  -1.204  0.00  0.00    +0.025 A 
ATOM     25  C   UNL     1      -3.072  -5.812  -1.183  0.00  0.00    +0.003 A 
ATOM     26  C   UNL     1      -3.705  -5.961   0.042  0.00  0.00    +0.020 A 
ATOM     27  C   UNL     1      -3.040  -5.583   1.193  0.00  0.00    +0.111 A 
ATOM     28  N   UNL     1      -1.818  -5.091   1.136  0.00  0.00    -0.258 NA
ENDBRANCH  22  23
ENDBRANCH  20  22
TORSDOF 2
