REMARK  Name = ZINC35938671
REMARK  7 active torsions:
REMARK  status: ('A' for Active; 'I' for Inactive)
REMARK    1  A    between atoms: C_1  and  C_2
REMARK    2  A    between atoms: C_5  and  C_8
REMARK    3  A    between atoms: N_17  and  C_18
REMARK    4  A    between atoms: C_18  and  C_19
REMARK    5  A    between atoms: C_19  and  C_20
REMARK    6  A    between atoms: C_26  and  C_29
REMARK    7  A    between atoms: C_30  and  C_32
REMARK                            x       y       z     vdW  Elec       q    Type
REMARK                         _______ _______ _______ _____ _____    ______ ____
ROOT
ATOM      1  C   UNL     1       3.232  -4.663   1.907  0.00  0.00    +0.077 C 
ENDROOT
BRANCH   1   2
ATOM      2  C   UNL     1       4.643  -4.231   1.601  0.00  0.00    +0.214 C 
ATOM      3  O   UNL     1       4.888  -3.650   0.565  0.00  0.00    -0.276 OA
ATOM      4  N   UNL     1       5.633  -4.492   2.478  0.00  0.00    -0.298 N 
ATOM      5  C   UNL     1       5.351  -5.202   3.734  0.00  0.00    +0.127 C 
ATOM      6  C   UNL     1       5.852  -4.345   4.903  0.00  0.00    +0.127 C 
ATOM      7  N   UNL     1       7.232  -3.925   4.621  0.00  0.00    -0.292 N 
ATOM      8  C   UNL     1       7.513  -3.216   3.365  0.00  0.00    +0.091 C 
ATOM      9  C   UNL     1       7.013  -4.077   2.193  0.00  0.00    +0.130 C 
ATOM     10  C   UNL     1       6.791  -1.867   3.365  0.00  0.00    +0.029 C 
ATOM     11  C   UNL     1       8.221  -4.186   5.498  0.00  0.00    +0.248 C 
ATOM     12  O   UNL     1       9.373  -3.927   5.209  0.00  0.00    -0.270 OA
BRANCH  11  13
ATOM     13  C   UNL     1       7.906  -4.786   6.811  0.00  0.00    +0.055 A 
ATOM     14  C   UNL     1       6.965  -4.184   7.649  0.00  0.00    +0.014 A 
ATOM     15  C   UNL     1       6.675  -4.749   8.873  0.00  0.00    +0.001 A 
ATOM     16  C   UNL     1       7.314  -5.910   9.273  0.00  0.00    +0.001 A 
ATOM     17  C   UNL     1       8.247  -6.512   8.449  0.00  0.00    +0.021 A 
ATOM     18  C   UNL     1       8.543  -5.960   7.217  0.00  0.00    +0.053 A 
ATOM     19 CL   UNL     1       9.709  -6.721   6.181  0.00  0.00    -0.083 Cl
ENDBRANCH  11  13
ENDBRANCH   1   2
BRANCH   1  20
ATOM     20  C   UNL     1       2.311  -4.249   0.757  0.00  0.00    -0.068 C 
BRANCH  20  29
ATOM     21  C   UNL     1       0.039  -4.166   0.008  0.00  0.00    -0.006 C 
ATOM     22  C   UNL     1      -1.369  -4.693   0.269  0.00  0.00    -0.047 A 
ATOM     23  C   UNL     1      -2.524  -4.129  -0.267  0.00  0.00    +0.010 A 
ATOM     24  C   UNL     1      -3.734  -4.663   0.021  0.00  0.00    +0.045 A 
ATOM     25  S   UNL     1      -3.292  -6.024   1.091  0.00  0.00    -0.101 S 
ATOM     26  C   UNL     1      -1.539  -5.781   1.072  0.00  0.00    -0.010 A 
ATOM     27  C   UNL     1      -0.460  -6.557   1.754  0.00  0.00    +0.024 C 
ATOM     28  C   UNL     1       0.881  -6.137   1.128  0.00  0.00    -0.072 C 
ATOM     29  N   UNL     1       0.936  -4.670   1.055  0.00  0.00    +0.388 N 
ATOM     30  H   UNL     1       0.657  -4.284   1.945  0.00  0.00    -0.080 HD
BRANCH  21  35
ATOM     31  C   UNL     1      -0.009   1.612   0.112  0.00  0.00    +0.044 C 
ATOM     32  C   UNL     1       0.003   0.105   0.085  0.00  0.00    -0.050 A 
ATOM     33  C   UNL     1      -0.001  -0.565  -1.125  0.00  0.00    +0.003 A 
ATOM     34  C   UNL     1       0.011  -1.947  -1.149  0.00  0.00    +0.002 A 
ATOM     35  C   UNL     1       0.027  -2.659   0.035  0.00  0.00    -0.057 A 
ATOM     36  C   UNL     1       0.032  -1.989   1.245  0.00  0.00    +0.002 A 
ATOM     37  C   UNL     1       0.025  -0.607   1.269  0.00  0.00    +0.003 A 
ENDBRANCH  21  35
ENDBRANCH  20  29
ENDBRANCH   1  20
TORSDOF 5
