REMARK  Name = ZINC60221831
REMARK  9 active torsions:
REMARK  status: ('A' for Active; 'I' for Inactive)
REMARK    1  A    between atoms: C_1  and  C_2
REMARK    2  A    between atoms: C_3  and  C_28
REMARK    3  A    between atoms: C_7  and  N_8
REMARK    4  A    between atoms: C_9  and  C_11
REMARK    5  A    between atoms: C_11  and  N_12
REMARK    6  A    between atoms: C_17  and  C_24
REMARK    7  A    between atoms: C_20  and  C_22
REMARK    8  A    between atoms: C_20  and  C_23
REMARK    9  A    between atoms: C_28  and  N_29
REMARK                            x       y       z     vdW  Elec       q    Type
REMARK                         _______ _______ _______ _____ _____    ______ ____
ROOT
ATOM      1  N   UNL     1       1.276   1.001   2.017  0.00  0.00    -0.284 N 
ATOM      2  C   UNL     1       1.646   0.569   3.239  0.00  0.00    +0.235 C 
ATOM      3  O   UNL     1       1.529  -0.603   3.529  0.00  0.00    -0.274 OA
ATOM      4  H   UNL     1       1.296   1.949   1.812  0.00  0.00    +0.155 HD
ENDROOT
BRANCH   1  11
ATOM      5  C   UNL     1      -0.397   1.933  -0.087  0.00  0.00    +0.046 C 
ATOM      6  C   UNL     1       0.048   0.495   0.001  0.00  0.00    -0.028 A 
ATOM      7  C   UNL     1      -0.353  -0.412  -0.960  0.00  0.00    -0.059 A 
ATOM      8  C   UNL     1       0.054  -1.731  -0.880  0.00  0.00    +0.002 A 
ATOM      9  C   UNL     1       0.863  -2.146   0.162  0.00  0.00    +0.002 A 
ATOM     10  C   UNL     1       1.268  -1.244   1.126  0.00  0.00    +0.023 A 
ATOM     11  C   UNL     1       0.864   0.083   1.045  0.00  0.00    +0.037 A 
BRANCH   7  12
ATOM     12  C   UNL     1      -1.235   0.035  -2.097  0.00  0.00    -0.043 C 
BRANCH  12  13
ATOM     13  N   UNL     1      -2.620   0.160  -1.623  0.00  0.00    +0.383 N 
ATOM     14  C   UNL     1      -3.113  -1.162  -1.231  0.00  0.00    -0.068 C 
ATOM     15  C   UNL     1      -4.392  -1.014  -0.398  0.00  0.00    +0.050 C 
ATOM     16  S   UNL     1      -5.660  -0.223  -1.436  0.00  0.00    -0.164 S 
ATOM     17  C   UNL     1      -4.778   1.219  -2.112  0.00  0.00    +0.050 C 
ATOM     18  C   UNL     1      -3.442   0.737  -2.689  0.00  0.00    -0.068 C 
ATOM     19  H   UNL     1      -2.641   0.771  -0.821  0.00  0.00    -0.081 HD
ENDBRANCH  12  13
ENDBRANCH   7  12
ENDBRANCH   1  11
BRANCH   2  20
ATOM     20  C   UNL     1       2.205   1.541   4.246  0.00  0.00    +0.214 C 
BRANCH  20  21
ATOM     21  N   UNL     1       2.527   0.830   5.484  0.00  0.00    -0.215 N 
ATOM     22  C   UNL     1       1.657   0.635   6.499  0.00  0.00    +0.247 C 
ATOM     23  O   UNL     1       0.465   0.851   6.475  0.00  0.00    -0.273 OA
ATOM     24  C   UNL     1       2.486   0.095   7.640  0.00  0.00    +0.113 C 
ATOM     25  C   UNL     1       1.859  -1.164   8.219  0.00  0.00    +0.038 C 
ATOM     26  C   UNL     1       0.611  -0.803   9.025  0.00  0.00    -0.011 C 
ATOM     27  C   UNL     1       1.025   0.093  10.190  0.00  0.00    +0.009 C 
ATOM     28  C   UNL     1       1.647   1.391   9.687  0.00  0.00    -0.032 C 
ATOM     29  C   UNL     1       2.766   1.153   8.688  0.00  0.00    +0.041 C 
ATOM     30  C   UNL     1       2.242   2.130  10.905  0.00  0.00    +0.011 C 
ATOM     31  C   UNL     1       0.566   2.294   9.086  0.00  0.00    +0.011 C 
ATOM     32  C   UNL     1      -0.026  -2.085   9.572  0.00  0.00    +0.007 C 
ATOM     33  N   UNL     1       3.761  -0.266   6.980  0.00  0.00    -0.285 N 
ATOM     34  C   UNL     1       3.713   0.268   5.747  0.00  0.00    +0.310 C 
ATOM     35  O   UNL     1       4.638   0.243   4.960  0.00  0.00    -0.252 OA
ATOM     36  H   UNL     1       4.478  -0.785   7.371  0.00  0.00    +0.151 HD
ENDBRANCH  20  21
ENDBRANCH   2  20
TORSDOF 5
