REMARK  Name = ZINC00159016
REMARK  2 active torsions:
REMARK  status: ('A' for Active; 'I' for Inactive)
REMARK    1  A    between atoms: C_4  and  N_7
REMARK    2  A    between atoms: N_12  and  C_19
REMARK                            x       y       z     vdW  Elec       q    Type
REMARK                         _______ _______ _______ _____ _____    ______ ____
ROOT
ATOM      1  N   UNL     1       3.621  -0.650  -0.037  0.00  0.00    -0.299 N 
ATOM      2  C   UNL     1       3.644  -2.021   0.059  0.00  0.00    +0.138 A 
ATOM      3  C   UNL     1       4.913  -2.740   0.159  0.00  0.00    +0.077 A 
ATOM      4  C   UNL     1       6.269  -2.356   0.185  0.00  0.00    +0.148 A 
ATOM      5  N   UNL     1       6.998  -3.433   0.289  0.00  0.00    -0.172 NA
ATOM      6  N   UNL     1       6.162  -4.556   0.335  0.00  0.00    -0.216 N 
ATOM      7  C   UNL     1       4.878  -4.135   0.255  0.00  0.00    +0.147 A 
ATOM      8  N   UNL     1       3.658  -4.762   0.251  0.00  0.00    -0.318 N 
ATOM      9  H   UNL     1       3.613  -5.729   0.317  0.00  0.00    +0.169 HD
ATOM     10  C   UNL     1       2.523  -4.046   0.158  0.00  0.00    +0.181 A 
ATOM     11  S   UNL     1       1.026  -4.877   0.158  0.00  0.00    -0.011 S 
ATOM     12  N   UNL     1       2.516  -2.719   0.069  0.00  0.00    -0.207 NA
ATOM     13  H   UNL     1       4.451  -0.155  -0.124  0.00  0.00    +0.154 HD
ENDROOT
BRANCH   1  17
ATOM     14  C   UNL     1      -0.015   1.382   0.043  0.00  0.00    +0.000 A 
ATOM     15  C   UNL     1       0.141   0.217   0.772  0.00  0.00    +0.002 A 
ATOM     16  C   UNL     1       1.345  -0.459   0.748  0.00  0.00    +0.023 A 
ATOM     17  C   UNL     1       2.400   0.032  -0.011  0.00  0.00    +0.032 A 
ATOM     18  C   UNL     1       2.240   1.202  -0.742  0.00  0.00    +0.023 A 
ATOM     19  C   UNL     1       1.034   1.873  -0.713  0.00  0.00    +0.002 A 
ENDBRANCH   1  17
BRANCH   6  20
ATOM     20  C   UNL     1       6.582  -5.889   0.444  0.00  0.00    +0.068 A 
ATOM     21  C   UNL     1       5.823  -6.801   1.164  0.00  0.00    +0.028 A 
ATOM     22  C   UNL     1       6.240  -8.114   1.269  0.00  0.00    +0.002 A 
ATOM     23  C   UNL     1       7.412  -8.519   0.658  0.00  0.00    +0.000 A 
ATOM     24  C   UNL     1       8.171  -7.613  -0.060  0.00  0.00    +0.002 A 
ATOM     25  C   UNL     1       7.756  -6.300  -0.173  0.00  0.00    +0.028 A 
ENDBRANCH   6  20
TORSDOF 2
