REMARK  Name = ZINC44021711
REMARK  6 active torsions:
REMARK  status: ('A' for Active; 'I' for Inactive)
REMARK    1  A    between atoms: C_1  and  C_2
REMARK    2  A    between atoms: N_7  and  C_9
REMARK    3  A    between atoms: N_13  and  C_18
REMARK    4  A    between atoms: C_18  and  C_19
REMARK    5  A    between atoms: C_19  and  C_20
REMARK    6  A    between atoms: C_19  and  C_21
REMARK                            x       y       z     vdW  Elec       q    Type
REMARK                         _______ _______ _______ _____ _____    ______ ____
ROOT
ATOM      1  C   UNL     1       0.439  -2.775   2.179  0.00  0.00    +0.108 A 
ATOM      2  C   UNL     1      -0.023  -2.221   3.340  0.00  0.00    +0.112 A 
ATOM      3  C   UNL     1      -0.457  -3.066   4.373  0.00  0.00    +0.258 A 
ATOM      4  O   UNL     1      -0.873  -2.594   5.417  0.00  0.00    -0.267 OA
ATOM      5  N   UNL     1      -0.410  -4.402   4.204  0.00  0.00    -0.261 N 
ATOM      6  C   UNL     1       0.048  -4.931   3.055  0.00  0.00    +0.331 A 
ATOM      7  O   UNL     1       0.081  -6.139   2.924  0.00  0.00    -0.246 OA
ATOM      8  N   UNL     1       0.464  -4.142   2.047  0.00  0.00    -0.296 N 
ATOM      9  H   UNL     1       0.787  -4.542   1.224  0.00  0.00    +0.172 HD
ENDROOT
BRANCH   1  15
ATOM     10  C   UNL     1       1.873  -2.625  -2.440  0.00  0.00    +0.009 C 
ATOM     11  C   UNL     1       2.055  -2.325  -0.951  0.00  0.00    +0.003 C 
ATOM     12  C   UNL     1       2.647  -0.924  -0.781  0.00  0.00    +0.006 C 
ATOM     13  C   UNL     1       2.861  -0.635   0.707  0.00  0.00    +0.019 C 
ATOM     14  C   UNL     1       1.511  -0.681   1.431  0.00  0.00    +0.106 C 
ATOM     15  N   UNL     1       0.869  -1.973   1.153  0.00  0.00    -0.316 N 
ATOM     16  C   UNL     1       0.697  -2.391  -0.246  0.00  0.00    +0.109 C 
ENDBRANCH   1  15
BRANCH   5  17
ATOM     17  C   UNL     1      -0.862  -5.286   5.282  0.00  0.00    +0.133 C 
BRANCH  17  18
ATOM     18  C   UNL     1      -2.356  -5.572   5.114  0.00  0.00    +0.003 C 
ATOM     19  C   UNL     1      -2.800  -6.593   6.164  0.00  0.00    +0.009 C 
ATOM     20  C   UNL     1      -3.147  -4.275   5.297  0.00  0.00    +0.009 C 
ENDBRANCH  17  18
ENDBRANCH   5  17
TORSDOF 3
