REMARK  Name = ZINC45731669
REMARK  5 active torsions:
REMARK  status: ('A' for Active; 'I' for Inactive)
REMARK    1  A    between atoms: N_11  and  C_12
REMARK    2  A    between atoms: C_18  and  C_20
REMARK    3  A    between atoms: C_20  and  S_21
REMARK    4  A    between atoms: S_21  and  C_22
REMARK    5  A    between atoms: C_25  and  C_27
REMARK                            x       y       z     vdW  Elec       q    Type
REMARK                         _______ _______ _______ _____ _____    ______ ____
ROOT
ATOM      1  C   UNL     1       4.875  -0.586  -0.046  0.00  0.00    +0.095 C 
ATOM      2  C   UNL     1       5.513  -1.178  -1.306  0.00  0.00    +0.044 C 
ATOM      3  C   UNL     1       7.004  -0.827  -1.332  0.00  0.00    +0.110 C 
ATOM      4  N   UNL     1       7.618  -1.278  -0.076  0.00  0.00    -0.301 N 
ATOM      5  C   UNL     1       7.027  -0.841   1.196  0.00  0.00    +0.110 C 
ATOM      6  C   UNL     1       5.536  -1.192   1.194  0.00  0.00    +0.044 C 
ATOM      7  C   UNL     1       8.702  -2.078  -0.090  0.00  0.00    +0.226 C 
ATOM      8  O   UNL     1       9.180  -2.433  -1.147  0.00  0.00    -0.275 OA
ENDROOT
BRANCH   1  19
ATOM      9  C   UNL     1      -0.017   1.377   0.010  0.00  0.00    +0.002 A 
ATOM     10  C   UNL     1       1.169   2.091   0.002  0.00  0.00    +0.002 A 
ATOM     11  C   UNL     1       2.381   1.429  -0.013  0.00  0.00    +0.028 A 
ATOM     12  C   UNL     1       2.410   0.043  -0.021  0.00  0.00    +0.070 A 
ATOM     13  C   UNL     1       1.214  -0.678  -0.013  0.00  0.00    +0.067 A 
ATOM     14  C   UNL     1       0.002  -0.004   0.002  0.00  0.00    +0.028 A 
ATOM     15  N   UNL     1       1.557  -2.028  -0.023  0.00  0.00    -0.306 N 
ATOM     16  H   UNL     1       0.934  -2.772  -0.021  0.00  0.00    +0.170 HD
ATOM     17  C   UNL     1       2.900  -2.124  -0.036  0.00  0.00    +0.328 A 
ATOM     18  O   UNL     1       3.528  -3.166  -0.047  0.00  0.00    -0.247 OA
ATOM     19  N   UNL     1       3.443  -0.892  -0.035  0.00  0.00    -0.289 N 
ENDBRANCH   1  19
BRANCH   7  20
ATOM     20  C   UNL     1       9.321  -2.533   1.206  0.00  0.00    +0.174 C 
BRANCH  20  21
ATOM     21  S   UNL     1      10.752  -3.590   0.856  0.00  0.00    -0.058 S 
BRANCH  21  22
ATOM     22  C   UNL     1      11.356  -4.033   2.451  0.00  0.00    +0.258 A 
ATOM     23  N   UNL     1      10.837  -3.655   3.596  0.00  0.00    -0.211 NA
ATOM     24  C   UNL     1      11.560  -4.186   4.595  0.00  0.00    +0.162 A 
ATOM     25  C   UNL     1      12.559  -4.915   4.038  0.00  0.00    +0.156 A 
ATOM     26  O   UNL     1      12.419  -4.817   2.694  0.00  0.00    -0.431 OA
BRANCH  25  27
ATOM     27  C   UNL     1      13.599  -5.676   4.760  0.00  0.00    +0.019 A 
ATOM     28  C   UNL     1      13.612  -5.694   6.156  0.00  0.00    +0.014 A 
ATOM     29  C   UNL     1      14.586  -6.407   6.824  0.00  0.00    +0.039 A 
ATOM     30  C   UNL     1      15.549  -7.104   6.113  0.00  0.00    +0.123 A 
ATOM     31  C   UNL     1      15.541  -7.090   4.727  0.00  0.00    +0.039 A 
ATOM     32  C   UNL     1      14.569  -6.385   4.048  0.00  0.00    +0.014 A 
ATOM     33  F   UNL     1      16.501  -7.800   6.773  0.00  0.00    -0.205 F 
ENDBRANCH  25  27
ENDBRANCH  21  22
ENDBRANCH  20  21
ENDBRANCH   7  20
TORSDOF 5
