REMARK  Name = ZINC09595346
REMARK  11 active torsions:
REMARK  status: ('A' for Active; 'I' for Inactive)
REMARK    1  A    between atoms: C_1  and  C_2
REMARK    2  A    between atoms: C_2  and  C_3
REMARK    3  A    between atoms: C_3  and  C_4
REMARK    4  A    between atoms: C_4  and  N_5
REMARK    5  A    between atoms: C_6  and  N_33
REMARK    6  A    between atoms: C_7  and  N_14
REMARK    7  A    between atoms: N_14  and  C_15
REMARK    8  A    between atoms: C_16  and  C_18
REMARK    9  A    between atoms: C_23  and  S_24
REMARK   10  A    between atoms: S_24  and  C_25
REMARK   11  A    between atoms: C_25  and  C_26
REMARK                            x       y       z     vdW  Elec       q    Type
REMARK                         _______ _______ _______ _____ _____    ______ ____
ROOT
ATOM      1  N   UNL     1       1.115   1.717  -0.334  0.00  0.00    -0.263 N 
ATOM      2  C   UNL     1       1.226   3.176  -0.402  0.00  0.00    +0.139 C 
ATOM      3  C   UNL     1       0.023   1.149   0.215  0.00  0.00    +0.252 C 
ATOM      4  O   UNL     1      -0.823   1.844   0.745  0.00  0.00    -0.270 OA
ENDROOT
BRANCH   1   7
ATOM      5  N   UNL     1       2.936  -0.767  -2.338  0.00  0.00    -0.280 N 
ATOM      6  C   UNL     1       1.905   0.010  -1.862  0.00  0.00    +0.127 A 
ATOM      7  C   UNL     1       2.152   0.907  -0.843  0.00  0.00    +0.140 A 
ATOM      8  C   UNL     1       3.456   1.003  -0.323  0.00  0.00    +0.277 A 
ATOM      9  O   UNL     1       3.703   1.790   0.575  0.00  0.00    -0.266 OA
ATOM     10  N   UNL     1       4.429   0.214  -0.820  0.00  0.00    -0.273 N 
ATOM     11  H   UNL     1       5.354   0.275  -0.446  0.00  0.00    +0.173 HD
ATOM     12  C   UNL     1       4.170  -0.654  -1.815  0.00  0.00    +0.331 A 
ATOM     13  O   UNL     1       5.069  -1.349  -2.248  0.00  0.00    -0.246 OA
BRANCH   6  14
ATOM     14  N   UNL     1       0.644  -0.106  -2.397  0.00  0.00    -0.343 N 
ATOM     15  H   UNL     1      -0.051   0.519  -2.138  0.00  0.00    +0.144 HD
ATOM     16  H   UNL     1       0.449  -0.813  -3.032  0.00  0.00    +0.144 HD
ENDBRANCH   6  14
BRANCH   5  17
ATOM     17  C   UNL     1       2.689  -1.722  -3.420  0.00  0.00    +0.128 C 
BRANCH  17  18
ATOM     18  C   UNL     1       2.921  -1.037  -4.768  0.00  0.00    +0.021 C 
BRANCH  18  20
ATOM     19  C   UNL     1       2.896  -1.350  -7.247  0.00  0.00    +0.004 C 
ATOM     20  C   UNL     1       2.663  -2.035  -5.899  0.00  0.00    -0.002 C 
ENDBRANCH  18  20
ENDBRANCH  17  18
ENDBRANCH   5  17
ENDBRANCH   1   7
BRANCH   3  21
ATOM     21  C   UNL     1      -0.143  -0.315   0.179  0.00  0.00    +0.051 A 
ATOM     22  C   UNL     1       0.977  -1.150   0.195  0.00  0.00    +0.014 A 
ATOM     23  C   UNL     1       0.815  -2.518   0.162  0.00  0.00    +0.001 A 
ATOM     24  C   UNL     1      -0.454  -3.072   0.113  0.00  0.00    +0.001 A 
ATOM     25  C   UNL     1      -1.570  -2.262   0.097  0.00  0.00    +0.015 A 
ATOM     26  C   UNL     1      -1.428  -0.879   0.134  0.00  0.00    +0.020 A 
BRANCH  26  27
ATOM     27  S   UNL     1      -2.851   0.159   0.121  0.00  0.00    -0.120 S 
BRANCH  27  28
ATOM     28  C   UNL     1      -4.242  -1.004   0.061  0.00  0.00    +0.112 C 
BRANCH  28  29
ATOM     29  C   UNL     1      -5.539  -0.237   0.045  0.00  0.00    -0.002 A 
ATOM     30  C   UNL     1      -6.167   0.085   1.234  0.00  0.00    +0.007 A 
ATOM     31  C   UNL     1      -7.353   0.794   1.219  0.00  0.00    +0.000 A 
ATOM     32  C   UNL     1      -7.919   1.173   0.016  0.00  0.00    +0.003 A 
ATOM     33  C   UNL     1      -7.296   0.848  -1.174  0.00  0.00    +0.038 A 
ATOM     34  C   UNL     1      -6.104   0.142  -1.161  0.00  0.00    +0.127 A 
ATOM     35  F   UNL     1      -5.495  -0.176  -2.323  0.00  0.00    -0.205 F 
ENDBRANCH  28  29
ENDBRANCH  27  28
ENDBRANCH  26  27
ENDBRANCH   3  21
TORSDOF 9
