REMARK  Name = ZINC29470195
REMARK  10 active torsions:
REMARK  status: ('A' for Active; 'I' for Inactive)
REMARK    1  A    between atoms: C_1  and  N_2
REMARK    2  A    between atoms: N_2  and  C_19
REMARK    3  A    between atoms: C_3  and  C_5
REMARK    4  A    between atoms: C_5  and  S_6
REMARK    5  A    between atoms: S_6  and  C_7
REMARK    6  A    between atoms: N_8  and  C_9
REMARK    7  A    between atoms: C_9  and  C_10
REMARK    8  A    between atoms: C_15  and  O_16
REMARK    9  A    between atoms: O_16  and  C_17
REMARK   10  A    between atoms: C_19  and  C_25
REMARK                            x       y       z     vdW  Elec       q    Type
REMARK                         _______ _______ _______ _____ _____    ______ ____
ROOT
ATOM      1  C   UNL     1       6.133   2.258   2.109  0.00  0.00    +0.126 C 
ATOM      2  N   UNL     1       6.160   3.070   1.088  0.00  0.00    -0.364 N 
ATOM      3  N   UNL     1       7.274   2.044   2.847  0.00  0.00    -0.339 N 
ATOM      4  H   UNL     1       8.209   2.558   2.577  0.00  0.00    +0.144 HD
ATOM      5  H   UNL     1       7.252   1.360   3.708  0.00  0.00    +0.144 HD
ATOM      6  H   UNL     1       5.278   3.164   0.437  0.00  0.00    +0.162 HD
ENDROOT
BRANCH   1   7
ATOM      7  S   UNL     1       4.636   1.436   2.542  0.00  0.00    -0.084 S 
BRANCH   7   8
ATOM      8  C   UNL     1       3.537   2.090   1.262  0.00  0.00    +0.173 C 
BRANCH   8  11
ATOM      9  C   UNL     1       1.430   2.796  -0.497  0.00  0.00    +0.133 C 
ATOM     10  N   UNL     1       1.167   1.854   0.593  0.00  0.00    -0.285 N 
ATOM     11  C   UNL     1       2.158   1.507   1.438  0.00  0.00    +0.227 C 
ATOM     12  O   UNL     1       1.940   0.727   2.341  0.00  0.00    -0.275 OA
BRANCH  10  13
ATOM     13  C   UNL     1      -0.173   1.288   0.765  0.00  0.00    +0.123 C 
ATOM     14  C   UNL     1      -0.715   1.667   2.145  0.00  0.00    +0.041 C 
ATOM     15  C   UNL     1      -2.114   1.076   2.324  0.00  0.00    +0.003 C 
ATOM     16  C   UNL     1      -3.044   1.629   1.242  0.00  0.00    +0.000 C 
ATOM     17  C   UNL     1      -2.503   1.249  -0.138  0.00  0.00    +0.003 C 
ATOM     18  C   UNL     1      -1.103   1.840  -0.318  0.00  0.00    +0.041 C 
BRANCH  13  19
ATOM     19  C   UNL     1      -0.105  -0.178   0.651  0.00  0.00    +0.089 C 
ATOM     20  N   UNL     1      -0.052  -1.310   0.563  0.00  0.00    -0.194 NA
ENDBRANCH  13  19
ENDBRANCH  10  13
ENDBRANCH   8  11
ENDBRANCH   7   8
ENDBRANCH   1   7
BRANCH   2  21
ATOM     21  C   UNL     1       7.363   3.857   0.809  0.00  0.00    +0.153 C 
BRANCH  21  22
ATOM     22  C   UNL     1       7.964   3.410  -0.499  0.00  0.00    +0.013 A 
ATOM     23  C   UNL     1       9.048   2.553  -0.505  0.00  0.00    +0.009 A 
ATOM     24  C   UNL     1       9.596   2.139  -1.704  0.00  0.00    +0.001 A 
ATOM     25  C   UNL     1       9.068   2.589  -2.901  0.00  0.00    +0.004 A 
ATOM     26  C   UNL     1       7.988   3.449  -2.900  0.00  0.00    +0.046 A 
ATOM     27  C   UNL     1       7.432   3.863  -1.697  0.00  0.00    +0.125 A 
BRANCH  27  28
ATOM     28  O   UNL     1       6.370   4.710  -1.694  0.00  0.00    -0.495 OA
ATOM     29  C   UNL     1       5.875   5.135  -2.965  0.00  0.00    +0.277 C 
ENDBRANCH  27  28
ENDBRANCH  21  22
ENDBRANCH   2  21
TORSDOF 8
