REMARK  Name = ZINC12181245
REMARK  5 active torsions:
REMARK  status: ('A' for Active; 'I' for Inactive)
REMARK    1  A    between atoms: C_1  and  C_2
REMARK    2  A    between atoms: C_2  and  C_4
REMARK    3  A    between atoms: C_2  and  N_11
REMARK    4  A    between atoms: C_14  and  N_23
REMARK    5  A    between atoms: C_16  and  C_18
REMARK                            x       y       z     vdW  Elec       q    Type
REMARK                         _______ _______ _______ _____ _____    ______ ____
ROOT
ATOM      1  N   UNL     1       2.690   1.113   0.458  0.00  0.00    -0.216 N 
ATOM      2  C   UNL     1       3.179  -0.136   0.586  0.00  0.00    +0.289 A 
ATOM      3  O   UNL     1       4.341  -0.374   0.295  0.00  0.00    -0.264 OA
ATOM      4  C   UNL     1       2.336  -1.173   1.062  0.00  0.00    +0.094 A 
ATOM      5  C   UNL     1       1.041  -0.884   1.381  0.00  0.00    +0.058 A 
ATOM      6  C   UNL     1       0.564   0.437   1.234  0.00  0.00    +0.100 A 
ATOM      7  N   UNL     1       1.359   1.388   0.791  0.00  0.00    -0.167 NA
ENDROOT
BRANCH   6   8
ATOM      8  C   UNL     1      -0.839   0.752   1.573  0.00  0.00    +0.039 A 
ATOM      9  C   UNL     1      -1.494   1.953   1.510  0.00  0.00    +0.018 A 
ATOM     10  C   UNL     1      -2.820   2.005   1.877  0.00  0.00    +0.008 A 
ATOM     11  C   UNL     1      -3.434   0.871   2.302  0.00  0.00    +0.046 A 
ATOM     12  S   UNL     1      -2.120  -0.333   2.181  0.00  0.00    -0.095 S 
ENDBRANCH   6   8
BRANCH   4  13
ATOM     13  N   UNL     1       2.824  -2.472   1.200  0.00  0.00    -0.354 N 
ATOM     14  H   UNL     1       2.242  -3.176   1.526  0.00  0.00    +0.142 HD
ATOM     15  H   UNL     1       3.745  -2.671   0.972  0.00  0.00    +0.142 HD
ENDBRANCH   4  13
BRANCH   1  17
ATOM     16  C   UNL     1       2.964   2.774  -1.316  0.00  0.00    +0.043 C 
ATOM     17  C   UNL     1       3.556   2.189  -0.032  0.00  0.00    +0.194 C 
BRANCH  17  18
ATOM     18  C   UNL     1       3.655   3.269   1.013  0.00  0.00    +0.240 C 
ATOM     19  O   UNL     1       2.753   3.430   1.807  0.00  0.00    -0.273 OA
ATOM     20  N   UNL     1       4.747   4.058   1.066  0.00  0.00    -0.300 N 
ATOM     21  C   UNL     1       5.866   4.037   0.112  0.00  0.00    +0.108 C 
ATOM     22  C   UNL     1       6.891   5.088   0.585  0.00  0.00    +0.020 C 
ATOM     23  C   UNL     1       6.562   5.237   2.094  0.00  0.00    +0.020 C 
ATOM     24  C   UNL     1       5.021   5.079   2.094  0.00  0.00    +0.108 C 
ENDBRANCH  17  18
ENDBRANCH   1  17
TORSDOF 4
