REMARK  Name = ZINC36272656
REMARK  9 active torsions:
REMARK  status: ('A' for Active; 'I' for Inactive)
REMARK    1  A    between atoms: C_1  and  C_2
REMARK    2  A    between atoms: C_4  and  C_10
REMARK    3  A    between atoms: C_7  and  O_8
REMARK    4  A    between atoms: O_8  and  C_9
REMARK    5  A    between atoms: C_11  and  C_20
REMARK    6  A    between atoms: C_14  and  N_19
REMARK    7  A    between atoms: C_20  and  N_21
REMARK    8  A    between atoms: C_23  and  C_30
REMARK    9  A    between atoms: C_26  and  C_29
REMARK                            x       y       z     vdW  Elec       q    Type
REMARK                         _______ _______ _______ _____ _____    ______ ____
ROOT
ATOM      1  C   UNL     1       0.029  -2.817  -2.492  0.00  0.00    +0.069 A 
ATOM      2  C   UNL     1      -0.743  -3.899  -2.794  0.00  0.00    +0.063 A 
ATOM      3  N   UNL     1      -0.432  -4.269  -4.073  0.00  0.00    -0.302 N 
ATOM      4  C   UNL     1      -0.892  -5.274  -4.878  0.00  0.00    +0.115 A 
ATOM      5  C   UNL     1      -0.407  -5.426  -6.134  0.00  0.00    +0.041 A 
ATOM      6  C   UNL     1       0.580  -4.547  -6.624  0.00  0.00    +0.028 A 
ATOM      7  C   UNL     1       1.042  -3.546  -5.829  0.00  0.00    +0.046 A 
ATOM      8  C   UNL     1       0.527  -3.401  -4.525  0.00  0.00    +0.116 A 
ATOM      9  N   UNL     1       0.788  -2.529  -3.560  0.00  0.00    -0.339 N 
ATOM     10  H   UNL     1       1.427  -1.801  -3.617  0.00  0.00    +0.167 HD
ENDROOT
BRANCH   1  14
ATOM     11  C   UNL     1      -0.018   1.503   0.010  0.00  0.00    +0.047 C 
ATOM     12  C   UNL     1       0.002  -0.004   0.002  0.00  0.00    -0.008 A 
ATOM     13  C   UNL     1       0.006  -0.686  -1.197  0.00  0.00    +0.017 A 
ATOM     14  C   UNL     1       0.025  -2.080  -1.204  0.00  0.00    +0.001 A 
ATOM     15  C   UNL     1       0.041  -2.780   0.002  0.00  0.00    +0.013 A 
ATOM     16  C   UNL     1       0.037  -2.092   1.197  0.00  0.00    +0.046 A 
ATOM     17  C   UNL     1       0.023  -0.704   1.200  0.00  0.00    +0.123 A 
BRANCH  17  18
ATOM     18  O   UNL     1       0.025  -0.029   2.380  0.00  0.00    -0.495 OA
ATOM     19  C   UNL     1       0.047  -0.811   3.575  0.00  0.00    +0.277 C 
ENDBRANCH  17  18
ENDBRANCH   1  14
BRANCH   5  20
ATOM     20  N   UNL     1      -0.888  -6.461  -6.948  0.00  0.00    -0.357 N 
ATOM     21  H   UNL     1      -1.567  -7.067  -6.612  0.00  0.00    +0.142 HD
ATOM     22  H   UNL     1      -0.541  -6.571  -7.848  0.00  0.00    +0.142 HD
ENDBRANCH   5  20
BRANCH   2  23
ATOM     23  C   UNL     1      -1.749  -4.562  -1.890  0.00  0.00    +0.140 C 
BRANCH  23  24
ATOM     24  N   UNL     1      -1.087  -5.619  -1.112  0.00  0.00    -0.292 NA
ATOM     25  C   UNL     1      -0.637  -6.712  -1.986  0.00  0.00    +0.116 C 
ATOM     26  C   UNL     1       0.098  -7.760  -1.145  0.00  0.00    +0.130 C 
ATOM     27  O   UNL     1      -0.767  -8.220  -0.103  0.00  0.00    -0.371 OA
ATOM     28  C   UNL     1      -1.224  -7.181   0.767  0.00  0.00    +0.130 C 
ATOM     29  C   UNL     1      -1.973  -6.127  -0.055  0.00  0.00    +0.116 C 
ATOM     30  C   UNL     1      -2.165  -7.772   1.819  0.00  0.00    +0.039 C 
ATOM     31  C   UNL     1       0.499  -8.938  -2.034  0.00  0.00    +0.039 C 
ENDBRANCH  23  24
ENDBRANCH   2  23
TORSDOF 5
