REMARK  Name = ZINC45344650
REMARK  5 active torsions:
REMARK  status: ('A' for Active; 'I' for Inactive)
REMARK    1  A    between atoms: C_1  and  C_2
REMARK    2  A    between atoms: C_4  and  C_7
REMARK    3  A    between atoms: C_7  and  N_8
REMARK    4  A    between atoms: N_11  and  N_12
REMARK    5  A    between atoms: C_13  and  C_15
REMARK                            x       y       z     vdW  Elec       q    Type
REMARK                         _______ _______ _______ _____ _____    ______ ____
ROOT
ATOM      1  N   UNL     1      -3.246  -3.703   3.945  0.00  0.00    -0.229 N 
ATOM      2  C   UNL     1      -3.658  -3.909   5.212  0.00  0.00    +0.267 C 
ATOM      3  O   UNL     1      -4.594  -4.654   5.434  0.00  0.00    -0.268 OA
ATOM      4  H   UNL     1      -2.499  -3.110   3.768  0.00  0.00    +0.173 HD
ENDROOT
BRANCH   2   5
ATOM      5  C   UNL     1      -2.978  -3.235   6.322  0.00  0.00    +0.076 A 
ATOM      6  C   UNL     1      -3.232  -3.310   7.674  0.00  0.00    +0.024 A 
ATOM      7  C   UNL     1      -2.433  -2.530   8.515  0.00  0.00    -0.036 A 
ATOM      8  C   UNL     1      -1.513  -1.744   7.925  0.00  0.00    -0.006 A 
ATOM      9  S   UNL     1      -1.599  -2.110   6.282  0.00  0.00    -0.088 S 
ATOM     10  C   UNL     1      -0.598  -0.669   8.458  0.00  0.00    +0.043 C 
ATOM     11  C   UNL     1      -0.785  -0.440   9.958  0.00  0.00    +0.005 C 
ATOM     12  C   UNL     1      -0.057  -1.502  10.765  0.00  0.00    +0.000 C 
ATOM     13  C   UNL     1      -0.133  -2.877  10.133  0.00  0.00    +0.000 C 
ATOM     14  C   UNL     1      -1.461  -3.498  10.578  0.00  0.00    +0.005 C 
ATOM     15  C   UNL     1      -2.611  -2.659  10.021  0.00  0.00    +0.036 C 
ENDBRANCH   2   5
BRANCH   1  19
ATOM     16  N   UNL     1      -2.447  -3.317   1.371  0.00  0.00    -0.293 N 
ATOM     17  C   UNL     1      -3.484  -4.141   1.617  0.00  0.00    +0.316 C 
ATOM     18  O   UNL     1      -4.048  -4.700   0.696  0.00  0.00    -0.251 OA
ATOM     19  N   UNL     1      -3.896  -4.347   2.884  0.00  0.00    -0.218 N 
ATOM     20  H   UNL     1      -1.997  -2.871   2.106  0.00  0.00    +0.151 HD
ATOM     21  H   UNL     1      -4.642  -4.941   3.061  0.00  0.00    +0.174 HD
BRANCH  16  22
ATOM     22  C   UNL     1      -1.999  -3.093  -0.006  0.00  0.00    +0.161 C 
BRANCH  22  26
ATOM     23  C   UNL     1      -0.018   1.503   0.010  0.00  0.00    +0.073 C 
ATOM     24  C   UNL     1       0.002  -0.004   0.002  0.00  0.00    +0.076 A 
ATOM     25  N   UNL     1      -1.013  -0.832   0.002  0.00  0.00    -0.248 NA
ATOM     26  C   UNL     1      -0.834  -2.137  -0.006  0.00  0.00    +0.066 A 
ATOM     27  C   UNL     1       0.449  -2.582  -0.014  0.00  0.00    +0.071 A 
ATOM     28  S   UNL     1       1.335  -1.032  -0.017  0.00  0.00    -0.080 S 
ENDBRANCH  22  26
ENDBRANCH  16  22
ENDBRANCH   1  19
TORSDOF 4
