REMARK  Name = ZINC56763013
REMARK  6 active torsions:
REMARK  status: ('A' for Active; 'I' for Inactive)
REMARK    1  A    between atoms: C_1  and  C_2
REMARK    2  A    between atoms: C_2  and  C_4
REMARK    3  A    between atoms: C_2  and  N_12
REMARK    4  A    between atoms: C_4  and  C_5
REMARK    5  A    between atoms: C_8  and  O_11
REMARK    6  A    between atoms: C_19  and  C_21
REMARK                            x       y       z     vdW  Elec       q    Type
REMARK                         _______ _______ _______ _____ _____    ______ ____
ROOT
ATOM      1  N   UNL     1      -1.372  -0.511   0.012  0.00  0.00    -0.296 N 
ATOM      2  C   UNL     1      -2.051  -0.643  -1.145  0.00  0.00    +0.303 C 
ATOM      3  O   UNL     1      -1.522  -0.341  -2.197  0.00  0.00    -0.253 OA
ATOM      4  N   UNL     1      -3.315  -1.109  -1.135  0.00  0.00    -0.278 N 
ATOM      5  C   UNL     1      -4.076  -1.505   0.064  0.00  0.00    +0.110 C 
ATOM      6  C   UNL     1      -5.143  -2.502  -0.454  0.00  0.00    +0.021 C 
ATOM      7  C   UNL     1      -5.511  -1.879  -1.826  0.00  0.00    +0.029 C 
ATOM      8  C   UNL     1      -4.167  -1.302  -2.318  0.00  0.00    +0.114 C 
ATOM      9  H   UNL     1      -1.794  -0.752   0.852  0.00  0.00    +0.151 HD
ENDROOT
BRANCH   8  10
ATOM     10  C   UNL     1      -4.394   0.019  -3.006  0.00  0.00    +0.010 A 
ATOM     11  C   UNL     1      -4.456   0.291  -4.333  0.00  0.00    +0.013 A 
ATOM     12  C   UNL     1      -4.678   1.593  -4.741  0.00  0.00    +0.008 A 
ATOM     13  C   UNL     1      -4.825   2.560  -3.802  0.00  0.00    +0.045 A 
ATOM     14  S   UNL     1      -4.659   1.631  -2.286  0.00  0.00    -0.100 S 
ENDBRANCH   8  10
BRANCH   1  16
ATOM     15  C   UNL     1      -0.019   1.526   0.010  0.00  0.00    +0.028 C 
ATOM     16  C   UNL     1       0.002  -0.004   0.002  0.00  0.00    +0.076 C 
BRANCH  16  17
ATOM     17  C   UNL     1       0.742  -0.511   1.242  0.00  0.00    +0.057 C 
BRANCH  17  18
ATOM     18  C   UNL     1       0.870  -2.011   1.172  0.00  0.00    -0.045 A 
ATOM     19  C   UNL     1      -0.118  -2.814   1.711  0.00  0.00    +0.007 A 
ATOM     20  C   UNL     1      -0.003  -4.189   1.649  0.00  0.00    +0.045 A 
ATOM     21  C   UNL     1       1.105  -4.764   1.044  0.00  0.00    +0.117 A 
ATOM     22  C   UNL     1       2.095  -3.957   0.504  0.00  0.00    +0.045 A 
ATOM     23  C   UNL     1       1.973  -2.582   0.564  0.00  0.00    +0.007 A 
BRANCH  21  24
ATOM     24  O   UNL     1       1.221  -6.117   0.983  0.00  0.00    -0.507 OA
ATOM     25  H   UNL     1       0.831  -6.509   0.189  0.00  0.00    +0.292 HD
ENDBRANCH  21  24
ENDBRANCH  17  18
ENDBRANCH  16  17
ENDBRANCH   1  16
TORSDOF 5
