REMARK  Name = ZINC27304119
REMARK  7 active torsions:
REMARK  status: ('A' for Active; 'I' for Inactive)
REMARK    1  A    between atoms: C_1  and  N_2
REMARK    2  A    between atoms: C_6  and  S_13
REMARK    3  A    between atoms: N_9  and  C_12
REMARK    4  A    between atoms: S_13  and  N_16
REMARK    5  A    between atoms: N_16  and  C_17
REMARK    6  A    between atoms: C_17  and  C_18
REMARK    7  A    between atoms: C_24  and  C_26
REMARK                            x       y       z     vdW  Elec       q    Type
REMARK                         _______ _______ _______ _____ _____    ______ ____
ROOT
ATOM      1  N   UNL     1       0.288   6.757  -1.347  0.00  0.00    -0.163 N 
ATOM      2  C   UNL     1       1.147   5.945  -1.994  0.00  0.00    +0.267 C 
ATOM      3  O   UNL     1       0.886   5.554  -3.115  0.00  0.00    -0.268 OA
ENDROOT
BRANCH   2   4
ATOM      4  C   UNL     1       2.405   5.528  -1.341  0.00  0.00    +0.052 A 
ATOM      5  C   UNL     1       2.382   4.986  -0.054  0.00  0.00    +0.014 A 
ATOM      6  C   UNL     1       3.560   4.596   0.548  0.00  0.00    +0.001 A 
ATOM      7  C   UNL     1       4.765   4.749  -0.116  0.00  0.00    +0.001 A 
ATOM      8  C   UNL     1       4.797   5.290  -1.388  0.00  0.00    +0.016 A 
ATOM      9  C   UNL     1       3.624   5.681  -2.005  0.00  0.00    +0.030 A 
ATOM     10 BR   UNL     1       3.670   6.422  -3.744  0.00  0.00    -0.050 Br
ENDBRANCH   2   4
BRANCH   1  11
ATOM     11  S   UNL     1      -1.012   7.396  -2.149  0.00  0.00    +0.077 S 
ATOM     12  O   UNL     1      -1.367   6.460  -3.157  0.00  0.00    -0.150 OA
ATOM     13  O   UNL     1      -1.929   7.830  -1.155  0.00  0.00    -0.150 OA
BRANCH  11  19
ATOM     14  C   UNL     1       1.120  13.495  -4.902  0.00  0.00    +0.154 C 
ATOM     15  N   UNL     1       0.908  12.073  -5.182  0.00  0.00    -0.295 N 
ATOM     16  C   UNL     1       0.431  11.127  -4.279  0.00  0.00    +0.070 A 
ATOM     17  C   UNL     1       0.036  11.193  -2.951  0.00  0.00    +0.030 A 
ATOM     18  C   UNL     1      -0.408  10.054  -2.309  0.00  0.00    +0.031 A 
ATOM     19  C   UNL     1      -0.450   8.844  -2.981  0.00  0.00    +0.111 A 
ATOM     20  C   UNL     1      -0.057   8.768  -4.303  0.00  0.00    +0.056 A 
ATOM     21  C   UNL     1       0.385   9.908  -4.958  0.00  0.00    +0.071 A 
ATOM     22  N   UNL     1       0.835  10.152  -6.254  0.00  0.00    -0.295 N 
ATOM     23  C   UNL     1       1.141  11.459  -6.357  0.00  0.00    +0.330 A 
ATOM     24  O   UNL     1       1.564  12.002  -7.361  0.00  0.00    -0.246 OA
ATOM     25  C   UNL     1       0.955   9.156  -7.321  0.00  0.00    +0.154 C 
ENDBRANCH  11  19
ENDBRANCH   1  11
BRANCH   1  26
ATOM     26  C   UNL     1       0.505   7.075   0.067  0.00  0.00    +0.170 C 
BRANCH  26  27
ATOM     27  C   UNL     1      -0.655   6.563   0.881  0.00  0.00    -0.028 A 
ATOM     28  C   UNL     1      -0.729   5.223   1.214  0.00  0.00    +0.005 A 
ATOM     29  C   UNL     1      -1.793   4.754   1.960  0.00  0.00    +0.000 A 
ATOM     30  C   UNL     1      -2.784   5.624   2.374  0.00  0.00    +0.000 A 
ATOM     31  C   UNL     1      -2.714   6.963   2.036  0.00  0.00    +0.000 A 
ATOM     32  C   UNL     1      -1.647   7.433   1.294  0.00  0.00    +0.005 A 
ENDBRANCH  26  27
ENDBRANCH   1  26
TORSDOF 5
