REMARK  Name = ZINC06149035
REMARK  14 active torsions:
REMARK  status: ('A' for Active; 'I' for Inactive)
REMARK    1  A    between atoms: C_1  and  C_2
REMARK    2  A    between atoms: C_2  and  C_3
REMARK    3  A    between atoms: C_3  and  C_4
REMARK    4  A    between atoms: C_3  and  C_5
REMARK    5  A    between atoms: C_3  and  N_6
REMARK    6  A    between atoms: C_7  and  C_11
REMARK    7  A    between atoms: C_11  and  C_13
REMARK    8  A    between atoms: C_11  and  N_69
REMARK    9  A    between atoms: C_16  and  C_26
REMARK   10  A    between atoms: C_18  and  C_25
REMARK   11  A    between atoms: C_27  and  C_28
REMARK   12  A    between atoms: C_27  and  N_69
REMARK   13  A    between atoms: C_33  and  C_34
REMARK   14  A    between atoms: C_33  and  N_69
REMARK                            x       y       z     vdW  Elec       q    Type
REMARK                         _______ _______ _______ _____ _____    ______ ____
ROOT
ATOM      1  C   UNL     1       4.435   4.952  -0.389  0.00  0.00    +0.040 C 
ENDROOT
BRANCH   1   2
ATOM      2  C   UNL     1       3.077   4.742  -1.008  0.00  0.00    +0.011 A 
ATOM      3  C   UNL     1       2.651   3.487  -1.293  0.00  0.00    +0.018 A 
ATOM      4  C   UNL     1       1.327   3.317  -1.893  0.00  0.00    +0.002 A 
ATOM      5  C   UNL     1       0.834   2.046  -2.210  0.00  0.00    -0.041 A 
ATOM      6  C   UNL     1      -0.406   1.921  -2.770  0.00  0.00    +0.007 A 
ATOM      7  C   UNL     1      -1.182   3.044  -3.026  0.00  0.00    -0.048 A 
ATOM      8  C   UNL     1      -0.717   4.305  -2.721  0.00  0.00    +0.029 A 
ATOM      9  C   UNL     1       0.543   4.457  -2.151  0.00  0.00    +0.050 A 
ATOM     10  N   UNL     1       1.034   5.706  -1.837  0.00  0.00    -0.322 N 
ATOM     11  H   UNL     1       0.476   6.516  -2.021  0.00  0.00    +0.169 HD
ATOM     12  C   UNL     1       2.252   5.853  -1.286  0.00  0.00    +0.251 A 
ATOM     13  O   UNL     1       2.653   6.973  -1.021  0.00  0.00    -0.268 OA
ATOM     14  C   UNL     1      -2.547   2.882  -3.642  0.00  0.00    +0.044 C 
ATOM     15  C   UNL     1       1.667   0.821  -1.936  0.00  0.00    +0.044 C 
ENDBRANCH   1   2
BRANCH   1  17
ATOM     16  N   UNL     1       4.539   4.899   2.159  0.00  0.00    -0.225 N 
ATOM     17  C   UNL     1       4.273   5.523   0.996  0.00  0.00    +0.143 A 
ATOM     18  N   UNL     1       3.852   6.726   1.302  0.00  0.00    -0.115 NA
ATOM     19  N   UNL     1       3.852   6.832   2.586  0.00  0.00    -0.023 NA
ATOM     20  N   UNL     1       4.269   5.731   3.107  0.00  0.00    -0.043 NA
BRANCH  16  21
ATOM     21  C   UNL     1       5.040   3.532   2.317  0.00  0.00    +0.061 C 
ATOM     22  C   UNL     1       4.072   2.553   1.650  0.00  0.00    +0.036 C 
ATOM     23  C   UNL     1       6.418   3.414   1.661  0.00  0.00    +0.036 C 
BRANCH  21  25
ATOM     24  C   UNL     1       5.679   1.772   3.972  0.00  0.00    +0.006 C 
ATOM     25  C   UNL     1       5.155   3.200   3.807  0.00  0.00    +0.026 C 
ENDBRANCH  21  25
ENDBRANCH  16  21
ENDBRANCH   1  17
BRANCH   1  26
ATOM     26  N   UNL     1       5.197   5.911  -1.217  0.00  0.00    +0.397 N 
ATOM     27  H   UNL     1       4.700   6.809  -1.229  0.00  0.00    -0.079 HD
BRANCH  26  28
ATOM     28  C   UNL     1       5.309   5.406  -2.601  0.00  0.00    -0.001 C 
BRANCH  28  29
ATOM     29  C   UNL     1       6.122   4.138  -2.637  0.00  0.00    +0.089 A 
ATOM     30  C   UNL     1       5.630   2.886  -2.599  0.00  0.00    +0.042 A 
ATOM     31  C   UNL     1       6.738   2.009  -2.654  0.00  0.00    +0.041 A 
ATOM     32  C   UNL     1       7.840   2.777  -2.723  0.00  0.00    +0.195 A 
ATOM     33  O   UNL     1       7.461   4.065  -2.718  0.00  0.00    -0.470 OA
ENDBRANCH  28  29
ENDBRANCH  26  28
BRANCH  26  34
ATOM     34  C   UNL     1       6.543   6.115  -0.643  0.00  0.00    -0.034 C 
BRANCH  34  35
ATOM     35  C   UNL     1       7.220   7.243  -1.379  0.00  0.00    -0.027 A 
ATOM     36  C   UNL     1       7.233   8.566  -1.088  0.00  0.00    +0.009 A 
ATOM     37  C   UNL     1       7.929   9.428  -1.915  0.00  0.00    +0.008 A 
ATOM     38  C   UNL     1       8.579   8.924  -2.993  0.00  0.00    +0.045 A 
ATOM     39  S   UNL     1       8.219   7.180  -2.858  0.00  0.00    -0.103 S 
ENDBRANCH  34  35
ENDBRANCH  26  34
ENDBRANCH   1  26
TORSDOF 9
