REMARK  Name = ZINC52774619
REMARK  8 active torsions:
REMARK  status: ('A' for Active; 'I' for Inactive)
REMARK    1  A    between atoms: C_1  and  C_2
REMARK    2  A    between atoms: N_5  and  C_8
REMARK    3  A    between atoms: C_11  and  N_14
REMARK    4  A    between atoms: N_14  and  C_15
REMARK    5  A    between atoms: C_15  and  C_17
REMARK    6  A    between atoms: C_15  and  C_18
REMARK    7  A    between atoms: N_20  and  C_21
REMARK    8  A    between atoms: N_20  and  C_22
REMARK                            x       y       z     vdW  Elec       q    Type
REMARK                         _______ _______ _______ _____ _____    ______ ____
ROOT
ATOM      1  N   UNL     1      -1.604  -7.789   1.433  0.00  0.00    -0.333 N 
ATOM      2  H   UNL     1      -1.329  -8.249   0.624  0.00  0.00    +0.147 HD
ENDROOT
BRANCH   1   6
ATOM      3  C   UNL     1      -2.111  -3.657   1.410  0.00  0.00    +0.014 A 
ATOM      4  C   UNL     1      -1.719  -4.310   0.256  0.00  0.00    +0.023 A 
ATOM      5  C   UNL     1      -1.549  -5.681   0.260  0.00  0.00    +0.025 A 
ATOM      6  C   UNL     1      -1.774  -6.403   1.425  0.00  0.00    +0.028 A 
ATOM      7  C   UNL     1      -2.168  -5.744   2.583  0.00  0.00    +0.025 A 
ATOM      8  C   UNL     1      -2.330  -4.372   2.573  0.00  0.00    +0.023 A 
BRANCH   3  13
ATOM      9  C   UNL     1      -2.485   1.844   0.253  0.00  0.00    +0.007 C 
ATOM     10  C   UNL     1      -2.265   0.335   0.132  0.00  0.00    -0.011 C 
ATOM     11  C   UNL     1      -3.565  -0.401   0.470  0.00  0.00    +0.020 C 
ATOM     12  C   UNL     1      -3.317  -1.910   0.425  0.00  0.00    +0.085 C 
ATOM     13  N   UNL     1      -2.282  -2.269   1.402  0.00  0.00    -0.393 NA
ATOM     14  C   UNL     1      -1.013  -1.624   1.043  0.00  0.00    +0.085 C 
ATOM     15  C   UNL     1      -1.172  -0.103   1.112  0.00  0.00    +0.020 C 
ATOM     16  H   UNL     1      -2.566  -1.962   2.320  0.00  0.00    +0.126 HD
ENDBRANCH   3  13
ENDBRANCH   1   6
BRANCH   1  17
ATOM     17  C   UNL     1      -1.841  -8.550   2.663  0.00  0.00    +0.154 C 
ATOM     18  C   UNL     1      -0.576  -8.537   3.522  0.00  0.00    +0.038 C 
BRANCH  17  19
ATOM     19  C   UNL     1      -2.197  -9.972   2.313  0.00  0.00    +0.236 C 
ATOM     20  O   UNL     1      -1.956 -10.402   1.205  0.00  0.00    -0.274 OA
ATOM     21  N   UNL     1      -2.784 -10.765   3.231  0.00  0.00    -0.298 N 
ATOM     22  C   UNL     1      -3.047 -12.172   2.923  0.00  0.00    +0.132 C 
BRANCH  21  23
ATOM     23  C   UNL     1      -3.159 -10.219   4.538  0.00  0.00    +0.098 C 
ATOM     24  C   UNL     1      -4.685 -10.304   4.708  0.00  0.00    +0.046 C 
ATOM     25  C   UNL     1      -5.023 -10.018   6.199  0.00  0.00    +0.168 C 
ATOM     26  S   UNL     1      -3.669 -10.947   7.036  0.00  0.00    -0.029 S 
ATOM     27  O   UNL     1      -3.130 -10.143   8.076  0.00  0.00    -0.174 OA
ATOM     28  O   UNL     1      -4.124 -12.260   7.332  0.00  0.00    -0.174 OA
ATOM     29  C   UNL     1      -2.459 -11.031   5.654  0.00  0.00    +0.188 C 
ENDBRANCH  21  23
ENDBRANCH  17  19
ENDBRANCH   1  17
TORSDOF 5
