REMARK  Name = ZINC36586621
REMARK  16 active torsions:
REMARK  status: ('A' for Active; 'I' for Inactive)
REMARK    1  A    between atoms: C_1  and  C_2
REMARK    2  A    between atoms: C_2  and  C_3
REMARK    3  A    between atoms: C_3  and  C_4
REMARK    4  A    between atoms: C_4  and  N_5
REMARK    5  A    between atoms: C_6  and  C_8
REMARK    6  A    between atoms: C_8  and  C_10
REMARK    7  A    between atoms: C_8  and  N_18
REMARK    8  A    between atoms: C_13  and  C_17
REMARK    9  A    between atoms: C_15  and  C_16
REMARK   10  A    between atoms: N_18  and  C_29
REMARK   11  A    between atoms: C_19  and  C_21
REMARK   12  A    between atoms: C_22  and  O_28
REMARK   13  A    between atoms: C_26  and  O_27
REMARK   14  A    between atoms: C_29  and  C_30
REMARK   15  A    between atoms: C_29  and  C_31
REMARK   16  A    between atoms: C_29  and  C_32
REMARK                            x       y       z     vdW  Elec       q    Type
REMARK                         _______ _______ _______ _____ _____    ______ ____
ROOT
ATOM      1  C   UNL     1       3.587  -3.383   3.457  0.00  0.00    +0.193 C 
ENDROOT
BRANCH   1   2
ATOM      2  C   UNL     1       3.462  -2.607   4.743  0.00  0.00    -0.015 A 
ATOM      3  C   UNL     1       2.412  -1.724   4.918  0.00  0.00    +0.006 A 
ATOM      4  C   UNL     1       2.297  -1.012   6.097  0.00  0.00    +0.004 A 
ATOM      5  C   UNL     1       3.231  -1.184   7.102  0.00  0.00    -0.050 A 
ATOM      6  C   UNL     1       4.279  -2.068   6.928  0.00  0.00    +0.007 A 
ATOM      7  C   UNL     1       4.392  -2.783   5.750  0.00  0.00    -0.045 A 
ATOM      8  C   UNL     1       5.532  -3.750   5.562  0.00  0.00    +0.044 C 
ATOM      9  C   UNL     1       3.106  -0.407   8.388  0.00  0.00    +0.044 C 
ENDBRANCH   1   2
BRANCH   1  11
ATOM     10  N   UNL     1       3.038  -1.535   1.908  0.00  0.00    -0.313 N 
ATOM     11  C   UNL     1       2.720  -2.748   2.401  0.00  0.00    +0.238 C 
ATOM     12  O   UNL     1       1.736  -3.330   1.994  0.00  0.00    -0.273 OA
ATOM     13  H   UNL     1       3.781  -1.038   2.284  0.00  0.00    +0.149 HD
BRANCH  10  14
ATOM     14  C   UNL     1       2.259  -0.966   0.805  0.00  0.00    +0.104 C 
BRANCH  14  15
ATOM     15  C   UNL     1       2.823   0.409   0.439  0.00  0.00    +0.018 C 
BRANCH  15  17
ATOM     16  C   UNL     1       2.575   2.378  -1.079  0.00  0.00    +0.004 C 
ATOM     17  C   UNL     1       2.011   1.003  -0.713  0.00  0.00    -0.002 C 
ENDBRANCH  15  17
ENDBRANCH  14  15
ENDBRANCH  10  14
ENDBRANCH   1  11
BRANCH   1  18
ATOM     18  N   UNL     1       3.156  -4.766   3.677  0.00  0.00    -0.277 N 
ATOM     19  C   UNL     1       1.961  -5.016   4.249  0.00  0.00    +0.255 C 
ATOM     20  O   UNL     1       1.191  -4.102   4.474  0.00  0.00    -0.270 OA
BRANCH  19  21
ATOM     21  C   UNL     1       1.588  -6.396   4.600  0.00  0.00    +0.119 A 
ATOM     22  C   UNL     1       1.966  -6.937   5.838  0.00  0.00    +0.133 A 
ATOM     23  C   UNL     1       1.609  -8.237   6.158  0.00  0.00    +0.046 A 
ATOM     24  C   UNL     1       0.884  -9.000   5.263  0.00  0.00    +0.007 A 
ATOM     25  C   UNL     1       0.507  -8.478   4.040  0.00  0.00    +0.046 A 
ATOM     26  C   UNL     1       0.848  -7.178   3.701  0.00  0.00    +0.133 A 
BRANCH  26  27
ATOM     27  O   UNL     1       0.472  -6.666   2.503  0.00  0.00    -0.506 OA
ATOM     28  H   UNL     1       1.113  -6.812   1.794  0.00  0.00    +0.292 HD
ENDBRANCH  26  27
BRANCH  22  29
ATOM     29  O   UNL     1       2.678  -6.190   6.718  0.00  0.00    -0.506 OA
ATOM     30  H   UNL     1       2.132  -5.678   7.331  0.00  0.00    +0.292 HD
ENDBRANCH  22  29
ENDBRANCH  19  21
BRANCH  18  31
ATOM     31  C   UNL     1       4.023  -5.876   3.276  0.00  0.00    +0.030 C 
ATOM     32  C   UNL     1       5.322  -5.322   2.688  0.00  0.00    +0.031 C 
ATOM     33  C   UNL     1       4.344  -6.740   4.498  0.00  0.00    +0.031 C 
ATOM     34  C   UNL     1       3.309  -6.726   2.224  0.00  0.00    +0.031 C 
ENDBRANCH  18  31
ENDBRANCH   1  18
TORSDOF 10
