REMARK  Name = ZINC66784626
REMARK  5 active torsions:
REMARK  status: ('A' for Active; 'I' for Inactive)
REMARK    1  A    between atoms: C_5  and  C_7
REMARK    2  A    between atoms: C_7  and  C_8
REMARK    3  A    between atoms: N_10  and  N_11
REMARK    4  A    between atoms: C_12  and  C_14
REMARK    5  A    between atoms: C_20  and  C_22
REMARK                            x       y       z     vdW  Elec       q    Type
REMARK                         _______ _______ _______ _____ _____    ______ ____
ROOT
ATOM      1  N   UNL     1       1.548  -4.494   2.938  0.00  0.00    -0.233 N 
ATOM      2  C   UNL     1       1.590  -5.820   3.176  0.00  0.00    +0.250 C 
ATOM      3  O   UNL     1       1.511  -6.604   2.254  0.00  0.00    -0.272 OA
ATOM      4  H   UNL     1       1.611  -3.867   3.676  0.00  0.00    +0.173 HD
ENDROOT
BRANCH   2   5
ATOM      5  C   UNL     1       1.734  -6.329   4.587  0.00  0.00    +0.174 C 
ATOM      6  C   UNL     1       0.552  -5.787   5.428  0.00  0.00    +0.102 C 
ATOM      7  S   UNL     1      -0.541  -7.277   5.441  0.00  0.00    -0.139 S 
ATOM      8  C   UNL     1       0.814  -8.528   5.319  0.00  0.00    +0.178 C 
ATOM      9  N   UNL     1       1.824  -7.778   4.548  0.00  0.00    -0.280 N 
ATOM     10  C   UNL     1       2.784  -8.410   3.843  0.00  0.00    +0.220 C 
ATOM     11  O   UNL     1       3.601  -7.767   3.220  0.00  0.00    -0.275 OA
BRANCH  10  12
ATOM     12  C   UNL     1       2.840  -9.916   3.829  0.00  0.00    +0.075 C 
ATOM     13  C   UNL     1       3.102 -10.448   5.254  0.00  0.00    +0.013 C 
ATOM     14  C   UNL     1       4.033 -11.667   5.039  0.00  0.00    +0.001 C 
ATOM     15  C   UNL     1       4.953 -11.195   3.886  0.00  0.00    +0.001 C 
ATOM     16  C   UNL     1       4.017 -10.391   2.960  0.00  0.00    +0.013 C 
ENDBRANCH  10  12
ENDBRANCH   2   5
BRANCH   1  19
ATOM     17  C   UNL     1       1.372  -2.695   1.389  0.00  0.00    +0.233 C 
ATOM     18  O   UNL     1       1.451  -1.911   2.311  0.00  0.00    -0.274 OA
ATOM     19  N   UNL     1       1.414  -4.021   1.627  0.00  0.00    -0.234 N 
ATOM     20  H   UNL     1       1.351  -4.648   0.889  0.00  0.00    +0.173 HD
BRANCH  17  21
ATOM     21  C   UNL     1       1.228  -2.186  -0.022  0.00  0.00    +0.135 C 
BRANCH  21  26
ATOM     22  C   UNL     1      -0.017   1.378   0.010  0.00  0.00    +0.000 A 
ATOM     23  C   UNL     1       1.171   2.087   0.002  0.00  0.00    +0.003 A 
ATOM     24  C   UNL     1       2.377   1.414  -0.013  0.00  0.00    +0.038 A 
ATOM     25  C   UNL     1       2.397   0.029  -0.021  0.00  0.00    +0.127 A 
ATOM     26  C   UNL     1       1.208  -0.679  -0.013  0.00  0.00    -0.003 A 
ATOM     27  C   UNL     1       0.002  -0.004   0.002  0.00  0.00    +0.007 A 
ATOM     28  F   UNL     1       3.577  -0.630  -0.036  0.00  0.00    -0.205 F 
ENDBRANCH  21  26
ENDBRANCH  17  21
ENDBRANCH   1  19
TORSDOF 5
