REMARK  Name = ZINC12661581
REMARK  9 active torsions:
REMARK  status: ('A' for Active; 'I' for Inactive)
REMARK    1  A    between atoms: C_1  and  C_2
REMARK    2  A    between atoms: C_5  and  O_43
REMARK    3  A    between atoms: C_17  and  C_42
REMARK    4  A    between atoms: C_22  and  C_23
REMARK    5  A    between atoms: C_23  and  C_25
REMARK    6  A    between atoms: C_25  and  C_26
REMARK    7  A    between atoms: C_33  and  O_34
REMARK    8  A    between atoms: O_34  and  C_35
REMARK    9  A    between atoms: C_41  and  N_82
REMARK                            x       y       z     vdW  Elec       q    Type
REMARK                         _______ _______ _______ _____ _____    ______ ____
ROOT
ATOM      1  C   UNL     1       2.208   2.829   2.305  0.00  0.00    +0.016 C 
ATOM      2  C   UNL     1       2.266   2.723   0.780  0.00  0.00    -0.008 C 
ATOM      3  C   UNL     1       3.679   3.100   0.327  0.00  0.00    +0.014 C 
ATOM      4  C   UNL     1       3.962   4.555   0.706  0.00  0.00    +0.032 C 
ATOM      5  C   UNL     1       2.993   5.479  -0.032  0.00  0.00    +0.119 C 
ATOM      6  C   UNL     1       1.560   5.186   0.424  0.00  0.00    +0.062 C 
ATOM      7  C   UNL     1       1.283   3.707   0.214  0.00  0.00    -0.065 C 
ATOM      8  C   UNL     1       0.213   3.368  -0.444  0.00  0.00    -0.027 C 
ATOM      9  C   UNL     1      -0.161   1.940  -0.722  0.00  0.00    +0.031 C 
ATOM     10  C   UNL     1       0.453   1.045   0.360  0.00  0.00    +0.001 C 
ATOM     11  C   UNL     1       1.959   1.288   0.389  0.00  0.00    +0.003 C 
ATOM     12  C   UNL     1       2.547   0.981  -0.971  0.00  0.00    +0.005 C 
ATOM     13  C   UNL     1       2.332  -0.503  -1.267  0.00  0.00    +0.012 C 
ATOM     14  C   UNL     1       0.868  -0.868  -1.242  0.00  0.00    -0.001 C 
ATOM     15  C   UNL     1       0.142  -0.419   0.042  0.00  0.00    +0.007 C 
ATOM     16  C   UNL     1      -1.333  -0.452  -0.470  0.00  0.00    +0.032 C 
ATOM     17  C   UNL     1      -1.206  -0.002  -1.915  0.00  0.00    -0.019 C 
ATOM     18  C   UNL     1       0.036  -0.235  -2.358  0.00  0.00    -0.003 C 
ATOM     19  C   UNL     1       0.755  -2.389  -1.358  0.00  0.00    +0.016 C 
ENDROOT
BRANCH  18  20
ATOM     20  C   UNL     1       0.526   0.070  -3.702  0.00  0.00    +0.158 C 
ATOM     21  O   UNL     1      -0.235   0.503  -4.541  0.00  0.00    -0.292 OA
BRANCH  20  22
ATOM     22  C   UNL     1       1.977  -0.153  -4.043  0.00  0.00    +0.069 C 
BRANCH  22  23
ATOM     23  C   UNL     1       2.194   0.099  -5.537  0.00  0.00    -0.027 C 
ATOM     24  C   UNL     1       1.699   1.478  -5.886  0.00  0.00    -0.012 A 
ATOM     25  C   UNL     1       0.973   1.722  -7.032  0.00  0.00    -0.040 A 
ATOM     26  C   UNL     1       0.540   3.008  -7.318  0.00  0.00    +0.053 A 
ATOM     27  C   UNL     1       0.829   4.055  -6.458  0.00  0.00    +0.170 A 
ATOM     28  C   UNL     1       1.559   3.813  -5.299  0.00  0.00    +0.208 A 
ATOM     29  C   UNL     1       1.992   2.525  -5.017  0.00  0.00    +0.167 A 
ATOM     30  O   UNL     1       1.711   4.990  -4.624  0.00  0.00    -0.449 OA
ATOM     31  C   UNL     1       1.420   6.023  -5.585  0.00  0.00    +0.467 C 
ATOM     32  O   UNL     1       0.523   5.384  -6.512  0.00  0.00    -0.452 OA
ATOM     33  C   UNL     1       0.628   0.619  -8.000  0.00  0.00    +0.017 C 
ATOM     34  C   UNL     1       1.520  -0.597  -7.744  0.00  0.00    -0.074 C 
ATOM     35  C   UNL     1       2.011  -2.258  -6.049  0.00  0.00    -0.095 C 
ATOM     36  N   UNL     1       1.448  -0.913  -6.303  0.00  0.00    +0.383 N 
ATOM     37  H   UNL     1       0.465  -0.901  -6.006  0.00  0.00    -0.081 HD
BRANCH  29  38
ATOM     38  O   UNL     1       2.705   2.284  -3.885  0.00  0.00    -0.491 OA
ATOM     39  C   UNL     1       4.127   2.393  -3.978  0.00  0.00    +0.277 C 
ENDBRANCH  29  38
ENDBRANCH  22  23
ENDBRANCH  20  22
ENDBRANCH  18  20
BRANCH   5  40
ATOM     40  O   UNL     1       3.316   6.840   0.259  0.00  0.00    -0.391 OA
ATOM     41  H   UNL     1       2.740   7.483  -0.177  0.00  0.00    +0.210 HD
ENDBRANCH   5  40
TORSDOF 5
