REMARK  Name = ZINC48798395
REMARK  3 active torsions:
REMARK  status: ('A' for Active; 'I' for Inactive)
REMARK    1  A    between atoms: C_9  and  C_12
REMARK    2  A    between atoms: C_14  and  C_17
REMARK    3  A    between atoms: C_17  and  C_18
REMARK                            x       y       z     vdW  Elec       q    Type
REMARK                         _______ _______ _______ _____ _____    ______ ____
ROOT
ATOM      1  C   UNL     1      -0.017   1.379   0.010  0.00  0.00    +0.002 A 
ATOM      2  C   UNL     1       1.170   2.087   0.002  0.00  0.00    +0.004 A 
ATOM      3  C   UNL     1       2.381   1.420  -0.012  0.00  0.00    +0.047 A 
ATOM      4  C   UNL     1       2.410   0.034  -0.018  0.00  0.00    +0.142 A 
ATOM      5  C   UNL     1       1.213  -0.678  -0.013  0.00  0.00    +0.070 A 
ATOM      6  C   UNL     1       0.002  -0.004   0.002  0.00  0.00    +0.026 A 
ATOM      7  N   UNL     1       1.237  -2.082  -0.028  0.00  0.00    -0.337 N 
ATOM      8  C   UNL     1       2.518  -2.747   0.265  0.00  0.00    +0.156 C 
ATOM      9  C   UNL     1       3.622  -1.974  -0.470  0.00  0.00    +0.278 C 
ATOM     10  O   UNL     1       3.605  -0.615  -0.027  0.00  0.00    -0.476 OA
ATOM     11  H   UNL     1       0.438  -2.595  -0.224  0.00  0.00    +0.146 HD
ENDROOT
BRANCH   9  12
ATOM     12  C   UNL     1       4.962  -2.591  -0.163  0.00  0.00    +0.270 A 
ATOM     13  N   UNL     1       5.665  -3.334  -0.972  0.00  0.00    -0.193 NA
ATOM     14  C   UNL     1       6.801  -3.713  -0.377  0.00  0.00    +0.180 A 
ATOM     15  N   UNL     1       6.835  -3.213   0.825  0.00  0.00    -0.061 NA
ATOM     16  O   UNL     1       5.638  -2.467   0.987  0.00  0.00    -0.334 OA
BRANCH  14  17
ATOM     17  C   UNL     1       7.868  -4.578  -0.996  0.00  0.00    +0.192 C 
BRANCH  17  18
ATOM     18  C   UNL     1       8.889  -3.693  -1.714  0.00  0.00    +0.397 C 
ATOM     19  F   UNL     1       9.475  -2.817  -0.795  0.00  0.00    -0.170 F 
ATOM     20  F   UNL     1       9.880  -4.497  -2.289  0.00  0.00    -0.170 F 
ATOM     21  F   UNL     1       8.246  -2.958  -2.715  0.00  0.00    -0.170 F 
ENDBRANCH  17  18
ENDBRANCH  14  17
ENDBRANCH   9  12
TORSDOF 3
