REMARK  Name = ZINC38603932
REMARK  8 active torsions:
REMARK  status: ('A' for Active; 'I' for Inactive)
REMARK    1  A    between atoms: C_1  and  C_2
REMARK    2  A    between atoms: C_5  and  C_29
REMARK    3  A    between atoms: N_8  and  C_10
REMARK    4  A    between atoms: C_10  and  C_11
REMARK    5  A    between atoms: N_13  and  C_14
REMARK    6  A    between atoms: C_22  and  C_24
REMARK    7  A    between atoms: C_24  and  O_26
REMARK    8  A    between atoms: O_26  and  C_27
REMARK                            x       y       z     vdW  Elec       q    Type
REMARK                         _______ _______ _______ _____ _____    ______ ____
ROOT
ATOM      1  C   UNL     1       4.342   0.540   4.669  0.00  0.00    +0.053 C 
ATOM      2  C   UNL     1       5.429   0.345   5.503  0.00  0.00    +0.019 A 
ATOM      3  C   UNL     1       5.598  -0.406   6.692  0.00  0.00    +0.026 A 
ATOM      4  C   UNL     1       6.802  -0.415   7.315  0.00  0.00    +0.019 A 
ATOM      5  C   UNL     1       7.893   0.302   6.814  0.00  0.00    +0.017 A 
ATOM      6  C   UNL     1       7.803   1.042   5.682  0.00  0.00    +0.027 A 
ATOM      7  C   UNL     1       6.575   1.102   4.972  0.00  0.00    +0.045 A 
ATOM      8  N   UNL     1       6.236   1.737   3.869  0.00  0.00    -0.367 N 
ATOM      9  C   UNL     1       4.830   1.452   3.565  0.00  0.00    +0.234 C 
ATOM     10 BR   UNL     1       7.012  -1.422   8.902  0.00  0.00    -0.050 Br
ATOM     11  H   UNL     1       6.823   2.300   3.340  0.00  0.00    +0.161 HD
ENDROOT
BRANCH   1  14
ATOM     12  C   UNL     1       2.218   0.073   3.785  0.00  0.00    +0.200 C 
ATOM     13  O   UNL     1       2.520   0.651   2.762  0.00  0.00    -0.278 OA
ATOM     14  N   UNL     1       3.093   0.015   4.809  0.00  0.00    -0.288 N 
ATOM     15  H   UNL     1       2.832  -0.401   5.646  0.00  0.00    +0.155 HD
BRANCH  12  16
ATOM     16  C   UNL     1       0.866  -0.581   3.910  0.00  0.00    +0.019 C 
BRANCH  16  22
ATOM     17  C   UNL     1       0.031   0.709  -0.020  0.00  0.00    +0.005 C 
ATOM     18  C   UNL     1       0.040  -0.796   0.256  0.00  0.00    -0.031 C 
ATOM     19  C   UNL     1      -1.400  -1.303   0.374  0.00  0.00    +0.003 C 
ATOM     20  C   UNL     1      -2.071  -0.628   1.574  0.00  0.00    -0.031 C 
ATOM     21  C   UNL     1      -1.251  -0.910   2.835  0.00  0.00    -0.075 C 
ATOM     22  N   UNL     1       0.107  -0.378   2.669  0.00  0.00    +0.386 N 
ATOM     23  C   UNL     1       0.783  -1.071   1.565  0.00  0.00    -0.075 C 
ATOM     24  C   UNL     1      -3.485  -1.185   1.749  0.00  0.00    +0.005 C 
ATOM     25  H   UNL     1       0.058   0.609   2.465  0.00  0.00    -0.081 HD
ENDBRANCH  16  22
ENDBRANCH  12  16
ENDBRANCH   1  14
BRANCH   9  26
ATOM     26  C   UNL     1       4.034   2.732   3.559  0.00  0.00    +0.335 C 
ATOM     27  O   UNL     1       4.497   3.734   4.051  0.00  0.00    -0.248 OA
BRANCH  26  28
ATOM     28  O   UNL     1       2.811   2.758   3.006  0.00  0.00    -0.466 OA
ATOM     29  C   UNL     1       2.113   4.005   3.035  0.00  0.00    +0.280 C 
ENDBRANCH  26  28
ENDBRANCH   9  26
TORSDOF 5
