REMARK  Name = ZINC64109111
REMARK  8 active torsions:
REMARK  status: ('A' for Active; 'I' for Inactive)
REMARK    1  A    between atoms: C_1  and  C_2
REMARK    2  A    between atoms: C_4  and  C_16
REMARK    3  A    between atoms: C_5  and  C_15
REMARK    4  A    between atoms: N_7  and  C_8
REMARK    5  A    between atoms: C_16  and  C_17
REMARK    6  A    between atoms: N_19  and  N_20
REMARK    7  A    between atoms: C_21  and  C_23
REMARK    8  A    between atoms: C_23  and  C_24
REMARK                            x       y       z     vdW  Elec       q    Type
REMARK                         _______ _______ _______ _____ _____    ______ ____
ROOT
ATOM      1  C   UNL     1      -0.651  -1.304  -3.083  0.00  0.00    +0.233 C 
ATOM      2  O   UNL     1      -1.029  -2.148  -2.299  0.00  0.00    -0.274 OA
ATOM      3  N   UNL     1      -1.138  -1.285  -4.340  0.00  0.00    -0.234 N 
ATOM      4  H   UNL     1      -0.835  -0.610  -4.967  0.00  0.00    +0.173 HD
ENDROOT
BRANCH   3   5
ATOM      5  N   UNL     1      -2.081  -2.241  -4.740  0.00  0.00    -0.234 N 
ATOM      6  C   UNL     1      -2.568  -2.222  -5.997  0.00  0.00    +0.233 C 
ATOM      7  O   UNL     1      -2.189  -1.378  -6.781  0.00  0.00    -0.274 OA
ATOM      8  H   UNL     1      -2.384  -2.916  -4.112  0.00  0.00    +0.173 HD
BRANCH   6   9
ATOM      9  C   UNL     1      -3.582  -3.250  -6.427  0.00  0.00    +0.130 C 
BRANCH   9  10
ATOM     10  C   UNL     1      -3.961  -3.011  -7.866  0.00  0.00    -0.033 C 
ATOM     11  C   UNL     1      -3.432  -3.611  -8.956  0.00  0.00    -0.001 A 
ATOM     12  C   UNL     1      -2.386  -4.627  -9.123  0.00  0.00    +0.010 A 
ATOM     13  C   UNL     1      -2.065  -5.040 -10.370  0.00  0.00    +0.001 A 
ATOM     14  C   UNL     1      -2.706  -4.524 -11.505  0.00  0.00    +0.002 A 
ATOM     15  C   UNL     1      -3.676  -3.588 -11.432  0.00  0.00    +0.026 A 
ATOM     16  C   UNL     1      -4.093  -3.082 -10.171  0.00  0.00    +0.043 A 
ATOM     17  N   UNL     1      -4.996  -2.189  -9.843  0.00  0.00    -0.380 N 
ATOM     18  C   UNL     1      -5.013  -2.055  -8.382  0.00  0.00    +0.145 C 
ATOM     19  H   UNL     1      -5.561  -1.702 -10.463  0.00  0.00    +0.160 HD
ENDBRANCH   9  10
ENDBRANCH   6   9
ENDBRANCH   3   5
BRANCH   1  20
ATOM     20  C   UNL     1       0.363  -0.276  -2.653  0.00  0.00    +0.131 C 
BRANCH  20  23
ATOM     21  C   UNL     1      -0.019   1.526   0.010  0.00  0.00    +0.034 C 
ATOM     22  C   UNL     1       0.002  -0.004   0.002  0.00  0.00    +0.119 C 
ATOM     23  C   UNL     1       0.742  -0.515  -1.214  0.00  0.00    -0.021 C 
ATOM     24  C   UNL     1       1.776  -1.208  -0.787  0.00  0.00    +0.020 C 
ATOM     25  N   UNL     1       1.841  -1.238   0.593  0.00  0.00    -0.268 N 
ATOM     26  N   UNL     1       0.773  -0.514   1.148  0.00  0.00    -0.244 N 
ATOM     27  C   UNL     1       2.770  -1.887  -1.693  0.00  0.00    +0.062 C 
ATOM     28  H   UNL     1       2.526  -1.695   1.106  0.00  0.00    +0.170 HD
BRANCH  26  29
ATOM     29  C   UNL     1       0.499  -0.317   2.505  0.00  0.00    +0.083 A 
ATOM     30  C   UNL     1      -0.741  -0.667   3.022  0.00  0.00    +0.027 A 
ATOM     31  C   UNL     1      -1.010  -0.471   4.363  0.00  0.00    +0.002 A 
ATOM     32  C   UNL     1      -0.045   0.073   5.191  0.00  0.00    +0.003 A 
ATOM     33  C   UNL     1       1.191   0.424   4.681  0.00  0.00    +0.040 A 
ATOM     34  C   UNL     1       1.469   0.226   3.341  0.00  0.00    +0.146 A 
ATOM     35  F   UNL     1       2.679   0.563   2.844  0.00  0.00    -0.203 F 
ENDBRANCH  26  29
ENDBRANCH  20  23
ENDBRANCH   1  20
TORSDOF 6
