REMARK  Name = ZINC29502137
REMARK  5 active torsions:
REMARK  status: ('A' for Active; 'I' for Inactive)
REMARK    1  A    between atoms: C_1  and  C_2
REMARK    2  A    between atoms: C_5  and  C_7
REMARK    3  A    between atoms: C_7  and  C_9
REMARK    4  A    between atoms: C_7  and  N_10
REMARK    5  A    between atoms: C_11  and  C_13
REMARK                            x       y       z     vdW  Elec       q    Type
REMARK                         _______ _______ _______ _____ _____    ______ ____
ROOT
ATOM      1  C   UNL     1       4.554  -3.690  -2.462  0.00  0.00    +0.102 A 
ATOM      2  C   UNL     1       5.198  -4.720  -3.135  0.00  0.00    +0.031 A 
ATOM      3  C   UNL     1       6.207  -4.398  -4.067  0.00  0.00    +0.037 A 
ATOM      4  C   UNL     1       6.547  -3.079  -4.314  0.00  0.00    +0.030 A 
ATOM      5  N   UNL     1       5.926  -2.078  -3.657  0.00  0.00    -0.325 N 
ATOM      6  H   UNL     1       6.185  -1.162  -3.841  0.00  0.00    +0.169 HD
ATOM      7  C   UNL     1       4.954  -2.313  -2.760  0.00  0.00    +0.261 A 
ATOM      8  O   UNL     1       4.410  -1.383  -2.192  0.00  0.00    -0.267 OA
ATOM      9  C   UNL     1       7.607  -2.716  -5.322  0.00  0.00    +0.054 C 
ATOM     10  C   UNL     1       8.576  -3.872  -5.550  0.00  0.00    +0.014 C 
ATOM     11  C   UNL     1       7.783  -5.125  -5.948  0.00  0.00    +0.080 C 
ATOM     12  C   UNL     1       6.901  -5.490  -4.773  0.00  0.00    +0.165 C 
ATOM     13  O   UNL     1       6.769  -6.644  -4.424  0.00  0.00    -0.292 OA
ENDROOT
BRANCH   1  15
ATOM     14  N   UNL     1       2.802  -2.961  -0.924  0.00  0.00    -0.302 N 
ATOM     15  C   UNL     1       3.494  -3.975  -1.482  0.00  0.00    +0.250 C 
ATOM     16  O   UNL     1       3.242  -5.125  -1.175  0.00  0.00    -0.270 OA
ATOM     17  H   UNL     1       3.051  -2.043  -1.113  0.00  0.00    +0.150 HD
BRANCH  14  18
ATOM     18  C   UNL     1       1.673  -3.247  -0.035  0.00  0.00    +0.136 C 
ATOM     19  C   UNL     1       2.191  -3.481   1.386  0.00  0.00    +0.036 C 
BRANCH  18  24
ATOM     20  C   UNL     1      -0.063   1.489  -0.044  0.00  0.00    +0.086 C 
ATOM     21  C   UNL     1      -0.032  -0.018  -0.041  0.00  0.00    +0.102 A 
ATOM     22  C   UNL     1      -1.106  -0.827  -0.038  0.00  0.00    +0.045 A 
ATOM     23  C   UNL     1      -0.620  -2.155  -0.036  0.00  0.00    +0.047 A 
ATOM     24  C   UNL     1       0.723  -2.077  -0.037  0.00  0.00    +0.125 A 
ATOM     25  O   UNL     1       1.074  -0.781  -0.046  0.00  0.00    -0.463 OA
ENDBRANCH  18  24
ENDBRANCH  14  18
ENDBRANCH   1  15
TORSDOF 3
