REMARK  Name = ZINC58492420
REMARK  5 active torsions:
REMARK  status: ('A' for Active; 'I' for Inactive)
REMARK    1  A    between atoms: C_1  and  C_2
REMARK    2  A    between atoms: C_5  and  N_8
REMARK    3  A    between atoms: C_12  and  C_13
REMARK    4  A    between atoms: C_23  and  S_24
REMARK    5  A    between atoms: S_24  and  C_25
REMARK                            x       y       z     vdW  Elec       q    Type
REMARK                         _______ _______ _______ _____ _____    ______ ____
ROOT
ATOM      1  N   UNL     1      -0.172  -4.177  -0.015  0.00  0.00    -0.214 N 
ATOM      2  C   UNL     1      -0.233  -4.968  -1.109  0.00  0.00    +0.275 C 
ATOM      3  O   UNL     1      -0.413  -4.620  -2.262  0.00  0.00    -0.268 OA
ATOM      4  C   UNL     1      -0.034  -6.342  -0.613  0.00  0.00    +0.129 C 
ATOM      5  C   UNL     1      -0.014  -7.498  -1.359  0.00  0.00    +0.041 C 
ATOM      6  N   UNL     1       0.127  -6.233   0.740  0.00  0.00    -0.220 NA
ATOM      7  C   UNL     1       0.052  -4.973   1.082  0.00  0.00    +0.169 C 
ENDROOT
BRANCH   5   8
ATOM      8  C   UNL     1      -0.031  -7.426  -2.823  0.00  0.00    -0.019 A 
ATOM      9  C   UNL     1       0.695  -6.427  -3.486  0.00  0.00    +0.012 A 
ATOM     10  C   UNL     1       0.677  -6.363  -4.861  0.00  0.00    +0.050 A 
ATOM     11  C   UNL     1      -0.058  -7.285  -5.596  0.00  0.00    +0.166 A 
ATOM     12  C   UNL     1      -0.784  -8.283  -4.943  0.00  0.00    +0.167 A 
ATOM     13  C   UNL     1      -0.768  -8.359  -3.565  0.00  0.00    +0.057 A 
ATOM     14  O   UNL     1      -1.412  -9.050  -5.882  0.00  0.00    -0.453 OA
ATOM     15  C   UNL     1      -1.395  -8.267  -7.090  0.00  0.00    +0.466 C 
ATOM     16  O   UNL     1      -0.233  -7.430  -6.941  0.00  0.00    -0.453 OA
ENDBRANCH   5   8
BRANCH   1  21
ATOM     17  C   UNL     1      -0.724   1.471   0.033  0.00  0.00    +0.044 C 
ATOM     18  C   UNL     1      -0.577  -0.029   0.020  0.00  0.00    -0.050 A 
ATOM     19  C   UNL     1       0.505  -0.611  -0.615  0.00  0.00    +0.005 A 
ATOM     20  C   UNL     1       0.642  -1.985  -0.628  0.00  0.00    +0.024 A 
ATOM     21  C   UNL     1      -0.308  -2.782  -0.003  0.00  0.00    +0.044 A 
ATOM     22  C   UNL     1      -1.393  -2.195   0.634  0.00  0.00    +0.024 A 
ATOM     23  C   UNL     1      -1.521  -0.820   0.649  0.00  0.00    +0.005 A 
ENDBRANCH   1  21
BRANCH   7  24
ATOM     24  S   UNL     1       0.211  -4.376   2.732  0.00  0.00    -0.077 S 
BRANCH  24  25
ATOM     25  C   UNL     1       0.489  -5.874   3.716  0.00  0.00    +0.140 C 
ATOM     26  C   UNL     1       0.533  -5.512   5.203  0.00  0.00    +0.024 C 
ATOM     27  C   UNL     1       1.171  -4.150   5.406  0.00  0.00    +0.003 C 
ATOM     28  C   UNL     1       2.645  -4.104   5.048  0.00  0.00    +0.019 C 
ATOM     29  C   UNL     1       2.848  -4.298   3.544  0.00  0.00    +0.104 C 
ATOM     30  N   UNL     1       2.914  -5.741   3.261  0.00  0.00    -0.314 N 
ATOM     31  C   UNL     1       1.814  -6.498   3.330  0.00  0.00    +0.226 C 
ATOM     32  O   UNL     1       1.876  -7.685   3.090  0.00  0.00    -0.275 OA
ATOM     33  H   UNL     1       3.762  -6.146   3.019  0.00  0.00    +0.149 HD
ENDBRANCH  24  25
ENDBRANCH   7  24
TORSDOF 4
