REMARK  Name = ZINC63557989
REMARK  9 active torsions:
REMARK  status: ('A' for Active; 'I' for Inactive)
REMARK    1  A    between atoms: C_1  and  O_2
REMARK    2  A    between atoms: O_2  and  C_3
REMARK    3  A    between atoms: C_9  and  C_12
REMARK    4  A    between atoms: C_12  and  C_13
REMARK    5  A    between atoms: C_13  and  N_14
REMARK    6  A    between atoms: C_16  and  C_21
REMARK    7  A    between atoms: N_23  and  C_24
REMARK    8  A    between atoms: C_28  and  C_31
REMARK    9  A    between atoms: C_31  and  C_32
REMARK                            x       y       z     vdW  Elec       q    Type
REMARK                         _______ _______ _______ _____ _____    ______ ____
ROOT
ATOM      1  N   UNL     1      -0.759  -6.798   1.434  0.00  0.00    -0.300 N 
ATOM      2  C   UNL     1      -1.183  -8.198   1.324  0.00  0.00    +0.121 C 
ATOM      3  C   UNL     1       0.086  -8.982   0.921  0.00  0.00    +0.101 C 
ATOM      4  C   UNL     1       1.207  -8.073   1.475  0.00  0.00    +0.110 C 
ATOM      5  C   UNL     1       0.579  -6.697   1.520  0.00  0.00    +0.216 C 
ATOM      6  O   UNL     1       1.192  -5.656   1.623  0.00  0.00    -0.276 OA
ENDROOT
BRANCH   3   7
ATOM      7  C   UNL     1       0.114 -10.337   1.581  0.00  0.00    +0.220 C 
ATOM      8  O   UNL     1      -0.790 -10.673   2.315  0.00  0.00    -0.275 OA
ATOM      9  N   UNL     1       1.145 -11.175   1.355  0.00  0.00    -0.290 N 
ATOM     10  H   UNL     1       1.869 -10.906   0.767  0.00  0.00    +0.151 HD
BRANCH   9  11
ATOM     11  C   UNL     1       1.173 -12.492   1.996  0.00  0.00    +0.216 C 
ATOM     12  N   UNL     1       2.499 -13.161   1.820  0.00  0.00    -0.227 NA
ATOM     13  N   UNL     1       2.408 -14.601   1.943  0.00  0.00    -0.241 NA
ATOM     14  C   UNL     1       1.138 -15.204   1.471  0.00  0.00    +0.134 C 
ATOM     15  S   UNL     1       0.123 -13.713   1.087  0.00  0.00    -0.101 S 
ATOM     16  H   UNL     1       3.181 -12.786   2.462  0.00  0.00    +0.143 HD
ATOM     17  H   UNL     1       2.622 -14.898   2.883  0.00  0.00    +0.142 HD
BRANCH  14  18
ATOM     18  C   UNL     1       1.369 -16.049   0.216  0.00  0.00    +0.066 C 
BRANCH  18  19
ATOM     19  C   UNL     1       0.060 -16.646  -0.235  0.00  0.00    -0.045 A 
ATOM     20  C   UNL     1      -0.340 -17.878   0.247  0.00  0.00    +0.004 A 
ATOM     21  C   UNL     1      -1.540 -18.426  -0.166  0.00  0.00    +0.000 A 
ATOM     22  C   UNL     1      -2.340 -17.740  -1.061  0.00  0.00    +0.000 A 
ATOM     23  C   UNL     1      -1.941 -16.508  -1.542  0.00  0.00    +0.000 A 
ATOM     24  C   UNL     1      -0.743 -15.958  -1.125  0.00  0.00    +0.004 A 
ENDBRANCH  18  19
ENDBRANCH  14  18
ENDBRANCH   9  11
ENDBRANCH   3   7
BRANCH   1  25
ATOM     25  C   UNL     1      -1.676  -5.655   1.443  0.00  0.00    +0.112 C 
BRANCH  25  26
ATOM     26  C   UNL     1      -1.908  -5.176   0.009  0.00  0.00    +0.052 C 
BRANCH  26  33
ATOM     27  C   UNL     1      -1.200  -0.637   0.010  0.00  0.00    +0.121 A 
ATOM     28  C   UNL     1      -2.375   0.135   0.020  0.00  0.00    +0.047 A 
ATOM     29  C   UNL     1      -3.607  -0.415   0.028  0.00  0.00    +0.029 A 
ATOM     30  C   UNL     1      -3.753  -1.875   0.027  0.00  0.00    +0.043 A 
ATOM     31  N   UNL     1      -4.809  -2.650   0.034  0.00  0.00    -0.380 N 
ATOM     32  C   UNL     1      -4.362  -4.047   0.029  0.00  0.00    +0.144 C 
ATOM     33  C   UNL     1      -2.851  -4.000   0.018  0.00  0.00    -0.040 C 
ATOM     34  C   UNL     1      -2.516  -2.690   0.016  0.00  0.00    +0.002 A 
ATOM     35  C   UNL     1      -1.226  -1.992   0.003  0.00  0.00    +0.055 A 
ATOM     36  H   UNL     1      -5.731  -2.350   0.042  0.00  0.00    +0.160 HD
BRANCH  27  38
ATOM     37  C   UNL     1      -0.017   1.425   0.010  0.00  0.00    +0.277 C 
ATOM     38  O   UNL     1       0.002  -0.004   0.002  0.00  0.00    -0.495 OA
ENDBRANCH  27  38
ENDBRANCH  26  33
ENDBRANCH  25  26
ENDBRANCH   1  25
TORSDOF 8
