REMARK  Name = ZINC12526626
REMARK  9 active torsions:
REMARK  status: ('A' for Active; 'I' for Inactive)
REMARK    1  A    between atoms: C_1  and  C_2
REMARK    2  A    between atoms: C_2  and  N_3
REMARK    3  A    between atoms: N_6  and  C_9
REMARK    4  A    between atoms: C_12  and  S_29
REMARK    5  A    between atoms: C_14  and  N_15
REMARK    6  A    between atoms: C_16  and  C_18
REMARK    7  A    between atoms: C_19  and  C_20
REMARK    8  A    between atoms: C_23  and  N_26
REMARK    9  A    between atoms: S_29  and  N_32
REMARK                            x       y       z     vdW  Elec       q    Type
REMARK                         _______ _______ _______ _____ _____    ______ ____
ROOT
ATOM      1  C   UNL     1      -4.348  -2.869  -1.667  0.00  0.00    +0.051 A 
ATOM      2  C   UNL     1      -3.796  -3.490  -2.778  0.00  0.00    +0.027 A 
ATOM      3  C   UNL     1      -4.566  -4.343  -3.547  0.00  0.00    +0.030 A 
ATOM      4  C   UNL     1      -5.887  -4.579  -3.213  0.00  0.00    +0.107 A 
ATOM      5  C   UNL     1      -6.446  -3.964  -2.108  0.00  0.00    +0.053 A 
ATOM      6  C   UNL     1      -5.679  -3.111  -1.328  0.00  0.00    +0.057 A 
ENDROOT
BRANCH   1  10
ATOM      7  N   UNL     1      -1.367  -0.534  -0.001  0.00  0.00    +0.382 N 
ATOM      8  C   UNL     1      -2.040  -0.143  -1.245  0.00  0.00    -0.060 C 
ATOM      9  C   UNL     1      -3.512  -0.566  -1.183  0.00  0.00    +0.086 C 
ATOM     10  N   UNL     1      -3.571  -2.006  -0.887  0.00  0.00    -0.332 N 
ATOM     11  C   UNL     1      -2.790  -2.512   0.251  0.00  0.00    +0.086 C 
ATOM     12  C   UNL     1      -1.353  -1.998   0.122  0.00  0.00    -0.060 C 
ATOM     13  H   UNL     1      -1.860  -0.137   0.785  0.00  0.00    -0.082 HD
BRANCH   7  15
ATOM     14  C   UNL     1       0.000   1.498  -0.016  0.00  0.00    -0.017 C 
ATOM     15  C   UNL     1       0.014  -0.033  -0.015  0.00  0.00    -0.082 C 
ENDBRANCH   7  15
ENDBRANCH   1  10
BRANCH   6  16
ATOM     16  N   UNL     1      -6.242  -2.491  -0.205  0.00  0.00    -0.280 N 
ATOM     17  C   UNL     1      -7.536  -2.115  -0.220  0.00  0.00    +0.241 C 
ATOM     18  O   UNL     1      -8.237  -2.387  -1.177  0.00  0.00    -0.270 OA
ATOM     19  H   UNL     1      -5.700  -2.333   0.584  0.00  0.00    +0.155 HD
BRANCH  17  20
ATOM     20  C   UNL     1      -8.098  -1.380   0.914  0.00  0.00    +0.068 C 
ATOM     21  C   UNL     1      -9.393  -1.004   0.899  0.00  0.00    +0.013 C 
BRANCH  21  22
ATOM     22  C   UNL     1      -9.958  -0.265   2.039  0.00  0.00    -0.025 A 
ATOM     23  C   UNL     1      -9.154   0.054   3.138  0.00  0.00    +0.010 A 
ATOM     24  C   UNL     1      -9.690   0.747   4.203  0.00  0.00    +0.033 A 
ATOM     25  C   UNL     1     -11.021   1.127   4.186  0.00  0.00    +0.126 A 
ATOM     26  C   UNL     1     -11.823   0.815   3.102  0.00  0.00    +0.033 A 
ATOM     27  C   UNL     1     -11.300   0.127   2.027  0.00  0.00    +0.010 A 
BRANCH  25  28
ATOM     28  N   UNL     1     -11.589   1.870   5.333  0.00  0.00    +0.056 N 
ATOM     29  O   UNL     1     -10.892   2.144   6.281  0.00  0.00    -0.126 OA
ATOM     30  O   UNL     1     -12.752   2.204   5.321  0.00  0.00    -0.126 OA
ENDBRANCH  25  28
ENDBRANCH  21  22
ENDBRANCH  17  20
ENDBRANCH   6  16
BRANCH   4  31
ATOM     31  S   UNL     1      -6.861  -5.667  -4.199  0.00  0.00    +0.061 S 
ATOM     32  O   UNL     1      -8.217  -5.296  -3.994  0.00  0.00    -0.153 OA
ATOM     33  O   UNL     1      -6.264  -5.690  -5.488  0.00  0.00    -0.153 OA
BRANCH  31  34
ATOM     34  N   UNL     1      -6.685  -7.188  -3.569  0.00  0.00    -0.177 NA
ATOM     35  C   UNL     1      -5.611  -8.074  -4.038  0.00  0.00    +0.109 C 
ATOM     36  C   UNL     1      -4.807  -8.559  -2.828  0.00  0.00    +0.017 C 
ATOM     37  C   UNL     1      -5.757  -9.205  -1.816  0.00  0.00    +0.003 C 
ATOM     38  C   UNL     1      -6.775  -8.168  -1.336  0.00  0.00    +0.017 C 
ATOM     39  C   UNL     1      -7.597  -7.676  -2.525  0.00  0.00    +0.109 C 
ENDBRANCH  31  34
ENDBRANCH   4  31
TORSDOF 8
