REMARK  Name = ZINC08922991
REMARK  7 active torsions:
REMARK  status: ('A' for Active; 'I' for Inactive)
REMARK    1  A    between atoms: C_1  and  C_2
REMARK    2  A    between atoms: C_5  and  C_9
REMARK    3  A    between atoms: C_6  and  C_8
REMARK    4  A    between atoms: C_9  and  C_10
REMARK    5  A    between atoms: C_16  and  C_18
REMARK    6  A    between atoms: N_24  and  S_25
REMARK    7  A    between atoms: S_25  and  C_28
REMARK                            x       y       z     vdW  Elec       q    Type
REMARK                         _______ _______ _______ _____ _____    ______ ____
ROOT
ATOM      1  C   UNL     1      -2.263  -1.067   1.460  0.00  0.00    +0.223 A 
ATOM      2  N   UNL     1      -2.742  -0.300   2.396  0.00  0.00    -0.111 NA
ATOM      3  N   UNL     1      -2.732  -0.931   3.517  0.00  0.00    -0.092 NA
ATOM      4  C   UNL     1      -2.234  -2.129   3.335  0.00  0.00    +0.314 A 
ATOM      5  O   UNL     1      -1.926  -2.240   2.030  0.00  0.00    -0.409 OA
ATOM      6  N   UNL     1      -2.057  -3.102   4.307  0.00  0.00    -0.237 N 
ATOM      7  C   UNL     1      -2.412  -2.853   5.583  0.00  0.00    +0.239 C 
ATOM      8  O   UNL     1      -2.886  -1.777   5.881  0.00  0.00    -0.274 OA
ATOM      9  H   UNL     1      -1.677  -3.962   4.069  0.00  0.00    +0.159 HD
ENDROOT
BRANCH   7  10
ATOM     10  C   UNL     1      -2.219  -3.910   6.640  0.00  0.00    +0.166 C 
ATOM     11  C   UNL     1      -3.580  -4.319   7.211  0.00  0.00    +0.030 C 
ATOM     12  C   UNL     1      -3.369  -5.286   8.379  0.00  0.00    +0.003 C 
ATOM     13  C   UNL     1      -2.567  -4.592   9.482  0.00  0.00    +0.017 C 
ATOM     14  C   UNL     1      -1.195  -4.188   8.935  0.00  0.00    +0.110 C 
ATOM     15  N   UNL     1      -1.389  -3.374   7.727  0.00  0.00    -0.164 NA
BRANCH  15  16
ATOM     16  S   UNL     1      -0.685  -1.881   7.594  0.00  0.00    +0.068 S 
ATOM     17  O   UNL     1       0.452  -1.891   8.447  0.00  0.00    -0.152 OA
ATOM     18  O   UNL     1      -0.593  -1.597   6.205  0.00  0.00    -0.152 OA
BRANCH  16  19
ATOM     19  C   UNL     1      -1.814  -0.711   8.274  0.00  0.00    +0.144 A 
ATOM     20  C   UNL     1      -1.922  -0.272   9.551  0.00  0.00    +0.038 A 
ATOM     21  C   UNL     1      -2.891   0.664   9.859  0.00  0.00    +0.030 A 
ATOM     22  C   UNL     1      -3.712   1.108   8.874  0.00  0.00    +0.080 A 
ATOM     23  S   UNL     1      -3.116   0.198   7.459  0.00  0.00    -0.057 S 
ATOM     24 CL   UNL     1      -5.007   2.261   8.967  0.00  0.00    -0.076 Cl
ENDBRANCH  16  19
ENDBRANCH  15  16
ENDBRANCH   7  10
BRANCH   1  25
ATOM     25  C   UNL     1      -2.107  -0.706   0.005  0.00  0.00    +0.133 C 
BRANCH  25  30
ATOM     26  C   UNL     1       3.087   1.680  -0.842  0.00  0.00    +0.044 C 
ATOM     27  C   UNL     1       1.733   1.058  -0.621  0.00  0.00    -0.050 A 
ATOM     28  C   UNL     1       0.630   1.862  -0.401  0.00  0.00    +0.003 A 
ATOM     29  C   UNL     1      -0.612   1.292  -0.200  0.00  0.00    +0.004 A 
ATOM     30  C   UNL     1      -0.752  -0.084  -0.215  0.00  0.00    -0.036 A 
ATOM     31  C   UNL     1       0.350  -0.888  -0.433  0.00  0.00    -0.047 A 
ATOM     32  C   UNL     1       1.593  -0.317  -0.636  0.00  0.00    +0.007 A 
ATOM     33  C   UNL     1       0.198  -2.387  -0.450  0.00  0.00    +0.044 C 
ENDBRANCH  25  30
ENDBRANCH   1  25
TORSDOF 5
