REMARK  Name = ZINC04308914
REMARK  6 active torsions:
REMARK  status: ('A' for Active; 'I' for Inactive)
REMARK    1  A    between atoms: C_1  and  C_2
REMARK    2  A    between atoms: C_7  and  N_12
REMARK    3  A    between atoms: C_9  and  C_11
REMARK    4  A    between atoms: C_13  and  C_15
REMARK    5  A    between atoms: C_15  and  N_16
REMARK    6  A    between atoms: C_24  and  C_26
REMARK                            x       y       z     vdW  Elec       q    Type
REMARK                         _______ _______ _______ _____ _____    ______ ____
ROOT
ATOM      1  N   UNL     1      -2.174   0.286  -2.437  0.00  0.00    -0.215 N 
ATOM      2  C   UNL     1      -2.139   0.999  -1.293  0.00  0.00    +0.247 C 
ATOM      3  O   UNL     1      -3.033   1.138  -0.486  0.00  0.00    -0.273 OA
ATOM      4  C   UNL     1      -0.749   1.590  -1.228  0.00  0.00    +0.115 C 
ATOM      5  C   UNL     1      -0.013   1.086   0.008  0.00  0.00    +0.035 C 
ATOM      6  C   UNL     1      -0.728   1.579   1.268  0.00  0.00    +0.003 C 
ATOM      7  C   UNL     1      -0.766   3.109   1.266  0.00  0.00    +0.000 C 
ATOM      8  C   UNL     1      -1.529   3.599   0.034  0.00  0.00    +0.006 C 
ATOM      9  C   UNL     1      -0.818   3.114  -1.232  0.00  0.00    +0.018 C 
ATOM     10  C   UNL     1      -1.591   3.586  -2.464  0.00  0.00    +0.010 C 
ATOM     11  N   UNL     1      -0.097   1.102  -2.450  0.00  0.00    -0.285 N 
ATOM     12  C   UNL     1      -1.008   0.347  -3.093  0.00  0.00    +0.310 C 
ATOM     13  O   UNL     1      -0.796  -0.215  -4.149  0.00  0.00    -0.252 OA
ATOM     14  H   UNL     1       0.811   1.287  -2.737  0.00  0.00    +0.151 HD
ENDROOT
BRANCH   1  15
ATOM     15  C   UNL     1      -3.343  -0.464  -2.904  0.00  0.00    +0.213 C 
BRANCH  15  17
ATOM     16  N   UNL     1      -4.266  -2.746  -2.663  0.00  0.00    -0.311 N 
ATOM     17  C   UNL     1      -3.288  -1.869  -2.362  0.00  0.00    +0.231 C 
ATOM     18  O   UNL     1      -2.364  -2.210  -1.655  0.00  0.00    -0.274 OA
ATOM     19  H   UNL     1      -5.005  -2.473  -3.228  0.00  0.00    +0.149 HD
BRANCH  16  25
ATOM     20  C   UNL     1      -5.744  -7.403  -3.421  0.00  0.00    +0.008 C 
ATOM     21  C   UNL     1      -4.951  -6.470  -2.503  0.00  0.00    -0.009 C 
ATOM     22  C   UNL     1      -5.558  -6.499  -1.099  0.00  0.00    +0.003 C 
ATOM     23  C   UNL     1      -4.765  -5.567  -0.181  0.00  0.00    +0.002 C 
ATOM     24  C   UNL     1      -4.820  -4.140  -0.731  0.00  0.00    +0.022 C 
ATOM     25  C   UNL     1      -4.213  -4.112  -2.135  0.00  0.00    +0.076 C 
ATOM     26  C   UNL     1      -5.006  -5.044  -3.053  0.00  0.00    +0.009 C 
ATOM     27  C   UNL     1      -6.462  -4.579  -3.118  0.00  0.00    +0.009 C 
ENDBRANCH  16  25
ENDBRANCH  15  17
ENDBRANCH   1  15
TORSDOF 3
