REMARK  Name = ZINC12279561
REMARK  6 active torsions:
REMARK  status: ('A' for Active; 'I' for Inactive)
REMARK    1  A    between atoms: C_8  and  C_10
REMARK    2  A    between atoms: C_10  and  N_11
REMARK    3  A    between atoms: C_12  and  C_14
REMARK    4  A    between atoms: C_18  and  C_23
REMARK    5  A    between atoms: C_23  and  O_33
REMARK    6  A    between atoms: C_28  and  N_63
REMARK                            x       y       z     vdW  Elec       q    Type
REMARK                         _______ _______ _______ _____ _____    ______ ____
ROOT
ATOM      1  C   UNL     1      -3.052   5.427  -8.955  0.00  0.00    +0.190 A 
ATOM      2  C   UNL     1      -1.844   5.227  -8.368  0.00  0.00    +0.063 A 
ATOM      3  C   UNL     1      -2.127   4.769  -7.008  0.00  0.00    +0.021 A 
ATOM      4  C   UNL     1      -1.332   4.406  -5.918  0.00  0.00    +0.018 A 
ATOM      5  C   UNL     1      -1.922   4.010  -4.751  0.00  0.00    -0.015 A 
ATOM      6  C   UNL     1      -3.305   3.975  -4.639  0.00  0.00    +0.010 A 
ATOM      7  C   UNL     1      -4.107   4.334  -5.701  0.00  0.00    +0.047 A 
ATOM      8  C   UNL     1      -3.529   4.736  -6.900  0.00  0.00    +0.136 A 
ATOM      9  O   UNL     1      -4.038   5.135  -8.082  0.00  0.00    -0.450 OA
ENDROOT
BRANCH   5  10
ATOM     10  C   UNL     1      -1.066   3.614  -3.576  0.00  0.00    +0.088 C 
ATOM     11  C   UNL     1      -1.802   3.939  -2.274  0.00  0.00    +0.021 C 
ATOM     12  C   UNL     1      -0.954   3.480  -1.085  0.00  0.00    -0.075 C 
ATOM     13  C   UNL     1       0.035   1.704  -2.404  0.00  0.00    -0.075 C 
ATOM     14  C   UNL     1      -0.783   2.110  -3.631  0.00  0.00    +0.021 C 
ATOM     15  N   UNL     1      -0.739   2.021  -1.185  0.00  0.00    +0.382 N 
ATOM     16  H   UNL     1      -1.651   1.552  -1.238  0.00  0.00    -0.081 HD
BRANCH  15  17
ATOM     17  C   UNL     1      -0.019   1.534   0.011  0.00  0.00    -0.069 C 
ATOM     18  C   UNL     1       0.237   0.019  -0.123  0.00  0.00    -0.015 C 
ATOM     19  C   UNL     1       0.031  -0.529   1.311  0.00  0.00    -0.002 C 
ATOM     20  C   UNL     1      -1.160   0.315   1.831  0.00  0.00    -0.002 C 
ATOM     21  C   UNL     1      -0.907   1.723   1.253  0.00  0.00    -0.015 C 
ENDBRANCH  15  17
BRANCH  10  22
ATOM     22  O   UNL     1       0.168   4.333  -3.620  0.00  0.00    -0.384 OA
ATOM     23  H   UNL     1       0.688   4.174  -4.419  0.00  0.00    +0.211 HD
ENDBRANCH  10  22
ENDBRANCH   5  10
BRANCH   1  25
ATOM     24  N   UNL     1      -4.504   6.056 -10.814  0.00  0.00    -0.303 N 
ATOM     25  C   UNL     1      -3.255   5.892 -10.335  0.00  0.00    +0.280 C 
ATOM     26  O   UNL     1      -2.295   6.128 -11.044  0.00  0.00    -0.267 OA
ATOM     27  H   UNL     1      -5.269   5.868 -10.248  0.00  0.00    +0.150 HD
BRANCH  24  28
ATOM     28  C   UNL     1      -4.706   6.519 -12.189  0.00  0.00    +0.167 C 
BRANCH  28  36
ATOM     29  C   UNL     1     -10.555   8.383 -12.826  0.00  0.00    +0.002 A 
ATOM     30  C   UNL     1     -10.965   7.155 -13.326  0.00  0.00    +0.001 A 
ATOM     31  C   UNL     1     -10.041   6.137 -13.469  0.00  0.00    +0.017 A 
ATOM     32  C   UNL     1      -8.733   6.360 -13.112  0.00  0.00    +0.039 A 
ATOM     33  C   UNL     1      -8.287   7.599 -12.599  0.00  0.00    +0.079 A 
ATOM     34  C   UNL     1      -9.262   8.613 -12.469  0.00  0.00    +0.029 A 
ATOM     35  N   UNL     1      -6.972   7.641 -12.301  0.00  0.00    -0.242 NA
ATOM     36  C   UNL     1      -6.182   6.618 -12.474  0.00  0.00    +0.097 A 
ATOM     37  S   UNL     1      -7.239   5.401 -13.119  0.00  0.00    -0.071 S 
ENDBRANCH  28  36
ENDBRANCH  24  28
ENDBRANCH   1  25
TORSDOF 6
