REMARK  Name = ZINC37558371
REMARK  3 active torsions:
REMARK  status: ('A' for Active; 'I' for Inactive)
REMARK    1  A    between atoms: C_2  and  C_3
REMARK    2  A    between atoms: C_3  and  N_4
REMARK    3  A    between atoms: N_13  and  C_16
REMARK                            x       y       z     vdW  Elec       q    Type
REMARK                         _______ _______ _______ _____ _____    ______ ____
ROOT
ATOM      1  N   UNL     1       0.785  -1.527   1.508  0.00  0.00    -0.255 N 
ATOM      2  C   UNL     1       1.827  -1.254   2.321  0.00  0.00    +0.283 A 
ATOM      3  O   UNL     1       2.204  -0.106   2.473  0.00  0.00    -0.265 OA
ATOM      4  C   UNL     1       2.473  -2.313   2.993  0.00  0.00    +0.149 A 
ATOM      5  C   UNL     1       2.021  -3.613   2.801  0.00  0.00    +0.172 A 
ATOM      6  N   UNL     1       2.793  -4.413   3.541  0.00  0.00    -0.218 NA
ATOM      7  C   UNL     1       3.689  -3.703   4.176  0.00  0.00    +0.199 A 
ATOM      8  N   UNL     1       3.534  -2.399   3.872  0.00  0.00    -0.339 N 
ATOM      9  H   UNL     1       4.068  -1.661   4.206  0.00  0.00    +0.167 HD
ATOM     10  N   UNL     1       0.946  -3.828   1.953  0.00  0.00    -0.245 N 
ATOM     11  C   UNL     1       0.354  -2.788   1.335  0.00  0.00    +0.338 A 
ATOM     12  O   UNL     1      -0.590  -2.996   0.598  0.00  0.00    -0.246 OA
ENDROOT
BRANCH  10  13
ATOM     13  C   UNL     1       0.471  -5.129   1.742  0.00  0.00    +0.056 A 
ATOM     14  C   UNL     1       0.991  -5.901   0.711  0.00  0.00    +0.026 A 
ATOM     15  C   UNL     1       0.521  -7.183   0.505  0.00  0.00    +0.005 A 
ATOM     16  C   UNL     1      -0.466  -7.700   1.324  0.00  0.00    +0.038 A 
ATOM     17  C   UNL     1      -0.987  -6.934   2.353  0.00  0.00    +0.125 A 
ATOM     18  C   UNL     1      -0.516  -5.651   2.567  0.00  0.00    +0.064 A 
ATOM     19  F   UNL     1      -1.952  -7.441   3.151  0.00  0.00    -0.205 F 
ENDBRANCH  10  13
BRANCH   1  20
ATOM     20  C   UNL     1       0.110  -0.432   0.807  0.00  0.00    +0.156 C 
BRANCH  20  22
ATOM     21  C   UNL     1      -1.061   1.371   1.965  0.00  0.00    +0.005 C 
ATOM     22  C   UNL     1      -1.011   0.097   1.664  0.00  0.00    -0.013 C 
ENDBRANCH  20  22
ENDBRANCH   1  20
TORSDOF 3
