REMARK  Name = ZINC63187656
REMARK  8 active torsions:
REMARK  status: ('A' for Active; 'I' for Inactive)
REMARK    1  A    between atoms: C_1  and  C_2
REMARK    2  A    between atoms: C_5  and  C_15
REMARK    3  A    between atoms: C_6  and  C_14
REMARK    4  A    between atoms: N_7  and  C_8
REMARK    5  A    between atoms: C_15  and  C_17
REMARK    6  A    between atoms: C_17  and  N_18
REMARK    7  A    between atoms: C_21  and  C_26
REMARK    8  A    between atoms: C_26  and  C_27
REMARK                            x       y       z     vdW  Elec       q    Type
REMARK                         _______ _______ _______ _____ _____    ______ ____
ROOT
ATOM      1  N   UNL     1      -4.668  -3.288   1.399  0.00  0.00    -0.217 N 
ATOM      2  C   UNL     1      -4.808  -4.509   0.847  0.00  0.00    +0.244 C 
ATOM      3  O   UNL     1      -4.234  -4.942  -0.130  0.00  0.00    -0.273 OA
ATOM      4  C   UNL     1      -5.831  -5.230   1.702  0.00  0.00    +0.165 C 
ATOM      5  N   UNL     1      -6.182  -4.238   2.733  0.00  0.00    -0.287 N 
ATOM      6  C   UNL     1      -5.449  -3.140   2.475  0.00  0.00    +0.310 C 
ATOM      7  O   UNL     1      -5.493  -2.126   3.143  0.00  0.00    -0.252 OA
ATOM      8  H   UNL     1      -6.816  -4.355   3.458  0.00  0.00    +0.151 HD
ENDROOT
BRANCH   1   9
ATOM      9  C   UNL     1      -3.767  -2.252   0.887  0.00  0.00    +0.197 C 
BRANCH   9  10
ATOM     10  C   UNL     1      -2.416  -2.395   1.537  0.00  0.00    +0.178 C 
ATOM     11  O   UNL     1      -2.223  -3.278   2.350  0.00  0.00    -0.291 OA
BRANCH  10  15
ATOM     12  C   UNL     1      -0.176   1.699   0.562  0.00  0.00    +0.029 C 
ATOM     13  C   UNL     1      -0.047   0.218   0.203  0.00  0.00    +0.080 C 
ATOM     14  C   UNL     1      -1.437  -0.443   0.134  0.00  0.00    +0.062 C 
ATOM     15  C   UNL     1      -1.380  -1.511   1.205  0.00  0.00    +0.015 C 
ATOM     16  C   UNL     1      -0.163  -1.465   1.785  0.00  0.00    +0.015 C 
ATOM     17  N   UNL     1       0.652  -0.511   1.270  0.00  0.00    -0.300 N 
ATOM     18  C   UNL     1       0.253  -2.389   2.901  0.00  0.00    +0.061 C 
BRANCH  17  19
ATOM     19  C   UNL     1       1.960  -0.257   1.690  0.00  0.00    +0.034 A 
ATOM     20  C   UNL     1       2.196   0.264   2.956  0.00  0.00    +0.023 A 
ATOM     21  C   UNL     1       3.491   0.513   3.368  0.00  0.00    +0.002 A 
ATOM     22  C   UNL     1       4.551   0.244   2.523  0.00  0.00    +0.000 A 
ATOM     23  C   UNL     1       4.320  -0.275   1.262  0.00  0.00    +0.002 A 
ATOM     24  C   UNL     1       3.029  -0.531   0.845  0.00  0.00    +0.023 A 
ENDBRANCH  17  19
ENDBRANCH  10  15
ENDBRANCH   9  10
ENDBRANCH   1   9
BRANCH   4  25
ATOM     25  C   UNL     1      -7.060  -5.604   0.870  0.00  0.00    +0.065 C 
BRANCH  25  26
ATOM     26  C   UNL     1      -8.004  -6.425   1.710  0.00  0.00    -0.039 C 
ATOM     27  C   UNL     1      -9.070  -5.974   2.410  0.00  0.00    -0.001 A 
ATOM     28  C   UNL     1      -9.646  -4.637   2.593  0.00  0.00    +0.010 A 
ATOM     29  C   UNL     1     -10.743  -4.496   3.372  0.00  0.00    +0.001 A 
ATOM     30  C   UNL     1     -11.341  -5.592   4.008  0.00  0.00    +0.002 A 
ATOM     31  C   UNL     1     -10.870  -6.851   3.888  0.00  0.00    +0.026 A 
ATOM     32  C   UNL     1      -9.721  -7.116   3.092  0.00  0.00    +0.043 A 
ATOM     33  N   UNL     1      -9.082  -8.229   2.824  0.00  0.00    -0.380 N 
ATOM     34  C   UNL     1      -7.956  -7.920   1.935  0.00  0.00    +0.144 C 
ATOM     35  H   UNL     1      -9.317  -9.110   3.154  0.00  0.00    +0.160 HD
ENDBRANCH  25  26
ENDBRANCH   4  25
TORSDOF 6
