REMARK  Name = ZINC44873653
REMARK  10 active torsions:
REMARK  status: ('A' for Active; 'I' for Inactive)
REMARK    1  A    between atoms: C_1  and  C_2
REMARK    2  A    between atoms: C_5  and  S_8
REMARK    3  A    between atoms: S_8  and  N_11
REMARK    4  A    between atoms: N_11  and  C_12
REMARK    5  A    between atoms: N_11  and  C_30
REMARK    6  A    between atoms: C_12  and  C_13
REMARK    7  A    between atoms: N_15  and  C_16
REMARK    8  A    between atoms: C_16  and  C_17
REMARK    9  A    between atoms: C_20  and  C_23
REMARK   10  A    between atoms: C_23  and  N_24
REMARK                            x       y       z     vdW  Elec       q    Type
REMARK                         _______ _______ _______ _____ _____    ______ ____
ROOT
ATOM      1  C   UNL     1       2.315  -5.311   1.234  0.00  0.00    +0.227 C 
ENDROOT
BRANCH   1   2
ATOM      2  C   UNL     1       2.043  -6.746   1.604  0.00  0.00    +0.232 C 
ATOM      3  O   UNL     1       1.361  -7.440   0.880  0.00  0.00    -0.274 OA
ATOM      4  N   UNL     1       2.557  -7.258   2.740  0.00  0.00    -0.310 N 
ATOM      5  H   UNL     1       3.102  -6.702   3.319  0.00  0.00    +0.149 HD
BRANCH   4   6
ATOM      6  C   UNL     1       2.292  -8.653   3.100  0.00  0.00    +0.139 C 
BRANCH   6   7
ATOM      7  C   UNL     1       2.975  -8.973   4.405  0.00  0.00    -0.030 A 
ATOM      8  C   UNL     1       4.271  -9.455   4.407  0.00  0.00    +0.005 A 
ATOM      9  C   UNL     1       4.898  -9.748   5.603  0.00  0.00    +0.002 A 
ATOM     10  C   UNL     1       4.229  -9.560   6.798  0.00  0.00    -0.064 A 
ATOM     11  C   UNL     1       2.934  -9.078   6.797  0.00  0.00    +0.002 A 
ATOM     12  C   UNL     1       2.308  -8.780   5.600  0.00  0.00    +0.005 A 
BRANCH  10  13
ATOM     13  C   UNL     1       4.912  -9.882   8.103  0.00  0.00    -0.043 C 
BRANCH  13  14
ATOM     14  N   UNL     1       5.617  -8.690   8.593  0.00  0.00    +0.382 N 
ATOM     15  C   UNL     1       6.693  -8.340   7.657  0.00  0.00    -0.078 C 
ATOM     16  C   UNL     1       7.378  -7.053   8.120  0.00  0.00    -0.019 C 
ATOM     17  C   UNL     1       7.965  -7.268   9.519  0.00  0.00    -0.004 C 
ATOM     18  C   UNL     1       6.846  -7.704  10.469  0.00  0.00    -0.019 C 
ATOM     19  C   UNL     1       6.181  -8.967   9.919  0.00  0.00    -0.078 C 
ATOM     20  H   UNL     1       4.968  -7.920   8.659  0.00  0.00    -0.081 HD
ENDBRANCH  13  14
ENDBRANCH  10  13
ENDBRANCH   6   7
ENDBRANCH   4   6
ENDBRANCH   1   2
BRANCH   1  21
ATOM     21  N   UNL     1       1.651  -4.999  -0.034  0.00  0.00    -0.194 N 
BRANCH  21  22
ATOM     22  C   UNL     1       2.284  -5.292  -1.245  0.00  0.00    +0.052 A 
ATOM     23  C   UNL     1       3.515  -4.721  -1.542  0.00  0.00    +0.026 A 
ATOM     24  C   UNL     1       4.139  -5.013  -2.739  0.00  0.00    +0.022 A 
ATOM     25  C   UNL     1       3.539  -5.872  -3.643  0.00  0.00    +0.041 A 
ATOM     26  C   UNL     1       2.313  -6.442  -3.349  0.00  0.00    +0.022 A 
ATOM     27  C   UNL     1       1.687  -6.159  -2.151  0.00  0.00    +0.026 A 
ATOM     28 CL   UNL     1       4.326  -6.235  -5.147  0.00  0.00    -0.084 Cl
ENDBRANCH  21  22
BRANCH  21  29
ATOM     29  S   UNL     1       0.149  -4.301  -0.033  0.00  0.00    +0.075 S 
ATOM     30  O   UNL     1      -0.501  -4.738   1.153  0.00  0.00    -0.150 OA
ATOM     31  O   UNL     1      -0.399  -4.515  -1.326  0.00  0.00    -0.150 OA
BRANCH  29  36
ATOM     32  C   UNL     1       0.949   1.653   0.535  0.00  0.00    +0.044 C 
ATOM     33  C   UNL     1       0.749   0.166   0.393  0.00  0.00    -0.050 A 
ATOM     34  C   UNL     1       0.708  -0.409  -0.863  0.00  0.00    +0.005 A 
ATOM     35  C   UNL     1       0.525  -1.773  -0.993  0.00  0.00    +0.029 A 
ATOM     36  C   UNL     1       0.384  -2.562   0.133  0.00  0.00    +0.109 A 
ATOM     37  C   UNL     1       0.426  -1.988   1.389  0.00  0.00    +0.029 A 
ATOM     38  C   UNL     1       0.614  -0.624   1.520  0.00  0.00    +0.005 A 
ENDBRANCH  29  36
ENDBRANCH  21  29
ENDBRANCH   1  21
TORSDOF 9
