REMARK  Name = ZINC39695783
REMARK  7 active torsions:
REMARK  status: ('A' for Active; 'I' for Inactive)
REMARK    1  A    between atoms: C_1  and  C_2
REMARK    2  A    between atoms: C_9  and  C_11
REMARK    3  A    between atoms: C_11  and  C_13
REMARK    4  A    between atoms: C_11  and  N_14
REMARK    5  A    between atoms: C_15  and  C_17
REMARK    6  A    between atoms: C_28  and  C_30
REMARK    7  A    between atoms: C_34  and  C_36
REMARK                            x       y       z     vdW  Elec       q    Type
REMARK                         _______ _______ _______ _____ _____    ______ ____
ROOT
ATOM      1  C   UNL     1      -2.013  -8.388   1.337  0.00  0.00    +0.100 C 
ATOM      2  C   UNL     1      -3.155  -8.020   0.364  0.00  0.00    +0.121 C 
ATOM      3  N   UNL     1      -4.019  -9.224   0.327  0.00  0.00    -0.296 N 
ATOM      4  C   UNL     1      -4.040  -9.705   1.730  0.00  0.00    +0.115 C 
ATOM      5  C   UNL     1      -2.598  -9.494   2.232  0.00  0.00    -0.004 C 
ATOM      6  C   UNL     1      -1.792 -10.780   2.079  0.00  0.00    -0.010 C 
ATOM      7  C   UNL     1      -2.357 -11.847   3.020  0.00  0.00    -0.082 C 
ATOM      8  N   UNL     1      -2.289 -11.365   4.405  0.00  0.00    +0.379 N 
ATOM      9  C   UNL     1      -3.141 -10.181   4.566  0.00  0.00    -0.082 C 
ATOM     10  C   UNL     1      -2.609  -9.044   3.690  0.00  0.00    -0.010 C 
ATOM     11  C   UNL     1      -4.644  -9.761  -0.739  0.00  0.00    +0.247 C 
ATOM     12  O   UNL     1      -4.440  -9.313  -1.851  0.00  0.00    -0.270 OA
ATOM     13  H   UNL     1      -2.605 -12.093   5.029  0.00  0.00    -0.086 HD
ATOM     14  H   UNL     1      -1.335 -11.125   4.630  0.00  0.00    -0.086 HD
ENDROOT
BRANCH  11  15
ATOM     15  C   UNL     1      -5.575 -10.892  -0.558  0.00  0.00    +0.037 A 
ATOM     16  C   UNL     1      -6.162 -11.123   0.689  0.00  0.00    +0.016 A 
ATOM     17  C   UNL     1      -7.031 -12.181   0.853  0.00  0.00    +0.039 A 
ATOM     18  C   UNL     1      -7.323 -13.014  -0.217  0.00  0.00    +0.126 A 
ATOM     19  C   UNL     1      -6.743 -12.789  -1.456  0.00  0.00    -0.015 A 
ATOM     20  C   UNL     1      -5.877 -11.731  -1.632  0.00  0.00    +0.019 A 
ATOM     21  C   UNL     1      -7.064 -13.700  -2.613  0.00  0.00    +0.047 C 
ATOM     22  F   UNL     1      -8.175 -14.050  -0.050  0.00  0.00    -0.205 F 
ENDBRANCH  11  15
BRANCH   1  24
ATOM     23  N   UNL     1      -0.365  -7.073   2.631  0.00  0.00    -0.305 N 
ATOM     24  C   UNL     1      -1.625  -7.192   2.167  0.00  0.00    +0.219 C 
ATOM     25  O   UNL     1      -2.446  -6.335   2.418  0.00  0.00    -0.275 OA
ATOM     26  H   UNL     1       0.292  -7.758   2.431  0.00  0.00    +0.149 HD
BRANCH  23  27
ATOM     27  C   UNL     1       0.012  -5.910   3.438  0.00  0.00    +0.136 C 
ATOM     28  C   UNL     1      -0.347  -6.167   4.903  0.00  0.00    +0.036 C 
BRANCH  27  37
ATOM     29  C   UNL     1       7.042  -3.485   3.151  0.00  0.00    +0.044 C 
ATOM     30  C   UNL     1       5.829  -4.378   3.099  0.00  0.00    -0.048 A 
ATOM     31  C   UNL     1       5.977  -5.724   2.794  0.00  0.00    +0.005 A 
ATOM     32  C   UNL     1       4.890  -6.550   2.742  0.00  0.00    +0.030 A 
ATOM     33  C   UNL     1       3.615  -6.039   2.997  0.00  0.00    +0.089 A 
ATOM     34  C   UNL     1       3.465  -4.677   3.306  0.00  0.00    +0.067 A 
ATOM     35  C   UNL     1       4.581  -3.853   3.360  0.00  0.00    +0.031 A 
ATOM     36  N   UNL     1       2.113  -4.477   3.504  0.00  0.00    -0.340 N 
ATOM     37  C   UNL     1       1.496  -5.675   3.318  0.00  0.00    +0.128 A 
ATOM     38  N   UNL     1       2.373  -6.589   3.022  0.00  0.00    -0.231 NA
ATOM     39  H   UNL     1       1.683  -3.639   3.733  0.00  0.00    +0.167 HD
ENDBRANCH  27  37
ENDBRANCH  23  27
ENDBRANCH   1  24
TORSDOF 4
