REMARK  Name = ZINC60538150
REMARK  5 active torsions:
REMARK  status: ('A' for Active; 'I' for Inactive)
REMARK    1  A    between atoms: C_3  and  N_4
REMARK    2  A    between atoms: C_6  and  C_10
REMARK    3  A    between atoms: N_12  and  N_13
REMARK    4  A    between atoms: C_14  and  C_16
REMARK    5  A    between atoms: C_16  and  C_17
REMARK                            x       y       z     vdW  Elec       q    Type
REMARK                         _______ _______ _______ _____ _____    ______ ____
ROOT
ATOM      1  N   UNL     1      -2.914  -4.716  -4.861  0.00  0.00    -0.234 N 
ATOM      2  C   UNL     1      -3.215  -5.012  -6.140  0.00  0.00    +0.230 C 
ATOM      3  O   UNL     1      -3.153  -4.152  -6.993  0.00  0.00    -0.274 OA
ATOM      4  H   UNL     1      -2.963  -5.404  -4.179  0.00  0.00    +0.173 HD
ENDROOT
BRANCH   1   7
ATOM      5  C   UNL     1      -2.229  -3.117  -3.235  0.00  0.00    +0.234 C 
ATOM      6  O   UNL     1      -2.291  -3.977  -2.383  0.00  0.00    -0.274 OA
ATOM      7  N   UNL     1      -2.530  -3.413  -4.515  0.00  0.00    -0.234 N 
ATOM      8  H   UNL     1      -2.481  -2.725  -5.197  0.00  0.00    +0.173 HD
BRANCH   5  11
ATOM      9  N   UNL     1      -0.391  -0.679  -1.237  0.00  0.00    -0.298 N 
ATOM     10  C   UNL     1      -1.521  -1.609  -1.351  0.00  0.00    +0.121 C 
ATOM     11  C   UNL     1      -1.816  -1.716  -2.864  0.00  0.00    +0.102 C 
ATOM     12  C   UNL     1      -0.442  -1.363  -3.479  0.00  0.00    +0.110 C 
ATOM     13  C   UNL     1       0.233  -0.522  -2.417  0.00  0.00    +0.217 C 
ATOM     14  O   UNL     1       1.198   0.189  -2.604  0.00  0.00    -0.276 OA
BRANCH   9  17
ATOM     15  C   UNL     1      -0.019   1.526   0.010  0.00  0.00    +0.024 C 
ATOM     16  C   UNL     1       1.317   0.779  -0.006  0.00  0.00    +0.024 C 
ATOM     17  C   UNL     1       0.002  -0.004   0.002  0.00  0.00    +0.076 C 
ENDBRANCH   9  17
ENDBRANCH   5  11
ENDBRANCH   1   7
BRANCH   2  18
ATOM     18  C   UNL     1      -3.628  -6.413  -6.512  0.00  0.00    +0.104 C 
BRANCH  18  19
ATOM     19  C   UNL     1      -3.911  -6.480  -8.014  0.00  0.00    -0.020 C 
ATOM     20  C   UNL     1      -5.038  -5.506  -8.364  0.00  0.00    +0.011 C 
ATOM     21  C   UNL     1      -5.322  -5.573  -9.866  0.00  0.00    -0.010 C 
ATOM     22  C   UNL     1      -5.741  -6.995 -10.243  0.00  0.00    +0.007 C 
ATOM     23  C   UNL     1      -4.614  -7.969  -9.893  0.00  0.00    -0.010 C 
ATOM     24  C   UNL     1      -4.331  -7.902  -8.391  0.00  0.00    +0.011 C 
ATOM     25  C   UNL     1      -3.351  -7.587 -10.668  0.00  0.00    +0.007 C 
ATOM     26  C   UNL     1      -2.932  -6.165 -10.291  0.00  0.00    -0.010 C 
ATOM     27  C   UNL     1      -4.059  -5.191 -10.641  0.00  0.00    +0.007 C 
ATOM     28  C   UNL     1      -2.648  -6.098  -8.789  0.00  0.00    +0.011 C 
ENDBRANCH  18  19
ENDBRANCH   2  18
TORSDOF 5
