REMARK  Name = ZINC08915328
REMARK  6 active torsions:
REMARK  status: ('A' for Active; 'I' for Inactive)
REMARK    1  A    between atoms: C_5  and  C_7
REMARK    2  A    between atoms: C_10  and  C_12
REMARK    3  A    between atoms: C_14  and  C_26
REMARK    4  A    between atoms: C_16  and  C_21
REMARK    5  A    between atoms: C_16  and  O_25
REMARK    6  A    between atoms: C_26  and  C_28
REMARK                            x       y       z     vdW  Elec       q    Type
REMARK                         _______ _______ _______ _____ _____    ______ ____
ROOT
ATOM      1  C   UNL     1       2.516  -5.412  -1.393  0.00  0.00    +0.156 C 
ATOM      2  C   UNL     1       3.843  -5.560  -0.641  0.00  0.00    +0.147 C 
ATOM      3  C   UNL     1       4.623  -6.728  -1.254  0.00  0.00    +0.243 C 
ATOM      4  N   UNL     1       4.782  -6.499  -2.691  0.00  0.00    -0.264 N 
ATOM      5  C   UNL     1       3.878  -5.795  -3.389  0.00  0.00    +0.302 C 
ATOM      6  O   UNL     1       4.052  -5.643  -4.582  0.00  0.00    -0.253 OA
ATOM      7  N   UNL     1       2.788  -5.255  -2.822  0.00  0.00    -0.289 N 
ATOM      8  H   UNL     1       5.556  -6.862  -3.147  0.00  0.00    +0.153 HD
ATOM      9  H   UNL     1       2.168  -4.749  -3.371  0.00  0.00    +0.151 HD
ENDROOT
BRANCH   1  13
ATOM     10  C   UNL     1       0.397  -2.942   0.268  0.00  0.00    +0.137 A 
ATOM     11  C   UNL     1       1.081  -2.119  -0.571  0.00  0.00    +0.050 A 
ATOM     12  C   UNL     1       1.966  -2.934  -1.305  0.00  0.00    +0.047 A 
ATOM     13  C   UNL     1       1.781  -4.199  -0.883  0.00  0.00    +0.127 A 
ATOM     14  O   UNL     1       0.836  -4.200   0.071  0.00  0.00    -0.458 OA
BRANCH  10  19
ATOM     15  C   UNL     1      -1.336  -1.169   3.088  0.00  0.00    +0.001 A 
ATOM     16  C   UNL     1      -2.591  -1.750   3.042  0.00  0.00    +0.001 A 
ATOM     17  C   UNL     1      -2.877  -2.718   2.096  0.00  0.00    +0.021 A 
ATOM     18  C   UNL     1      -1.911  -3.111   1.191  0.00  0.00    +0.052 A 
ATOM     19  C   UNL     1      -0.643  -2.527   1.233  0.00  0.00    +0.036 A 
ATOM     20  C   UNL     1      -0.361  -1.551   2.190  0.00  0.00    +0.013 A 
ATOM     21 CL   UNL     1      -2.272  -4.326   0.005  0.00  0.00    -0.083 Cl
ENDBRANCH  10  19
ENDBRANCH   1  13
BRANCH   3  22
ATOM     22  C   UNL     1       6.002  -6.824  -0.596  0.00  0.00    +0.436 C 
ATOM     23  F   UNL     1       5.849  -7.035   0.778  0.00  0.00    -0.166 F 
ATOM     24  F   UNL     1       6.713  -7.890  -1.156  0.00  0.00    -0.166 F 
ATOM     25  F   UNL     1       6.703  -5.632  -0.809  0.00  0.00    -0.166 F 
ENDBRANCH   3  22
BRANCH   3  26
ATOM     26  O   UNL     1       3.906  -7.946  -1.040  0.00  0.00    -0.364 OA
ATOM     27  H   UNL     1       4.343  -8.728  -1.403  0.00  0.00    +0.212 HD
ENDBRANCH   3  26
BRANCH   2  28
ATOM     28  C   UNL     1       4.643  -4.289  -0.770  0.00  0.00    +0.173 C 
ATOM     29  O   UNL     1       5.249  -4.056  -1.794  0.00  0.00    -0.292 OA
BRANCH  28  30
ATOM     30  C   UNL     1       4.688  -3.332   0.345  0.00  0.00    +0.018 A 
ATOM     31  C   UNL     1       3.934  -3.563   1.501  0.00  0.00    +0.013 A 
ATOM     32  C   UNL     1       3.981  -2.662   2.542  0.00  0.00    +0.020 A 
ATOM     33  C   UNL     1       4.773  -1.529   2.447  0.00  0.00    +0.041 A 
ATOM     34  C   UNL     1       5.523  -1.293   1.306  0.00  0.00    +0.020 A 
ATOM     35  C   UNL     1       5.490  -2.189   0.259  0.00  0.00    +0.013 A 
ATOM     36 CL   UNL     1       4.826  -0.399   3.764  0.00  0.00    -0.084 Cl
ENDBRANCH  28  30
ENDBRANCH   2  28
TORSDOF 6
