REMARK  Name = ZINC41599408
REMARK  4 active torsions:
REMARK  status: ('A' for Active; 'I' for Inactive)
REMARK    1  A    between atoms: C_1  and  C_2
REMARK    2  A    between atoms: C_2  and  C_4
REMARK    3  A    between atoms: C_2  and  N_12
REMARK    4  A    between atoms: C_4  and  C_6
REMARK                            x       y       z     vdW  Elec       q    Type
REMARK                         _______ _______ _______ _____ _____    ______ ____
ROOT
ATOM      1  N   UNL     1       0.713  -0.491   1.192  0.00  0.00    +0.386 N 
ATOM      2  C   UNL     1       2.086   0.028   1.186  0.00  0.00    -0.075 C 
ATOM      3  C   UNL     1       2.801  -0.401   2.470  0.00  0.00    +0.017 C 
ATOM      4  C   UNL     1       2.810  -1.924   2.558  0.00  0.00    +0.111 C 
ATOM      5  C   UNL     1       1.389  -2.471   2.467  0.00  0.00    +0.017 C 
ATOM      6  C   UNL     1       0.732  -1.958   1.182  0.00  0.00    -0.075 C 
ATOM      7  C   UNL     1       3.473  -2.378   3.837  0.00  0.00    +0.264 C 
ATOM      8  O   UNL     1       3.077  -2.110   5.092  0.00  0.00    -0.271 OA
ATOM      9  N   UNL     1       4.510  -3.085   3.472  0.00  0.00    -0.126 NA
ATOM     10  C   UNL     1       4.633  -3.166   2.140  0.00  0.00    +0.327 C 
ATOM     11  O   UNL     1       5.524  -3.773   1.575  0.00  0.00    -0.251 OA
ATOM     12  N   UNL     1       3.653  -2.497   1.500  0.00  0.00    -0.284 N 
ATOM     13  H   UNL     1       3.530  -2.411   0.541  0.00  0.00    +0.151 HD
ATOM     14  H   UNL     1       0.238  -0.167   2.022  0.00  0.00    -0.081 HD
ENDROOT
BRANCH   1  16
ATOM     15  C   UNL     1      -0.019   1.526   0.010  0.00  0.00    -0.005 C 
ATOM     16  C   UNL     1       0.002  -0.004   0.002  0.00  0.00    +0.001 C 
BRANCH  16  17
ATOM     17  C   UNL     1      -1.412  -0.526   0.013  0.00  0.00    +0.150 C 
ATOM     18  O   UNL     1      -1.907  -0.912   1.050  0.00  0.00    -0.294 OA
BRANCH  17  19
ATOM     19  C   UNL     1      -2.191  -0.566  -1.235  0.00  0.00    +0.016 A 
ATOM     20  C   UNL     1      -1.620  -0.127  -2.434  0.00  0.00    +0.011 A 
ATOM     21  C   UNL     1      -2.357  -0.168  -3.599  0.00  0.00    +0.001 A 
ATOM     22  C   UNL     1      -3.656  -0.643  -3.584  0.00  0.00    +0.000 A 
ATOM     23  C   UNL     1      -4.228  -1.079  -2.402  0.00  0.00    +0.001 A 
ATOM     24  C   UNL     1      -3.503  -1.049  -1.230  0.00  0.00    +0.011 A 
ENDBRANCH  17  19
ENDBRANCH  16  17
ENDBRANCH   1  16
TORSDOF 3
