REMARK  Name = ZINC34757516
REMARK  7 active torsions:
REMARK  status: ('A' for Active; 'I' for Inactive)
REMARK    1  A    between atoms: C_1  and  C_2
REMARK    2  A    between atoms: C_2  and  C_3
REMARK    3  A    between atoms: C_3  and  N_4
REMARK    4  A    between atoms: C_17  and  S_19
REMARK    5  A    between atoms: S_19  and  C_20
REMARK    6  A    between atoms: C_20  and  C_21
REMARK    7  A    between atoms: C_24  and  N_27
REMARK                            x       y       z     vdW  Elec       q    Type
REMARK                         _______ _______ _______ _____ _____    ______ ____
ROOT
ATOM      1  N   UNL     1      -0.175  -2.737  -0.129  0.00  0.00    +0.382 N 
ATOM      2  C   UNL     1       0.009  -4.166  -0.408  0.00  0.00    -0.060 C 
ATOM      3  C   UNL     1      -1.352  -4.870  -0.382  0.00  0.00    +0.088 C 
ATOM      4  N   UNL     1      -2.001  -4.582   0.906  0.00  0.00    -0.318 N 
ATOM      5  C   UNL     1      -2.083  -3.179   1.343  0.00  0.00    +0.088 C 
ATOM      6  C   UNL     1      -0.688  -2.555   1.235  0.00  0.00    -0.060 C 
ATOM      7  C   UNL     1      -2.521  -5.600   1.685  0.00  0.00    +0.134 A 
ATOM      8  C   UNL     1      -3.845  -6.072   1.464  0.00  0.00    +0.051 A 
ATOM      9  C   UNL     1      -4.823  -5.614   0.463  0.00  0.00    -0.025 A 
ATOM     10  C   UNL     1      -6.018  -6.225   0.457  0.00  0.00    -0.004 A 
ATOM     11  S   UNL     1      -5.925  -7.434   1.758  0.00  0.00    -0.073 S 
ATOM     12  C   UNL     1      -4.272  -7.110   2.311  0.00  0.00    +0.115 A 
ATOM     13  N   UNL     1      -3.486  -7.606   3.247  0.00  0.00    -0.215 NA
ATOM     14  C   UNL     1      -2.259  -7.128   3.410  0.00  0.00    +0.191 A 
ATOM     15  N   UNL     1      -1.792  -6.152   2.640  0.00  0.00    -0.206 NA
ATOM     16  C   UNL     1      -6.935  -5.673  -0.601  0.00  0.00    +0.043 C 
ATOM     17  C   UNL     1      -6.303  -4.319  -0.993  0.00  0.00    +0.010 C 
ATOM     18  C   UNL     1      -4.820  -4.553  -0.642  0.00  0.00    +0.037 C 
ATOM     19  H   UNL     1      -0.834  -2.350  -0.789  0.00  0.00    -0.082 HD
ENDROOT
BRANCH   1  20
ATOM     20  C   UNL     1       1.113  -2.044  -0.263  0.00  0.00    -0.079 C 
BRANCH  20  22
ATOM     21  C   UNL     1       2.930  -1.404  -1.854  0.00  0.00    +0.002 C 
ATOM     22  C   UNL     1       1.588  -2.126  -1.715  0.00  0.00    -0.022 C 
ENDBRANCH  20  22
ENDBRANCH   1  20
BRANCH  14  23
ATOM     23  S   UNL     1      -1.228  -7.806   4.667  0.00  0.00    -0.081 S 
BRANCH  23  24
ATOM     24  C   UNL     1      -2.259  -9.083   5.440  0.00  0.00    +0.112 C 
BRANCH  24  25
ATOM     25  C   UNL     1      -1.486  -9.750   6.548  0.00  0.00    -0.037 A 
ATOM     26  C   UNL     1      -0.709 -10.861   6.277  0.00  0.00    +0.007 A 
ATOM     27  C   UNL     1       0.000 -11.473   7.293  0.00  0.00    +0.033 A 
ATOM     28  C   UNL     1      -0.068 -10.974   8.581  0.00  0.00    +0.126 A 
ATOM     29  C   UNL     1      -0.844  -9.863   8.852  0.00  0.00    +0.033 A 
ATOM     30  C   UNL     1      -1.549  -9.248   7.834  0.00  0.00    +0.007 A 
BRANCH  28  31
ATOM     31  N   UNL     1       0.691 -11.630   9.669  0.00  0.00    +0.056 N 
ATOM     32  O   UNL     1       1.369 -12.603   9.433  0.00  0.00    -0.126 OA
ATOM     33  O   UNL     1       0.632 -11.194  10.795  0.00  0.00    -0.126 OA
ENDBRANCH  28  31
ENDBRANCH  24  25
ENDBRANCH  23  24
ENDBRANCH  14  23
TORSDOF 6
