REMARK  Name = ZINC34039359
REMARK  9 active torsions:
REMARK  status: ('A' for Active; 'I' for Inactive)
REMARK    1  A    between atoms: C_5  and  C_7
REMARK    2  A    between atoms: C_7  and  N_8
REMARK    3  A    between atoms: N_8  and  C_9
REMARK    4  A    between atoms: C_9  and  C_10
REMARK    5  A    between atoms: C_13  and  C_16
REMARK    6  A    between atoms: C_16  and  N_17
REMARK    7  A    between atoms: N_17  and  C_18
REMARK    8  A    between atoms: N_17  and  C_24
REMARK    9  A    between atoms: C_18  and  C_19
REMARK                            x       y       z     vdW  Elec       q    Type
REMARK                         _______ _______ _______ _____ _____    ______ ____
ROOT
ATOM      1  N   UNL     1      -1.153  10.529  -6.942  0.00  0.00    -0.283 NA
ENDROOT
BRANCH   1   2
ATOM      2  C   UNL     1      -1.365  10.980  -8.324  0.00  0.00    +0.104 C 
ATOM      3  C   UNL     1      -0.438  10.204  -9.256  0.00  0.00    +0.025 C 
ATOM      4  C   UNL     1      -0.820  10.533 -10.704  0.00  0.00    +0.007 C 
ATOM      5  C   UNL     1      -2.177   9.896 -10.999  0.00  0.00    +0.037 C 
ATOM      6  C   UNL     1      -3.175  10.262  -9.934  0.00  0.00    -0.027 A 
ATOM      7  C   UNL     1      -2.807  10.756  -8.704  0.00  0.00    +0.037 A 
ATOM      8  N   UNL     1      -3.733  11.055  -7.802  0.00  0.00    -0.363 N 
ATOM      9  C   UNL     1      -5.018  10.902  -8.034  0.00  0.00    +0.083 A 
ATOM     10  C   UNL     1      -5.460  10.414  -9.249  0.00  0.00    +0.018 A 
ATOM     11  C   UNL     1      -4.526  10.088 -10.218  0.00  0.00    +0.007 A 
ATOM     12  H   UNL     1      -3.436  11.447  -6.818  0.00  0.00    +0.165 HD
ENDBRANCH   1   2
BRANCH   1  13
ATOM     13  C   UNL     1      -1.255   9.066  -6.845  0.00  0.00    +0.120 C 
BRANCH  13  17
ATOM     14  C   UNL     1      -1.583   7.932  -2.739  0.00  0.00    -0.064 A 
ATOM     15  C   UNL     1      -0.337   8.042  -3.329  0.00  0.00    +0.002 A 
ATOM     16  C   UNL     1      -0.231   8.405  -4.659  0.00  0.00    +0.005 A 
ATOM     17  C   UNL     1      -1.371   8.666  -5.396  0.00  0.00    -0.033 A 
ATOM     18  C   UNL     1      -2.616   8.562  -4.806  0.00  0.00    +0.005 A 
ATOM     19  C   UNL     1      -2.722   8.195  -3.477  0.00  0.00    +0.002 A 
BRANCH  14  20
ATOM     20  C   UNL     1      -1.698   7.533  -1.291  0.00  0.00    -0.046 C 
BRANCH  20  21
ATOM     21  N   UNL     1      -1.802   6.071  -1.193  0.00  0.00    +0.385 N 
ATOM     22  H   UNL     1      -0.902   5.623  -1.641  0.00  0.00    -0.085 HD
ATOM     23  H   UNL     1      -2.691   5.742  -1.750  0.00  0.00    -0.085 HD
BRANCH  21  24
ATOM     24  C   UNL     1      -1.916   5.644   0.208  0.00  0.00    -0.026 C 
BRANCH  24  29
ATOM     25  C   UNL     1      -0.987   2.005   0.527  0.00  0.00    +0.003 A 
ATOM     26  C   UNL     1      -2.241   1.433   0.373  0.00  0.00    +0.020 A 
ATOM     27  C   UNL     1      -3.334   2.252   0.165  0.00  0.00    +0.111 A 
ATOM     28  N   UNL     1      -3.196   3.563   0.125  0.00  0.00    -0.262 NA
ATOM     29  C   UNL     1      -2.020   4.141   0.268  0.00  0.00    +0.024 A 
ATOM     30  C   UNL     1      -0.881   3.386   0.473  0.00  0.00    +0.021 A 
ENDBRANCH  24  29
ENDBRANCH  21  24
ENDBRANCH  20  21
ENDBRANCH  14  20
ENDBRANCH  13  17
ENDBRANCH   1  13
BRANCH   1  31
ATOM     31  C   UNL     1       0.139  11.001  -6.427  0.00  0.00    +0.159 C 
BRANCH  31  32
ATOM     32  C   UNL     1       0.069  12.486  -6.180  0.00  0.00    +0.121 A 
ATOM     33  N   UNL     1      -0.245  13.075  -5.006  0.00  0.00    -0.239 NA
ATOM     34  C   UNL     1      -0.195  14.428  -5.207  0.00  0.00    +0.130 A 
ATOM     35  C   UNL     1       0.147  14.620  -6.495  0.00  0.00    +0.104 A 
ATOM     36  N   UNL     1       0.307  13.416  -7.065  0.00  0.00    -0.347 N 
ATOM     37  H   UNL     1       0.588  13.139  -8.091  0.00  0.00    +0.167 HD
ENDBRANCH  31  32
ENDBRANCH   1  31
TORSDOF 9
