REMARK  Name = ZINC20566570
REMARK  6 active torsions:
REMARK  status: ('A' for Active; 'I' for Inactive)
REMARK    1  A    between atoms: C_1  and  C_2
REMARK    2  A    between atoms: C_4  and  S_10
REMARK    3  A    between atoms: C_6  and  N_9
REMARK    4  A    between atoms: C_7  and  C_8
REMARK    5  A    between atoms: S_10  and  N_13
REMARK    6  A    between atoms: C_18  and  C_20
REMARK                            x       y       z     vdW  Elec       q    Type
REMARK                         _______ _______ _______ _____ _____    ______ ____
ROOT
ATOM      1  C   UNL     1       4.514  -2.818  -3.205  0.00  0.00    +0.044 C 
ATOM      2  C   UNL     1       4.822  -1.700  -2.242  0.00  0.00    -0.044 A 
ATOM      3  C   UNL     1       4.168  -1.638  -1.024  0.00  0.00    +0.032 A 
ATOM      4  C   UNL     1       4.444  -0.612  -0.140  0.00  0.00    +0.107 A 
ATOM      5  C   UNL     1       5.382   0.349  -0.465  0.00  0.00    +0.051 A 
ATOM      6  C   UNL     1       6.044   0.286  -1.684  0.00  0.00    +0.030 A 
ATOM      7  C   UNL     1       5.761  -0.744  -2.573  0.00  0.00    -0.027 A 
ATOM      8  C   UNL     1       6.477  -0.816  -3.897  0.00  0.00    +0.046 C 
ENDROOT
BRANCH   6   9
ATOM      9  N   UNL     1       6.994   1.255  -2.016  0.00  0.00    -0.358 N 
ATOM     10  H   UNL     1       7.518   1.204  -2.982  0.00  0.00    +0.142 HD
ATOM     11  H   UNL     1       7.218   2.070  -1.311  0.00  0.00    +0.142 HD
ENDBRANCH   6   9
BRANCH   4  12
ATOM     12  S   UNL     1       3.603  -0.533   1.406  0.00  0.00    +0.061 S 
ATOM     13  O   UNL     1       4.352   0.349   2.231  0.00  0.00    -0.153 OA
ATOM     14  O   UNL     1       3.321  -1.873   1.784  0.00  0.00    -0.153 OA
BRANCH  12  15
ATOM     15  N   UNL     1       2.143   0.200   1.133  0.00  0.00    -0.174 NA
ATOM     16  C   UNL     1       0.923  -0.601   0.969  0.00  0.00    +0.110 C 
ATOM     17  C   UNL     1      -0.134  -0.097   1.957  0.00  0.00    +0.017 C 
ATOM     18  C   UNL     1      -0.338   1.406   1.758  0.00  0.00    +0.003 C 
ATOM     19  C   UNL     1       0.975   2.142   2.037  0.00  0.00    +0.020 C 
ATOM     20  C   UNL     1       2.044   1.663   1.050  0.00  0.00    +0.077 C 
ATOM     21  C   UNL     1       3.392   2.293   1.409  0.00  0.00    +0.026 C 
ENDBRANCH  12  15
ENDBRANCH   4  12
TORSDOF 3
