REMARK  Name = ZINC47263757
REMARK  7 active torsions:
REMARK  status: ('A' for Active; 'I' for Inactive)
REMARK    1  A    between atoms: C_1  and  C_2
REMARK    2  A    between atoms: C_5  and  N_9
REMARK    3  A    between atoms: C_6  and  C_8
REMARK    4  A    between atoms: C_10  and  C_12
REMARK    5  A    between atoms: C_12  and  C_14
REMARK    6  A    between atoms: C_12  and  N_15
REMARK    7  A    between atoms: C_19  and  C_22
REMARK                            x       y       z     vdW  Elec       q    Type
REMARK                         _______ _______ _______ _____ _____    ______ ____
ROOT
ATOM      1  N   UNL     1      -0.112  -6.835  -2.571  0.00  0.00    +0.388 N 
ATOM      2  C   UNL     1      -0.091  -8.302  -2.567  0.00  0.00    -0.078 C 
ATOM      3  C   UNL     1      -0.149  -8.821  -4.005  0.00  0.00    -0.018 C 
ATOM      4  C   UNL     1       1.061  -8.294  -4.782  0.00  0.00    +0.009 C 
ATOM      5  C   UNL     1       1.070  -6.764  -4.716  0.00  0.00    +0.059 C 
ATOM      6  C   UNL     1       1.083  -6.322  -3.252  0.00  0.00    -0.065 C 
ATOM      7  H   UNL     1      -0.937  -6.513  -3.055  0.00  0.00    -0.081 HD
ENDROOT
BRANCH   5   8
ATOM      8  C   UNL     1       2.299  -6.238  -5.413  0.00  0.00    +0.220 C 
ATOM      9  O   UNL     1       3.105  -5.571  -4.800  0.00  0.00    -0.275 OA
ATOM     10  N   UNL     1       2.502  -6.509  -6.718  0.00  0.00    -0.265 N 
ATOM     11  C   UNL     1       3.635  -6.024  -7.360  0.00  0.00    +0.164 A 
ATOM     12  N   UNL     1       4.610  -5.297  -6.860  0.00  0.00    -0.233 NA
ATOM     13  C   UNL     1       5.627  -4.912  -7.608  0.00  0.00    +0.120 A 
ATOM     14  C   UNL     1       5.618  -5.299  -8.907  0.00  0.00    +0.068 A 
ATOM     15  S   UNL     1       4.096  -6.231  -8.966  0.00  0.00    -0.061 S 
ATOM     16  H   UNL     1       1.857  -7.043  -7.208  0.00  0.00    +0.157 HD
ENDBRANCH   5   8
BRANCH   1  17
ATOM     17  C   UNL     1      -0.134  -6.343  -1.187  0.00  0.00    +0.016 C 
ATOM     18  C   UNL     1      -1.303  -6.984  -0.437  0.00  0.00    -0.004 C 
BRANCH  17  20
ATOM     19  N   UNL     1      -0.083  -4.141  -0.060  0.00  0.00    -0.287 N 
ATOM     20  C   UNL     1      -0.300  -4.845  -1.189  0.00  0.00    +0.203 C 
ATOM     21  O   UNL     1      -0.628  -4.272  -2.206  0.00  0.00    -0.277 OA
ATOM     22  H   UNL     1       0.252  -4.588   0.733  0.00  0.00    +0.155 HD
BRANCH  19  27
ATOM     23  C   UNL     1      -1.135   1.432   0.055  0.00  0.00    +0.044 C 
ATOM     24  C   UNL     1      -0.856  -0.049   0.025  0.00  0.00    -0.050 A 
ATOM     25  C   UNL     1      -0.390  -0.639  -1.136  0.00  0.00    +0.005 A 
ATOM     26  C   UNL     1      -0.133  -1.996  -1.167  0.00  0.00    +0.024 A 
ATOM     27  C   UNL     1      -0.342  -2.767  -0.031  0.00  0.00    +0.036 A 
ATOM     28  C   UNL     1      -0.809  -2.171   1.133  0.00  0.00    -0.029 A 
ATOM     29  C   UNL     1      -1.060  -0.812   1.159  0.00  0.00    +0.008 A 
ATOM     30  C   UNL     1      -1.037  -3.004   2.368  0.00  0.00    +0.045 C 
ENDBRANCH  19  27
ENDBRANCH  17  20
ENDBRANCH   1  17
TORSDOF 4
