REMARK  Name = ZINC36307000
REMARK  17 active torsions:
REMARK  status: ('A' for Active; 'I' for Inactive)
REMARK    1  A    between atoms: C_1  and  C_2
REMARK    2  A    between atoms: C_2  and  C_3
REMARK    3  A    between atoms: C_2  and  C_4
REMARK    4  A    between atoms: C_4  and  O_5
REMARK    5  A    between atoms: O_5  and  C_6
REMARK    6  A    between atoms: C_6  and  C_7
REMARK    7  A    between atoms: C_7  and  C_9
REMARK    8  A    between atoms: C_7  and  O_38
REMARK    9  A    between atoms: C_9  and  N_10
REMARK   10  A    between atoms: N_10  and  C_11
REMARK   11  A    between atoms: N_10  and  C_17
REMARK   12  A    between atoms: C_11  and  C_12
REMARK   13  A    between atoms: C_17  and  C_18
REMARK   14  A    between atoms: C_19  and  C_32
REMARK   15  A    between atoms: N_21  and  C_31
REMARK   16  A    between atoms: C_22  and  O_23
REMARK   17  A    between atoms: O_23  and  C_24
REMARK                            x       y       z     vdW  Elec       q    Type
REMARK                         _______ _______ _______ _____ _____    ______ ____
ROOT
ATOM      1  C   UNL     1      -6.346  -6.735  -1.663  0.00  0.00    +0.025 A 
ATOM      2  C   UNL     1      -7.388  -5.857  -2.017  0.00  0.00    +0.098 A 
ATOM      3  N   UNL     1      -7.843  -6.216  -3.198  0.00  0.00    -0.168 NA
ATOM      4  N   UNL     1      -7.109  -7.328  -3.632  0.00  0.00    -0.235 N 
ATOM      5  C   UNL     1      -6.191  -7.625  -2.676  0.00  0.00    +0.221 A 
ATOM      6  C   UNL     1      -7.295  -8.041  -4.898  0.00  0.00    +0.176 C 
ENDROOT
BRANCH   2   7
ATOM      7  C   UNL     1      -7.887  -4.723  -1.199  0.00  0.00    +0.002 A 
ATOM      8  C   UNL     1      -8.082  -4.883   0.171  0.00  0.00    +0.010 A 
ATOM      9  C   UNL     1      -8.546  -3.825   0.927  0.00  0.00    +0.001 A 
ATOM     10  C   UNL     1      -8.818  -2.609   0.326  0.00  0.00    +0.000 A 
ATOM     11  C   UNL     1      -8.627  -2.446  -1.034  0.00  0.00    +0.001 A 
ATOM     12  C   UNL     1      -8.157  -3.495  -1.798  0.00  0.00    +0.010 A 
ENDBRANCH   2   7
BRANCH   1  13
ATOM     13  C   UNL     1      -5.541  -6.690  -0.390  0.00  0.00    -0.035 C 
BRANCH  13  14
ATOM     14  N   UNL     1      -4.288  -5.961  -0.628  0.00  0.00    +0.389 N 
ATOM     15  H   UNL     1      -3.803  -6.373  -1.411  0.00  0.00    -0.081 HD
BRANCH  14  16
ATOM     16  C   UNL     1      -4.588  -4.554  -0.922  0.00  0.00    -0.044 C 
BRANCH  16  17
ATOM     17  C   UNL     1      -3.296  -3.823  -1.292  0.00  0.00    +0.124 C 
BRANCH  17  18
ATOM     18  O   UNL     1      -2.776  -4.361  -2.510  0.00  0.00    -0.391 OA
ATOM     19  H   UNL     1      -3.376  -4.280  -3.264  0.00  0.00    +0.210 HD
ENDBRANCH  17  18
BRANCH  17  20
ATOM     20  C   UNL     1      -3.588  -2.333  -1.478  0.00  0.00    +0.189 C 
BRANCH  20  21
ATOM     21  O   UNL     1      -2.364  -1.632  -1.708  0.00  0.00    -0.377 OA
BRANCH  21  22
ATOM     22  C   UNL     1      -2.526  -0.225  -1.895  0.00  0.00    +0.163 C 
BRANCH  22  24
ATOM     23  C   UNL     1      -1.342   1.903  -2.456  0.00  0.00    +0.009 C 
ATOM     24  C   UNL     1      -1.158   0.418  -2.133  0.00  0.00    +0.009 C 
ATOM     25  C   UNL     1      -0.301   0.273  -0.874  0.00  0.00    +0.009 C 
ENDBRANCH  22  24
ENDBRANCH  21  22
ENDBRANCH  20  21
ENDBRANCH  17  20
ENDBRANCH  16  17
ENDBRANCH  14  16
BRANCH  14  26
ATOM     26  C   UNL     1      -3.440  -6.041   0.569  0.00  0.00    -0.003 C 
BRANCH  26  27
ATOM     27  C   UNL     1      -3.025  -7.471   0.796  0.00  0.00    +0.089 A 
ATOM     28  C   UNL     1      -1.888  -8.040   0.355  0.00  0.00    +0.042 A 
ATOM     29  C   UNL     1      -1.907  -9.385   0.792  0.00  0.00    +0.041 A 
ATOM     30  C   UNL     1      -3.053  -9.557   1.475  0.00  0.00    +0.195 A 
ATOM     31  O   UNL     1      -3.723  -8.393   1.479  0.00  0.00    -0.470 OA
ENDBRANCH  26  27
ENDBRANCH  14  26
ENDBRANCH  13  14
ENDBRANCH   1  13
BRANCH   5  32
ATOM     32  O   UNL     1      -5.284  -8.634  -2.724  0.00  0.00    -0.438 OA
BRANCH  32  33
ATOM     33  C   UNL     1      -5.678  -9.866  -2.307  0.00  0.00    +0.133 A 
ATOM     34  C   UNL     1      -7.002 -10.090  -1.955  0.00  0.00    +0.046 A 
ATOM     35  C   UNL     1      -7.401 -11.343  -1.532  0.00  0.00    +0.006 A 
ATOM     36  C   UNL     1      -6.483 -12.374  -1.458  0.00  0.00    +0.038 A 
ATOM     37  C   UNL     1      -5.162 -12.154  -1.808  0.00  0.00    +0.127 A 
ATOM     38  C   UNL     1      -4.759 -10.902  -2.239  0.00  0.00    +0.084 A 
ATOM     39  F   UNL     1      -4.266 -13.163  -1.734  0.00  0.00    -0.205 F 
ENDBRANCH  32  33
ENDBRANCH   5  32
TORSDOF 14
