REMARK  Name = ZINC34761493
REMARK  5 active torsions:
REMARK  status: ('A' for Active; 'I' for Inactive)
REMARK    1  A    between atoms: C_5  and  C_7
REMARK    2  A    between atoms: C_7  and  N_8
REMARK    3  A    between atoms: C_12  and  C_13
REMARK    4  A    between atoms: C_17  and  C_19
REMARK    5  A    between atoms: N_24  and  C_27
REMARK                            x       y       z     vdW  Elec       q    Type
REMARK                         _______ _______ _______ _____ _____    ______ ____
ROOT
ATOM      1  C   UNL     1       4.144  -4.360   5.060  0.00  0.00    -0.023 A 
ATOM      2  C   UNL     1       2.927  -4.357   5.752  0.00  0.00    +0.008 A 
ATOM      3  C   UNL     1       2.910  -4.505   7.124  0.00  0.00    +0.001 A 
ATOM      4  C   UNL     1       4.092  -4.657   7.823  0.00  0.00    +0.013 A 
ATOM      5  C   UNL     1       5.314  -4.662   7.147  0.00  0.00    +0.037 A 
ATOM      6  C   UNL     1       5.341  -4.519   5.762  0.00  0.00    +0.021 A 
ENDROOT
BRANCH   1  11
ATOM      7  N   UNL     1       1.531  -3.486   1.121  0.00  0.00    -0.224 N 
ATOM      8  C   UNL     1       2.743  -3.866   1.487  0.00  0.00    +0.261 C 
ATOM      9  O   UNL     1       3.584  -4.195   0.672  0.00  0.00    -0.269 OA
ATOM     10  C   UNL     1       3.025  -3.868   2.939  0.00  0.00    +0.080 C 
ATOM     11  C   UNL     1       4.161  -4.202   3.598  0.00  0.00    +0.028 C 
ATOM     12  S   UNL     1       1.456  -3.307   3.585  0.00  0.00    -0.026 S 
ATOM     13  C   UNL     1       0.603  -3.117   2.027  0.00  0.00    +0.286 C 
ATOM     14  O   UNL     1      -0.538  -2.745   1.832  0.00  0.00    -0.262 OA
BRANCH   7  15
ATOM     15  C   UNL     1       1.188  -3.462  -0.303  0.00  0.00    +0.155 C 
BRANCH  15  20
ATOM     16  C   UNL     1       0.832   0.070  -1.587  0.00  0.00    +0.000 A 
ATOM     17  C   UNL     1       2.136   0.373  -1.932  0.00  0.00    +0.003 A 
ATOM     18  C   UNL     1       3.135  -0.564  -1.749  0.00  0.00    +0.038 A 
ATOM     19  C   UNL     1       2.829  -1.807  -1.222  0.00  0.00    +0.128 A 
ATOM     20  C   UNL     1       1.523  -2.109  -0.877  0.00  0.00    +0.006 A 
ATOM     21  C   UNL     1       0.525  -1.170  -1.061  0.00  0.00    +0.008 A 
ATOM     22  F   UNL     1       3.805  -2.724  -1.043  0.00  0.00    -0.205 F 
ENDBRANCH  15  20
ENDBRANCH   7  15
ENDBRANCH   1  11
BRANCH   5  23
ATOM     23  C   UNL     1       6.576  -4.824   7.899  0.00  0.00    +0.247 C 
ATOM     24  O   UNL     1       6.658  -5.662   8.776  0.00  0.00    -0.270 OA
ATOM     25  N   UNL     1       7.637  -4.043   7.613  0.00  0.00    -0.295 N 
ATOM     26  C   UNL     1       7.569  -3.060   6.522  0.00  0.00    +0.127 C 
ATOM     27  C   UNL     1       7.926  -1.679   7.084  0.00  0.00    +0.124 C 
ATOM     28  N   UNL     1       9.170  -1.793   7.858  0.00  0.00    -0.325 N 
ATOM     29  C   UNL     1       9.238  -2.776   8.949  0.00  0.00    +0.124 C 
ATOM     30  C   UNL     1       8.879  -4.154   8.391  0.00  0.00    +0.127 C 
BRANCH  28  31
ATOM     31  C   UNL     1      10.270  -0.982   7.561  0.00  0.00    +0.065 A 
ATOM     32  C   UNL     1      10.417   0.247   8.188  0.00  0.00    +0.026 A 
ATOM     33  C   UNL     1      11.505   1.046   7.893  0.00  0.00    +0.002 A 
ATOM     34  C   UNL     1      12.448   0.623   6.974  0.00  0.00    +0.003 A 
ATOM     35  C   UNL     1      12.305  -0.601   6.346  0.00  0.00    +0.040 A 
ATOM     36  C   UNL     1      11.222  -1.409   6.641  0.00  0.00    +0.144 A 
ATOM     37  F   UNL     1      11.086  -2.607   6.032  0.00  0.00    -0.204 F 
ENDBRANCH  28  31
ENDBRANCH   5  23
TORSDOF 5
