REMARK  Name = ZINC06136433
REMARK  14 active torsions:
REMARK  status: ('A' for Active; 'I' for Inactive)
REMARK    1  A    between atoms: C_1  and  O_2
REMARK    2  A    between atoms: O_2  and  C_3
REMARK    3  A    between atoms: C_7  and  C_17
REMARK    4  A    between atoms: C_14  and  O_15
REMARK    5  A    between atoms: O_15  and  C_16
REMARK    6  A    between atoms: C_17  and  N_18
REMARK    7  A    between atoms: N_18  and  C_19
REMARK    8  A    between atoms: N_18  and  C_25
REMARK    9  A    between atoms: C_19  and  C_20
REMARK   10  A    between atoms: C_25  and  N_27
REMARK   11  A    between atoms: N_27  and  C_28
REMARK   12  A    between atoms: C_33  and  C_34
REMARK   13  A    between atoms: C_34  and  O_36
REMARK   14  A    between atoms: O_36  and  C_37
REMARK                            x       y       z     vdW  Elec       q    Type
REMARK                         _______ _______ _______ _____ _____    ______ ____
ROOT
ATOM      1  N   UNL     1      -5.829   3.865  -1.462  0.00  0.00    -0.303 N 
ENDROOT
BRANCH   1   2
ATOM      2  C   UNL     1      -5.368   4.893  -2.203  0.00  0.00    +0.138 C 
ATOM      3  S   UNL     1      -3.996   5.775  -1.683  0.00  0.00    -0.018 S 
BRANCH   2   4
ATOM      4  N   UNL     1      -5.987   5.225  -3.353  0.00  0.00    -0.296 N 
ATOM      5  H   UNL     1      -6.712   4.675  -3.690  0.00  0.00    +0.154 HD
BRANCH   4   6
ATOM      6  C   UNL     1      -5.587   6.357  -4.056  0.00  0.00    +0.047 A 
ATOM      7  C   UNL     1      -5.381   7.557  -3.389  0.00  0.00    +0.024 A 
ATOM      8  C   UNL     1      -4.979   8.677  -4.088  0.00  0.00    +0.002 A 
ATOM      9  C   UNL     1      -4.789   8.617  -5.460  0.00  0.00    +0.001 A 
ATOM     10  C   UNL     1      -4.993   7.437  -6.140  0.00  0.00    +0.017 A 
ATOM     11  C   UNL     1      -5.395   6.293  -5.445  0.00  0.00    +0.080 A 
BRANCH  11  12
ATOM     12  C   UNL     1      -5.616   5.027  -6.167  0.00  0.00    +0.341 C 
ATOM     13  O   UNL     1      -5.905   4.019  -5.551  0.00  0.00    -0.245 OA
BRANCH  12  14
ATOM     14  O   UNL     1      -5.498   4.986  -7.508  0.00  0.00    -0.464 OA
ATOM     15  C   UNL     1      -5.730   3.705  -8.152  0.00  0.00    +0.280 C 
ENDBRANCH  12  14
ENDBRANCH  11  12
ENDBRANCH   4   6
ENDBRANCH   2   4
ENDBRANCH   1   2
BRANCH   1  16
ATOM     16  C   UNL     1      -5.155   3.504  -0.212  0.00  0.00    +0.147 C 
BRANCH  16  21
ATOM     17  C   UNL     1       0.495   1.271  -1.439  0.00  0.00    +0.162 A 
ATOM     18  C   UNL     1      -0.443   2.246  -1.176  0.00  0.00    +0.059 A 
ATOM     19  C   UNL     1      -1.778   1.883  -0.960  0.00  0.00    +0.003 A 
ATOM     20  C   UNL     1      -2.797   2.893  -0.679  0.00  0.00    +0.020 A 
ATOM     21  C   UNL     1      -4.080   2.487  -0.496  0.00  0.00    +0.035 A 
ATOM     22  C   UNL     1      -4.407   1.118  -0.559  0.00  0.00    +0.254 A 
ATOM     23  O   UNL     1      -5.564   0.774  -0.380  0.00  0.00    -0.268 OA
ATOM     24  N   UNL     1      -3.477   0.180  -0.810  0.00  0.00    -0.322 N 
ATOM     25  H   UNL     1      -3.737  -0.753  -0.847  0.00  0.00    +0.169 HD
ATOM     26  C   UNL     1      -2.158   0.528  -1.018  0.00  0.00    +0.053 A 
ATOM     27  C   UNL     1      -1.199  -0.443  -1.279  0.00  0.00    +0.075 A 
ATOM     28  C   UNL     1       0.117  -0.075  -1.490  0.00  0.00    +0.163 A 
BRANCH  17  30
ATOM     29  C   UNL     1       2.111   3.010  -1.582  0.00  0.00    +0.277 C 
ATOM     30  O   UNL     1       1.793   1.618  -1.649  0.00  0.00    -0.491 OA
ENDBRANCH  17  30
BRANCH  28  31
ATOM     31  O   UNL     1       1.050  -1.027  -1.750  0.00  0.00    -0.491 OA
ATOM     32  C   UNL     1       0.600  -2.383  -1.789  0.00  0.00    +0.277 C 
ENDBRANCH  28  31
ENDBRANCH  16  21
ENDBRANCH   1  16
BRANCH   1  33
ATOM     33  C   UNL     1      -7.002   3.110  -1.907  0.00  0.00    +0.149 C 
BRANCH  33  34
ATOM     34  C   UNL     1      -8.249   3.743  -1.346  0.00  0.00    +0.007 A 
ATOM     35  C   UNL     1      -9.024   4.720  -1.879  0.00  0.00    +0.013 A 
ATOM     36  C   UNL     1     -10.137   5.148  -1.180  0.00  0.00    +0.008 A 
ATOM     37  C   UNL     1     -10.415   4.587   0.022  0.00  0.00    +0.045 A 
ATOM     38  S   UNL     1      -9.085   3.409   0.196  0.00  0.00    -0.100 S 
ENDBRANCH  33  34
ENDBRANCH   1  33
TORSDOF 11
