REMARK  Name = ZINC14460052
REMARK  5 active torsions:
REMARK  status: ('A' for Active; 'I' for Inactive)
REMARK    1  A    between atoms: C_1  and  O_2
REMARK    2  A    between atoms: O_2  and  C_3
REMARK    3  A    between atoms: C_7  and  C_10
REMARK    4  A    between atoms: C_8  and  O_9
REMARK    5  A    between atoms: C_21  and  C_26
REMARK                            x       y       z     vdW  Elec       q    Type
REMARK                         _______ _______ _______ _____ _____    ______ ____
ROOT
ATOM      1  C   UNL     1       2.476   5.274   0.238  0.00  0.00    +0.109 C 
ATOM      2  C   UNL     1       1.400   5.542   1.275  0.00  0.00    +0.029 C 
ATOM      3  C   UNL     1       1.150   7.005   1.664  0.00  0.00    +0.033 C 
ATOM      4  C   UNL     1      -0.331   6.974   2.044  0.00  0.00    -0.030 C 
ATOM      5  C   UNL     1      -0.942   5.980   1.411  0.00  0.00    -0.023 C 
ATOM      6  C   UNL     1       0.049   5.263   0.551  0.00  0.00    +0.049 C 
ATOM      7  C   UNL     1      -0.025   3.813   0.270  0.00  0.00    -0.019 A 
ATOM      8  C   UNL     1      -1.208   3.117   0.299  0.00  0.00    +0.019 A 
ATOM      9  C   UNL     1      -1.229   1.752   0.001  0.00  0.00    +0.037 A 
ATOM     10  C   UNL     1      -0.037   1.094  -0.315  0.00  0.00    +0.015 A 
ATOM     11  C   UNL     1       1.148   1.792  -0.337  0.00  0.00    +0.024 A 
ATOM     12  C   UNL     1       1.173   3.154  -0.044  0.00  0.00    +0.031 A 
ATOM     13  N   UNL     1       2.394   3.827  -0.057  0.00  0.00    -0.336 N 
ATOM     14  H   UNL     1       3.205   3.337  -0.265  0.00  0.00    +0.147 HD
ENDROOT
BRANCH   9  15
ATOM     15  C   UNL     1      -2.502   1.007   0.026  0.00  0.00    +0.247 C 
ATOM     16  O   UNL     1      -3.518   1.525  -0.398  0.00  0.00    -0.270 OA
ATOM     17  N   UNL     1      -2.540  -0.247   0.519  0.00  0.00    -0.293 N 
ATOM     18  C   UNL     1      -1.354  -0.850   1.147  0.00  0.00    +0.136 C 
ATOM     19  C   UNL     1      -1.772  -1.421   2.511  0.00  0.00    +0.179 C 
ATOM     20  O   UNL     1      -2.901  -2.280   2.334  0.00  0.00    -0.377 OA
ATOM     21  C   UNL     1      -4.066  -1.619   1.833  0.00  0.00    +0.179 C 
ATOM     22  C   UNL     1      -3.767  -1.055   0.439  0.00  0.00    +0.136 C 
ENDBRANCH   9  15
BRANCH   1  27
ATOM     23  C   UNL     1       5.545   7.234   1.272  0.00  0.00    +0.162 A 
ATOM     24  C   UNL     1       6.333   6.235   1.819  0.00  0.00    +0.049 A 
ATOM     25  C   UNL     1       5.873   4.932   1.853  0.00  0.00    +0.004 A 
ATOM     26  C   UNL     1       4.624   4.624   1.347  0.00  0.00    +0.009 A 
ATOM     27  C   UNL     1       3.835   5.615   0.794  0.00  0.00    +0.018 A 
ATOM     28  C   UNL     1       4.290   6.923   0.757  0.00  0.00    +0.163 A 
BRANCH  23  30
ATOM     29  C   UNL     1       7.294   8.763   1.784  0.00  0.00    +0.277 C 
ATOM     30  O   UNL     1       5.996   8.517   1.238  0.00  0.00    -0.491 OA
ENDBRANCH  23  30
BRANCH  28  31
ATOM     31  O   UNL     1       3.513   7.900   0.219  0.00  0.00    -0.503 OA
ATOM     32  H   UNL     1       2.926   8.332   0.856  0.00  0.00    +0.292 HD
ENDBRANCH  28  31
ENDBRANCH   1  27
TORSDOF 4
