REMARK  Name = ZINC42029020
REMARK  4 active torsions:
REMARK  status: ('A' for Active; 'I' for Inactive)
REMARK    1  A    between atoms: C_1  and  C_2
REMARK    2  A    between atoms: C_7  and  N_8
REMARK    3  A    between atoms: C_9  and  C_13
REMARK    4  A    between atoms: C_18  and  N_19
REMARK                            x       y       z     vdW  Elec       q    Type
REMARK                         _______ _______ _______ _____ _____    ______ ____
ROOT
ATOM      1  N   UNL     1      -0.541  -0.167   2.871  0.00  0.00    -0.192 N 
ATOM      2  C   UNL     1       0.390  -0.731   3.695  0.00  0.00    +0.189 A 
ATOM      3  N   UNL     1       1.086   0.257   4.219  0.00  0.00    -0.108 NA
ATOM      4  N   UNL     1       0.660   1.388   3.784  0.00  0.00    -0.022 NA
ATOM      5  N   UNL     1      -0.317   1.218   2.961  0.00  0.00    -0.039 NA
ENDROOT
BRANCH   1  12
ATOM      6  C   UNL     1       0.004  -0.586   0.110  0.00  0.00    +0.046 C 
ATOM      7  C   UNL     1      -1.280  -1.051   0.747  0.00  0.00    -0.025 A 
ATOM      8  C   UNL     1      -2.231  -1.706  -0.012  0.00  0.00    +0.006 A 
ATOM      9  C   UNL     1      -3.410  -2.132   0.572  0.00  0.00    +0.015 A 
ATOM     10  C   UNL     1      -3.641  -1.904   1.917  0.00  0.00    +0.020 A 
ATOM     11  C   UNL     1      -2.693  -1.250   2.681  0.00  0.00    +0.043 A 
ATOM     12  C   UNL     1      -1.506  -0.826   2.098  0.00  0.00    +0.073 A 
ATOM     13 BR   UNL     1      -5.255  -2.488   2.711  0.00  0.00    -0.050 Br
ENDBRANCH   1  12
BRANCH   2  14
ATOM     14  C   UNL     1       0.579  -2.174   3.951  0.00  0.00    +0.042 A 
ATOM     15  C   UNL     1       0.662  -3.071   2.886  0.00  0.00    +0.015 A 
ATOM     16  C   UNL     1       0.839  -4.416   3.130  0.00  0.00    +0.021 A 
ATOM     17  C   UNL     1       0.934  -4.883   4.432  0.00  0.00    +0.043 A 
ATOM     18  C   UNL     1       0.853  -4.006   5.497  0.00  0.00    +0.043 A 
ATOM     19  C   UNL     1       0.681  -2.648   5.267  0.00  0.00    +0.037 A 
ATOM     20 CL   UNL     1       1.155  -6.580   4.726  0.00  0.00    -0.083 Cl
BRANCH  19  21
ATOM     21  N   UNL     1       0.606  -1.761   6.338  0.00  0.00    -0.357 N 
ATOM     22  H   UNL     1       0.482  -0.813   6.175  0.00  0.00    +0.142 HD
ATOM     23  H   UNL     1       0.677  -2.092   7.247  0.00  0.00    +0.142 HD
ENDBRANCH  19  21
ENDBRANCH   2  14
TORSDOF 3
