REMARK  Name = ZINC39969743
REMARK  3 active torsions:
REMARK  status: ('A' for Active; 'I' for Inactive)
REMARK    1  A    between atoms: C_1  and  S_2
REMARK    2  A    between atoms: S_2  and  C_3
REMARK    3  A    between atoms: C_9  and  C_17
REMARK                            x       y       z     vdW  Elec       q    Type
REMARK                         _______ _______ _______ _____ _____    ______ ____
ROOT
ATOM      1  C   UNL     1       0.842  -1.682   1.369  0.00  0.00    +0.182 C 
ATOM      2  N   UNL     1       0.937  -0.497   1.945  0.00  0.00    -0.155 NA
ATOM      3  C   UNL     1       1.536  -0.328   3.127  0.00  0.00    +0.249 C 
ATOM      4  O   UNL     1       1.642   0.771   3.637  0.00  0.00    -0.273 OA
ATOM      5  C   UNL     1       2.075  -1.572   3.800  0.00  0.00    +0.148 C 
ATOM      6  C   UNL     1       3.558  -1.350   4.102  0.00  0.00    +0.047 C 
ATOM      7  C   UNL     1       4.070  -2.528   4.935  0.00  0.00    +0.105 C 
ATOM      8  C   UNL     1       3.671  -3.837   4.317  0.00  0.00    +0.219 C 
ATOM      9  O   UNL     1       4.273  -4.837   4.641  0.00  0.00    -0.275 OA
ATOM     10  N   UNL     1       2.675  -3.949   3.423  0.00  0.00    -0.273 N 
ATOM     11  C   UNL     1       1.996  -2.852   2.988  0.00  0.00    +0.117 C 
ATOM     12  N   UNL     1       1.366  -2.817   1.849  0.00  0.00    -0.212 NA
ATOM     13  H   UNL     1       2.425  -4.825   3.090  0.00  0.00    +0.156 HD
ENDROOT
BRANCH   6  14
ATOM     14  C   UNL     1       4.330  -1.265   2.811  0.00  0.00    -0.043 A 
ATOM     15  C   UNL     1       4.772  -0.039   2.349  0.00  0.00    +0.005 A 
ATOM     16  C   UNL     1       5.480   0.039   1.164  0.00  0.00    +0.020 A 
ATOM     17  C   UNL     1       5.746  -1.110   0.441  0.00  0.00    +0.041 A 
ATOM     18  C   UNL     1       5.303  -2.336   0.903  0.00  0.00    +0.020 A 
ATOM     19  C   UNL     1       4.600  -2.414   2.091  0.00  0.00    +0.005 A 
ATOM     20 CL   UNL     1       6.635  -1.013  -1.048  0.00  0.00    -0.084 Cl
ENDBRANCH   6  14
BRANCH   1  22
ATOM     21  C   UNL     1      -0.588  -0.072  -0.449  0.00  0.00    +0.093 C 
ATOM     22  S   UNL     1      -0.052  -1.778  -0.146  0.00  0.00    -0.092 S 
ENDBRANCH   1  22
TORSDOF 2
