REMARK  Name = ZINC13957718
REMARK  3 active torsions:
REMARK  status: ('A' for Active; 'I' for Inactive)
REMARK    1  A    between atoms: C_1  and  C_2
REMARK    2  A    between atoms: C_2  and  C_23
REMARK    3  A    between atoms: C_7  and  C_12
REMARK                            x       y       z     vdW  Elec       q    Type
REMARK                         _______ _______ _______ _____ _____    ______ ____
ROOT
ATOM      1  C   UNL     1      10.759   1.776   1.679  0.00  0.00    +0.011 C 
ATOM      2  C   UNL     1       9.412   1.078   1.876  0.00  0.00    -0.023 C 
ATOM      3  C   UNL     1       8.301   1.940   1.284  0.00  0.00    +0.060 C 
ATOM      4  C   UNL     1       6.970   1.234   1.342  0.00  0.00    +0.030 A 
ATOM      5  C   UNL     1       6.888  -0.146   1.419  0.00  0.00    +0.038 A 
ATOM      6  C   UNL     1       5.633  -0.791   1.459  0.00  0.00    +0.031 A 
ATOM      7  C   UNL     1       4.481  -0.019   1.428  0.00  0.00    +0.102 A 
ATOM      8  C   UNL     1       4.625   1.437   1.348  0.00  0.00    +0.261 A 
ATOM      9  O   UNL     1       3.637   2.148   1.316  0.00  0.00    -0.267 OA
ATOM     10  N   UNL     1       5.851   1.986   1.315  0.00  0.00    -0.325 N 
ATOM     11  H   UNL     1       5.933   2.951   1.267  0.00  0.00    +0.169 HD
ATOM     12  C   UNL     1       8.112  -0.963   1.466  0.00  0.00    +0.165 C 
ATOM     13  O   UNL     1       8.066  -2.144   1.739  0.00  0.00    -0.292 OA
ATOM     14  C   UNL     1       9.430  -0.282   1.165  0.00  0.00    +0.086 C 
ATOM     15  C   UNL     1       9.158   0.871   3.370  0.00  0.00    +0.011 C 
ENDROOT
BRANCH   7  16
ATOM     16  C   UNL     1       3.149  -0.645   1.467  0.00  0.00    +0.252 C 
ATOM     17  O   UNL     1       2.920  -1.537   2.262  0.00  0.00    -0.270 OA
ATOM     18  N   UNL     1       2.184  -0.231   0.622  0.00  0.00    -0.297 N 
ATOM     19  C   UNL     1       0.887  -0.920   0.572  0.00  0.00    +0.108 C 
ATOM     20  C   UNL     1       0.599  -1.322  -0.878  0.00  0.00    +0.019 C 
ATOM     21  C   UNL     1       0.689  -0.085  -1.774  0.00  0.00    +0.003 C 
ATOM     22  C   UNL     1       2.103   0.495  -1.706  0.00  0.00    +0.019 C 
ATOM     23  C   UNL     1       2.409   0.918  -0.266  0.00  0.00    +0.108 C 
ENDBRANCH   7  16
TORSDOF 1
