REMARK  Name = ZINC02531352
REMARK  8 active torsions:
REMARK  status: ('A' for Active; 'I' for Inactive)
REMARK    1  A    between atoms: C_1  and  C_2
REMARK    2  A    between atoms: C_5  and  C_8
REMARK    3  A    between atoms: C_8  and  O_10
REMARK    4  A    between atoms: O_10  and  C_11
REMARK    5  A    between atoms: C_20  and  C_21
REMARK    6  A    between atoms: N_22  and  N_23
REMARK    7  A    between atoms: C_24  and  C_26
REMARK    8  A    between atoms: N_28  and  C_29
REMARK                            x       y       z     vdW  Elec       q    Type
REMARK                         _______ _______ _______ _____ _____    ______ ____
ROOT
ATOM      1  C   UNL     1       1.714   6.017   0.074  0.00  0.00    +0.141 A 
ATOM      2  C   UNL     1       2.932   5.421  -0.248  0.00  0.00    +0.047 A 
ATOM      3  C   UNL     1       3.072   4.071  -0.320  0.00  0.00    +0.012 A 
ATOM      4  C   UNL     1       1.981   3.220  -0.069  0.00  0.00    -0.017 A 
ATOM      5  C   UNL     1       2.114   1.823  -0.141  0.00  0.00    +0.008 A 
ATOM      6  C   UNL     1       1.036   1.029   0.108  0.00  0.00    +0.001 A 
ATOM      7  C   UNL     1      -0.202   1.581   0.428  0.00  0.00    +0.001 A 
ATOM      8  C   UNL     1      -0.365   2.932   0.512  0.00  0.00    +0.009 A 
ATOM      9  C   UNL     1       0.722   3.777   0.262  0.00  0.00    -0.006 A 
ATOM     10  C   UNL     1       0.590   5.232   0.335  0.00  0.00    +0.045 A 
ENDROOT
BRANCH  10  11
ATOM     11  C   UNL     1      -0.697   5.852   0.675  0.00  0.00    +0.142 C 
ATOM     12  N   UNL     1      -0.775   7.141   0.836  0.00  0.00    -0.187 NA
BRANCH  12  13
ATOM     13  N   UNL     1      -1.974   7.721   1.270  0.00  0.00    -0.199 N 
ATOM     14  C   UNL     1      -2.090   9.063   1.332  0.00  0.00    +0.318 C 
ATOM     15  O   UNL     1      -1.128   9.767   1.099  0.00  0.00    -0.263 OA
ATOM     16  H   UNL     1      -2.721   7.158   1.526  0.00  0.00    +0.178 HD
BRANCH  14  17
ATOM     17  C   UNL     1      -3.398   9.682   1.687  0.00  0.00    +0.305 C 
ATOM     18  O   UNL     1      -4.360   8.978   1.920  0.00  0.00    -0.265 OA
ATOM     19  N   UNL     1      -3.514  11.023   1.750  0.00  0.00    -0.276 N 
ATOM     20  H   UNL     1      -2.768  11.587   1.492  0.00  0.00    +0.155 HD
BRANCH  19  21
ATOM     21  C   UNL     1      -4.710  11.602   2.184  0.00  0.00    +0.052 A 
ATOM     22  C   UNL     1      -5.479  10.968   3.152  0.00  0.00    +0.025 A 
ATOM     23  C   UNL     1      -6.657  11.545   3.583  0.00  0.00    +0.002 A 
ATOM     24  C   UNL     1      -7.078  12.748   3.045  0.00  0.00    +0.002 A 
ATOM     25  C   UNL     1      -6.319  13.380   2.078  0.00  0.00    +0.022 A 
ATOM     26  C   UNL     1      -5.136  12.811   1.645  0.00  0.00    +0.062 A 
ATOM     27 CL   UNL     1      -4.183  13.604   0.430  0.00  0.00    -0.082 Cl
ENDBRANCH  19  21
ENDBRANCH  14  17
ENDBRANCH  12  13
ENDBRANCH  10  11
BRANCH   1  28
ATOM     28  O   UNL     1       1.620   7.370   0.135  0.00  0.00    -0.422 OA
BRANCH  28  29
ATOM     29  C   UNL     1       1.845   7.946   1.332  0.00  0.00    +0.344 C 
ATOM     30  O   UNL     1       2.015   7.254   2.316  0.00  0.00    -0.245 OA
BRANCH  29  35
ATOM     31  C   UNL     1       2.006  13.679   1.783  0.00  0.00    +0.044 C 
ATOM     32  C   UNL     1       1.964  12.177   1.665  0.00  0.00    -0.050 A 
ATOM     33  C   UNL     1       2.162  11.393   2.787  0.00  0.00    +0.004 A 
ATOM     34  C   UNL     1       2.124  10.017   2.686  0.00  0.00    +0.015 A 
ATOM     35  C   UNL     1       1.886   9.418   1.448  0.00  0.00    +0.059 A 
ATOM     36  C   UNL     1       1.692  10.216   0.319  0.00  0.00    +0.015 A 
ATOM     37  C   UNL     1       1.727  11.590   0.435  0.00  0.00    +0.004 A 
ENDBRANCH  29  35
ENDBRANCH  28  29
ENDBRANCH   1  28
TORSDOF 7
