REMARK  Name = ZINC09705850
REMARK  9 active torsions:
REMARK  status: ('A' for Active; 'I' for Inactive)
REMARK    1  A    between atoms: C_1  and  C_2
REMARK    2  A    between atoms: C_7  and  N_8
REMARK    3  A    between atoms: C_9  and  C_11
REMARK    4  A    between atoms: C_12  and  N_20
REMARK    5  A    between atoms: C_21  and  C_23
REMARK    6  A    between atoms: N_25  and  C_26
REMARK    7  A    between atoms: C_29  and  C_36
REMARK    8  A    between atoms: C_32  and  C_34
REMARK    9  A    between atoms: C_32  and  C_35
REMARK                            x       y       z     vdW  Elec       q    Type
REMARK                         _______ _______ _______ _____ _____    ______ ____
ROOT
ATOM      1  C   UNL     1      -4.309  10.106   0.576  0.00  0.00    +0.212 A 
ATOM      2  C   UNL     1      -3.508   9.275   1.311  0.00  0.00    +0.093 A 
ATOM      3  C   UNL     1      -2.760  10.145   2.227  0.00  0.00    +0.042 A 
ATOM      4  C   UNL     1      -1.794   9.920   3.208  0.00  0.00    +0.013 A 
ATOM      5  C   UNL     1      -1.272  10.976   3.901  0.00  0.00    +0.001 A 
ATOM      6  C   UNL     1      -1.692  12.271   3.629  0.00  0.00    +0.004 A 
ATOM      7  C   UNL     1      -2.641  12.514   2.660  0.00  0.00    +0.047 A 
ATOM      8  C   UNL     1      -3.186  11.454   1.943  0.00  0.00    +0.138 A 
ATOM      9  O   UNL     1      -4.107  11.385   0.961  0.00  0.00    -0.448 OA
ENDROOT
BRANCH   1  11
ATOM     10  N   UNL     1      -5.906  10.593  -1.195  0.00  0.00    -0.279 N 
ATOM     11  C   UNL     1      -5.241   9.675  -0.465  0.00  0.00    +0.285 C 
ATOM     12  O   UNL     1      -5.415   8.489  -0.673  0.00  0.00    -0.266 OA
ATOM     13  H   UNL     1      -5.827  11.535  -0.979  0.00  0.00    +0.155 HD
BRANCH  10  20
ATOM     14  C   UNL     1      -8.044  12.294  -1.990  0.00  0.00    +0.045 C 
ATOM     15  C   UNL     1      -7.765  10.986  -2.684  0.00  0.00    -0.029 A 
ATOM     16  C   UNL     1      -8.556  10.584  -3.744  0.00  0.00    +0.005 A 
ATOM     17  C   UNL     1      -8.304   9.381  -4.378  0.00  0.00    +0.000 A 
ATOM     18  C   UNL     1      -7.258   8.579  -3.957  0.00  0.00    +0.002 A 
ATOM     19  C   UNL     1      -6.462   8.978  -2.902  0.00  0.00    +0.023 A 
ATOM     20  C   UNL     1      -6.711  10.186  -2.263  0.00  0.00    +0.037 A 
ENDBRANCH  10  20
ENDBRANCH   1  11
BRANCH   2  21
ATOM     21  N   UNL     1      -3.424   7.893   1.215  0.00  0.00    -0.274 N 
ATOM     22  C   UNL     1      -2.290   7.260   1.576  0.00  0.00    +0.303 C 
ATOM     23  O   UNL     1      -1.320   7.902   1.921  0.00  0.00    -0.265 OA
ATOM     24  H   UNL     1      -4.181   7.382   0.888  0.00  0.00    +0.155 HD
BRANCH  22  25
ATOM     25  C   UNL     1      -2.227   5.768   1.551  0.00  0.00    +0.300 C 
ATOM     26  O   UNL     1      -3.197   5.125   1.206  0.00  0.00    -0.265 OA
ATOM     27  N   UNL     1      -1.093   5.135   1.912  0.00  0.00    -0.305 N 
ATOM     28  H   UNL     1      -0.318   5.649   2.188  0.00  0.00    +0.149 HD
BRANCH  27  29
ATOM     29  C   UNL     1      -1.032   3.672   1.888  0.00  0.00    +0.074 C 
ATOM     30  C   UNL     1      -0.673   3.199   0.478  0.00  0.00    +0.025 C 
ATOM     31  C   UNL     1      -0.608   1.671   0.453  0.00  0.00    -0.012 C 
ATOM     32  C   UNL     1       0.458   1.189   1.438  0.00  0.00    +0.009 C 
ATOM     33  C   UNL     1       0.099   1.661   2.849  0.00  0.00    -0.033 C 
ATOM     34  C   UNL     1       0.034   3.190   2.874  0.00  0.00    +0.028 C 
ATOM     35  C   UNL     1      -1.262   1.087   3.248  0.00  0.00    +0.011 C 
ATOM     36  C   UNL     1       1.165   1.179   3.835  0.00  0.00    +0.011 C 
ATOM     37  C   UNL     1      -0.249   1.199  -0.958  0.00  0.00    +0.007 C 
ENDBRANCH  27  29
ENDBRANCH  22  25
ENDBRANCH   2  21
TORSDOF 5
