REMARK  Name = ZINC40875388
REMARK  6 active torsions:
REMARK  status: ('A' for Active; 'I' for Inactive)
REMARK    1  A    between atoms: C_1  and  C_2
REMARK    2  A    between atoms: C_4  and  C_7
REMARK    3  A    between atoms: C_10  and  N_14
REMARK    4  A    between atoms: C_18  and  C_21
REMARK    5  A    between atoms: C_26  and  C_29
REMARK    6  A    between atoms: C_26  and  N_32
REMARK                            x       y       z     vdW  Elec       q    Type
REMARK                         _______ _______ _______ _____ _____    ______ ____
ROOT
ATOM      1  C   UNL     1      -7.020  -7.192  -2.569  0.00  0.00    +0.220 C 
ATOM      2  O   UNL     1      -6.253  -7.290  -3.503  0.00  0.00    -0.275 OA
ATOM      3  N   UNL     1      -8.264  -7.704  -2.660  0.00  0.00    -0.301 N 
ATOM      4  C   UNL     1      -9.239  -7.498  -1.582  0.00  0.00    +0.107 C 
ATOM      5  C   UNL     1      -9.786  -8.861  -1.144  0.00  0.00    +0.016 C 
ATOM      6  C   UNL     1     -10.343  -9.598  -2.364  0.00  0.00    +0.015 C 
ATOM      7  C   UNL     1      -9.221  -9.831  -3.378  0.00  0.00    +0.016 C 
ATOM      8  C   UNL     1      -8.671  -8.474  -3.844  0.00  0.00    +0.107 C 
ENDROOT
BRANCH   6   9
ATOM      9  N   UNL     1     -10.898 -10.892  -1.942  0.00  0.00    +0.389 N 
ATOM     10  C   UNL     1     -11.962 -10.668  -0.957  0.00  0.00    -0.077 C 
ATOM     11  C   UNL     1     -12.488 -12.015  -0.455  0.00  0.00    -0.019 C 
ATOM     12  C   UNL     1     -13.044 -12.813  -1.637  0.00  0.00    -0.004 C 
ATOM     13  C   UNL     1     -11.946 -12.976  -2.692  0.00  0.00    -0.019 C 
ATOM     14  C   UNL     1     -11.440 -11.594  -3.112  0.00  0.00    -0.077 C 
ATOM     15  H   UNL     1     -10.168 -11.450  -1.525  0.00  0.00    -0.080 HD
ENDBRANCH   6   9
BRANCH   1  20
ATOM     16  N   UNL     1      -4.922  -4.981  -0.358  0.00  0.00    -0.327 N 
ATOM     17  C   UNL     1      -4.543  -5.893   0.729  0.00  0.00    +0.105 C 
ATOM     18  C   UNL     1      -5.717  -6.834   1.015  0.00  0.00    +0.020 C 
ATOM     19  C   UNL     1      -6.129  -7.537  -0.280  0.00  0.00    +0.016 C 
ATOM     20  C   UNL     1      -6.583  -6.496  -1.305  0.00  0.00    +0.092 C 
ATOM     21  C   UNL     1      -5.425  -5.551  -1.616  0.00  0.00    +0.118 C 
BRANCH  16  25
ATOM     22  C   UNL     1      -4.593  -0.854   0.121  0.00  0.00    +0.025 A 
ATOM     23  C   UNL     1      -5.774  -1.506   0.473  0.00  0.00    +0.013 A 
ATOM     24  C   UNL     1      -5.880  -2.872   0.313  0.00  0.00    +0.027 A 
ATOM     25  C   UNL     1      -4.812  -3.598  -0.198  0.00  0.00    +0.065 A 
ATOM     26  C   UNL     1      -3.631  -2.949  -0.550  0.00  0.00    +0.145 A 
ATOM     27  C   UNL     1      -3.523  -1.582  -0.397  0.00  0.00    +0.052 A 
ATOM     28  F   UNL     1      -2.593  -3.657  -1.046  0.00  0.00    -0.204 F 
BRANCH  22  32
ATOM     29  C   UNL     1      -5.793   3.853   1.274  0.00  0.00    +0.112 C 
ATOM     30  C   UNL     1      -5.009   2.657   0.797  0.00  0.00    +0.225 A 
ATOM     31  N   UNL     1      -5.435   1.426   0.779  0.00  0.00    -0.192 NA
ATOM     32  C   UNL     1      -4.478   0.615   0.293  0.00  0.00    +0.202 A 
ATOM     33  N   UNL     1      -3.427   1.339  -0.004  0.00  0.00    -0.056 NA
ATOM     34  O   UNL     1      -3.760   2.682   0.315  0.00  0.00    -0.338 OA
ENDBRANCH  22  32
ENDBRANCH  16  25
ENDBRANCH   1  20
BRANCH   6  35
ATOM     35  C   UNL     1     -11.430  -8.769  -2.998  0.00  0.00    +0.200 C 
ATOM     36  O   UNL     1     -11.938  -7.859  -2.378  0.00  0.00    -0.278 OA
ATOM     37  N   UNL     1     -11.838  -9.040  -4.254  0.00  0.00    -0.330 N 
ATOM     38  H   UNL     1     -11.483  -9.811  -4.723  0.00  0.00    +0.145 HD
ATOM     39  H   UNL     1     -12.485  -8.463  -4.688  0.00  0.00    +0.145 HD
ENDBRANCH   6  35
TORSDOF 5
