REMARK  Name = ZINC06196796
REMARK  7 active torsions:
REMARK  status: ('A' for Active; 'I' for Inactive)
REMARK    1  A    between atoms: C_1  and  C_2
REMARK    2  A    between atoms: C_2  and  O_3
REMARK    3  A    between atoms: O_3  and  C_4
REMARK    4  A    between atoms: C_11  and  C_16
REMARK    5  A    between atoms: C_16  and  C_18
REMARK    6  A    between atoms: C_16  and  N_77
REMARK    7  A    between atoms: N_22  and  C_23
REMARK                            x       y       z     vdW  Elec       q    Type
REMARK                         _______ _______ _______ _____ _____    ______ ____
ROOT
ATOM      1  C   UNL     1      -4.984   1.048   0.052  0.00  0.00    +0.039 C 
ENDROOT
BRANCH   1   9
ATOM      2  C   UNL     1       1.183   1.675  -0.027  0.00  0.00    +0.121 A 
ATOM      3  C   UNL     1       1.192   3.068   0.014  0.00  0.00    +0.047 A 
ATOM      4  C   UNL     1       0.012   3.777   0.055  0.00  0.00    +0.030 A 
ATOM      5  C   UNL     1      -1.204   3.102   0.055  0.00  0.00    +0.049 A 
ATOM      6  C   UNL     1      -1.219   1.695   0.007  0.00  0.00    +0.002 A 
ATOM      7  C   UNL     1      -0.013   0.986  -0.029  0.00  0.00    +0.055 A 
ATOM      8  C   UNL     1      -2.506   0.998   0.012  0.00  0.00    +0.017 A 
ATOM      9  C   UNL     1      -3.643   1.736   0.052  0.00  0.00    +0.011 A 
ATOM     10  C   UNL     1      -3.575   3.144   0.094  0.00  0.00    +0.251 A 
ATOM     11  O   UNL     1      -4.609   3.789   0.130  0.00  0.00    -0.268 OA
ATOM     12  N   UNL     1      -2.398   3.794   0.095  0.00  0.00    -0.322 N 
ATOM     13  H   UNL     1      -2.387   4.794   0.126  0.00  0.00    +0.169 HD
BRANCH   2  14
ATOM     14  O   UNL     1       2.357   0.992  -0.067  0.00  0.00    -0.492 OA
BRANCH  14  16
ATOM     15  C   UNL     1       4.768   0.830  -0.110  0.00  0.00    +0.048 C 
ATOM     16  C   UNL     1       3.558   1.766  -0.063  0.00  0.00    +0.225 C 
ENDBRANCH  14  16
ENDBRANCH   2  14
ENDBRANCH   1   9
BRANCH   1  27
ATOM     17  C   UNL     1      -7.108   0.903  -1.101  0.00  0.00    -0.077 C 
ATOM     18  C   UNL     1      -7.989   1.575  -2.156  0.00  0.00    -0.018 C 
ATOM     19  C   UNL     1      -7.294   1.498  -3.518  0.00  0.00    +0.003 C 
ATOM     20  C   UNL     1      -5.920   2.167  -3.420  0.00  0.00    -0.044 C 
ATOM     21  C   UNL     1      -5.099   1.477  -2.328  0.00  0.00    -0.071 C 
ATOM     22  C   UNL     1      -6.097   3.645  -3.068  0.00  0.00    +0.005 C 
ATOM     23  C   UNL     1      -6.922   4.332  -4.158  0.00  0.00    +0.000 C 
ATOM     24  C   UNL     1      -6.198   4.209  -5.500  0.00  0.00    +0.000 C 
ATOM     25  C   UNL     1      -6.021   2.731  -5.851  0.00  0.00    +0.000 C 
ATOM     26  C   UNL     1      -5.196   2.043  -4.761  0.00  0.00    +0.005 C 
ATOM     27  N   UNL     1      -5.810   1.607  -1.039  0.00  0.00    +0.390 N 
ATOM     28  H   UNL     1      -5.980   2.603  -0.851  0.00  0.00    -0.080 HD
ENDBRANCH   1  27
BRANCH   1  29
ATOM     29  C   UNL     1      -5.678   1.300   1.366  0.00  0.00    +0.143 A 
ATOM     30  N   UNL     1      -6.318   2.388   1.717  0.00  0.00    -0.115 NA
ATOM     31  N   UNL     1      -6.772   2.215   2.910  0.00  0.00    -0.023 NA
ATOM     32  N   UNL     1      -6.431   1.048   3.333  0.00  0.00    -0.044 NA
ATOM     33  N   UNL     1      -5.755   0.453   2.409  0.00  0.00    -0.227 N 
BRANCH  33  34
ATOM     34  C   UNL     1      -5.179  -0.893   2.482  0.00  0.00    +0.111 C 
ATOM     35  C   UNL     1      -6.296  -1.913   2.710  0.00  0.00    +0.027 C 
ATOM     36  C   UNL     1      -5.695  -3.318   2.786  0.00  0.00    +0.002 C 
ATOM     37  C   UNL     1      -4.699  -3.385   3.945  0.00  0.00    +0.000 C 
ATOM     38  C   UNL     1      -3.582  -2.364   3.716  0.00  0.00    +0.002 C 
ATOM     39  C   UNL     1      -4.183  -0.959   3.640  0.00  0.00    +0.027 C 
ENDBRANCH  33  34
ENDBRANCH   1  29
TORSDOF 6
