REMARK  Name = ZINC51207412
REMARK  2 active torsions:
REMARK  status: ('A' for Active; 'I' for Inactive)
REMARK    1  A    between atoms: C_15  and  C_17
REMARK    2  A    between atoms: C_17  and  N_18
REMARK                            x       y       z     vdW  Elec       q    Type
REMARK                         _______ _______ _______ _____ _____    ______ ____
ROOT
ATOM      1  C   UNL     1      -0.016   1.358   0.009  0.00  0.00    +0.001 A 
ATOM      2  C   UNL     1       1.167   2.091   0.002  0.00  0.00    +0.001 A 
ATOM      3  C   UNL     1       2.377   1.463  -0.013  0.00  0.00    +0.010 A 
ATOM      4  C   UNL     1       2.430   0.065  -0.021  0.00  0.00    +0.009 A 
ATOM      5  C   UNL     1       1.234  -0.684  -0.013  0.00  0.00    -0.016 A 
ATOM      6  C   UNL     1       0.002  -0.004   0.002  0.00  0.00    +0.008 A 
ATOM      7  C   UNL     1       1.274  -2.092  -0.022  0.00  0.00    +0.010 A 
ATOM      8  C   UNL     1       2.470  -2.738  -0.038  0.00  0.00    +0.018 A 
ATOM      9  C   UNL     1       3.663  -2.040  -0.046  0.00  0.00    +0.041 A 
ATOM     10  C   UNL     1       3.731  -0.634  -0.038  0.00  0.00    +0.088 A 
ATOM     11  N   UNL     1       4.962  -0.104  -0.048  0.00  0.00    -0.224 NA
ATOM     12  C   UNL     1       6.051  -0.840  -0.064  0.00  0.00    +0.166 A 
ATOM     13  S   UNL     1       5.381  -2.497  -0.066  0.00  0.00    -0.052 S 
ATOM     14  N   UNL     1       7.376  -0.435  -0.076  0.00  0.00    -0.263 N 
ATOM     15  C   UNL     1       8.362  -1.354  -0.091  0.00  0.00    +0.240 C 
ATOM     16  O   UNL     1       8.088  -2.536  -0.095  0.00  0.00    -0.273 OA
ATOM     17  H   UNL     1       7.595   0.510  -0.073  0.00  0.00    +0.157 HD
ENDROOT
BRANCH  15  18
ATOM     18  C   UNL     1       9.803  -0.914  -0.105  0.00  0.00    +0.240 C 
BRANCH  18  19
ATOM     19  N   UNL     1      10.673  -2.092  -0.120  0.00  0.00    -0.255 N 
ATOM     20  C   UNL     1      11.058  -2.615  -1.329  0.00  0.00    +0.072 A 
ATOM     21  C   UNL     1      10.645  -2.057  -2.536  0.00  0.00    +0.028 A 
ATOM     22  C   UNL     1      11.060  -2.620  -3.723  0.00  0.00    +0.002 A 
ATOM     23  C   UNL     1      11.885  -3.737  -3.730  0.00  0.00    +0.001 A 
ATOM     24  C   UNL     1      12.303  -4.302  -2.557  0.00  0.00    +0.014 A 
ATOM     25  C   UNL     1      11.895  -3.748  -1.346  0.00  0.00    +0.048 A 
ATOM     26  C   UNL     1      12.307  -4.304  -0.046  0.00  0.00    +0.208 A 
ATOM     27  O   UNL     1      13.030  -5.283   0.033  0.00  0.00    -0.286 OA
ATOM     28  C   UNL     1      11.818  -3.640   1.112  0.00  0.00    +0.184 A 
ATOM     29  N   UNL     1      11.052  -2.595   0.996  0.00  0.00    -0.175 NA
ENDBRANCH  18  19
ENDBRANCH  15  18
TORSDOF 2
