REMARK  Name = ZINC22567248
REMARK  6 active torsions:
REMARK  status: ('A' for Active; 'I' for Inactive)
REMARK    1  A    between atoms: C_1  and  C_2
REMARK    2  A    between atoms: C_2  and  C_3
REMARK    3  A    between atoms: C_2  and  C_4
REMARK    4  A    between atoms: C_7  and  C_10
REMARK    5  A    between atoms: C_15  and  C_27
REMARK    6  A    between atoms: C_28  and  C_29
REMARK                            x       y       z     vdW  Elec       q    Type
REMARK                         _______ _______ _______ _____ _____    ______ ____
ROOT
ATOM      1  C   UNL     1      -0.013   1.086   0.008  0.00  0.00    +0.032 C 
ATOM      2  C   UNL     1      -0.740   1.585   1.258  0.00  0.00    +0.060 C 
ATOM      3  C   UNL     1      -2.167   1.090   1.248  0.00  0.00    +0.020 C 
ATOM      4  C   UNL     1      -2.823   0.891   0.085  0.00  0.00    +0.039 C 
ATOM      5  C   UNL     1      -4.251   0.395   0.040  0.00  0.00    +0.148 C 
ATOM      6  N   UNL     1      -4.869   0.515   1.358  0.00  0.00    -0.302 N 
ATOM      7  C   UNL     1      -6.182   0.443   1.721  0.00  0.00    +0.069 A 
ATOM      8  C   UNL     1      -7.353   0.244   0.999  0.00  0.00    +0.028 A 
ATOM      9  C   UNL     1      -8.540   0.228   1.713  0.00  0.00    +0.002 A 
ATOM     10  C   UNL     1      -8.573   0.400   3.086  0.00  0.00    +0.002 A 
ATOM     11  C   UNL     1      -7.423   0.599   3.828  0.00  0.00    +0.028 A 
ATOM     12  C   UNL     1      -6.211   0.620   3.128  0.00  0.00    +0.066 A 
ATOM     13  N   UNL     1      -4.938   0.789   3.538  0.00  0.00    -0.327 N 
ATOM     14  C   UNL     1      -4.140   0.733   2.506  0.00  0.00    +0.179 A 
ATOM     15  N   UNL     1      -2.763   0.862   2.465  0.00  0.00    -0.290 N 
ATOM     16  C   UNL     1      -2.194   1.136  -1.150  0.00  0.00    +0.164 C 
ATOM     17  O   UNL     1      -2.819   0.971  -2.178  0.00  0.00    -0.292 OA
ATOM     18  C   UNL     1      -0.765   1.599  -1.225  0.00  0.00    +0.088 C 
ATOM     19  H   UNL     1      -2.146   0.787   3.373  0.00  0.00    +0.155 HD
ATOM     20  H   UNL     1      -4.720   0.943   4.604  0.00  0.00    +0.169 HD
ENDROOT
BRANCH   1  24
ATOM     21  C   UNL     1       3.989   2.580  -0.023  0.00  0.00    -0.045 A 
ATOM     22  C   UNL     1       3.760   1.216  -0.028  0.00  0.00    +0.004 A 
ATOM     23  C   UNL     1       2.465   0.733  -0.018  0.00  0.00    +0.004 A 
ATOM     24  C   UNL     1       1.399   1.613  -0.003  0.00  0.00    -0.043 A 
ATOM     25  C   UNL     1       1.628   2.976  -0.003  0.00  0.00    +0.004 A 
ATOM     26  C   UNL     1       2.923   3.460  -0.008  0.00  0.00    +0.004 A 
BRANCH  21  28
ATOM     27  C   UNL     1       5.614   3.967  -1.281  0.00  0.00    +0.012 C 
ATOM     28  C   UNL     1       5.401   3.107  -0.034  0.00  0.00    +0.013 C 
ATOM     29  C   UNL     1       5.639   3.954   1.217  0.00  0.00    +0.012 C 
ENDBRANCH  21  28
ENDBRANCH   1  24
BRANCH   5  30
ATOM     30  C   UNL     1      -4.264  -1.050  -0.388  0.00  0.00    +0.003 C 
ATOM     31  C   UNL     1      -4.898  -1.407  -1.496  0.00  0.00    +0.006 C 
BRANCH  31  32
ATOM     32  C   UNL     1      -4.911  -2.825  -1.915  0.00  0.00    -0.025 A 
ATOM     33  C   UNL     1      -4.252  -3.788  -1.151  0.00  0.00    +0.008 A 
ATOM     34  C   UNL     1      -4.273  -5.110  -1.544  0.00  0.00    +0.001 A 
ATOM     35  C   UNL     1      -4.935  -5.480  -2.701  0.00  0.00    +0.000 A 
ATOM     36  C   UNL     1      -5.585  -4.529  -3.467  0.00  0.00    +0.001 A 
ATOM     37  C   UNL     1      -5.577  -3.204  -3.081  0.00  0.00    +0.008 A 
ENDBRANCH  31  32
ENDBRANCH   5  30
TORSDOF 4
