REMARK  Name = ZINC36660349
REMARK  10 active torsions:
REMARK  status: ('A' for Active; 'I' for Inactive)
REMARK    1  A    between atoms: C_1  and  C_2
REMARK    2  A    between atoms: C_2  and  N_3
REMARK    3  A    between atoms: N_3  and  C_4
REMARK    4  A    between atoms: N_3  and  C_6
REMARK    5  A    between atoms: C_4  and  C_5
REMARK    6  A    between atoms: C_6  and  C_7
REMARK    7  A    between atoms: C_7  and  N_8
REMARK    8  A    between atoms: C_19  and  C_21
REMARK    9  A    between atoms: N_26  and  S_27
REMARK   10  A    between atoms: S_27  and  C_30
REMARK                            x       y       z     vdW  Elec       q    Type
REMARK                         _______ _______ _______ _____ _____    ______ ____
ROOT
ATOM      1  N   UNL     1       1.920  -3.683   0.162  0.00  0.00    -0.251 N 
ATOM      2  C   UNL     1       0.808  -4.337  -0.343  0.00  0.00    +0.168 A 
ATOM      3  N   UNL     1      -0.243  -3.830  -0.943  0.00  0.00    -0.224 NA
ATOM      4  C   UNL     1      -1.265  -4.595  -1.388  0.00  0.00    +0.080 A 
ATOM      5  C   UNL     1      -2.445  -4.178  -2.045  0.00  0.00    +0.032 A 
ATOM      6  C   UNL     1      -3.391  -5.090  -2.434  0.00  0.00    +0.040 A 
ATOM      7  C   UNL     1      -3.227  -6.450  -2.200  0.00  0.00    +0.125 A 
ATOM      8  C   UNL     1      -2.082  -6.893  -1.559  0.00  0.00    +0.055 A 
ATOM      9  C   UNL     1      -1.130  -5.984  -1.167  0.00  0.00    +0.043 A 
ATOM     10  S   UNL     1       0.443  -6.087  -0.349  0.00  0.00    -0.052 S 
ATOM     11  F   UNL     1      -4.174  -7.330  -2.592  0.00  0.00    -0.205 F 
ATOM     12  C   UNL     1       2.957  -4.393   0.648  0.00  0.00    +0.240 C 
ATOM     13  O   UNL     1       3.889  -3.823   1.174  0.00  0.00    -0.273 OA
ENDROOT
BRANCH  12  14
ATOM     14  C   UNL     1       2.958  -5.896   0.538  0.00  0.00    +0.166 C 
ATOM     15  C   UNL     1       3.163  -6.314  -0.933  0.00  0.00    +0.031 C 
ATOM     16  C   UNL     1       4.685  -6.606  -1.003  0.00  0.00    +0.019 C 
ATOM     17  C   UNL     1       4.949  -7.215   0.397  0.00  0.00    +0.110 C 
ATOM     18  N   UNL     1       4.076  -6.453   1.313  0.00  0.00    -0.165 NA
BRANCH  18  19
ATOM     19  S   UNL     1       4.315  -6.257   2.940  0.00  0.00    +0.062 S 
ATOM     20  O   UNL     1       5.705  -6.441   3.172  0.00  0.00    -0.153 OA
ATOM     21  O   UNL     1       3.632  -5.067   3.311  0.00  0.00    -0.153 OA
BRANCH  19  22
ATOM     22  C   UNL     1       3.489  -7.585   3.752  0.00  0.00    +0.106 A 
ATOM     23  C   UNL     1       2.167  -7.448   4.132  0.00  0.00    +0.031 A 
ATOM     24  C   UNL     1       1.518  -8.489   4.768  0.00  0.00    +0.040 A 
ATOM     25  C   UNL     1       2.193  -9.670   5.025  0.00  0.00    +0.124 A 
ATOM     26  C   UNL     1       3.517  -9.807   4.644  0.00  0.00    +0.040 A 
ATOM     27  C   UNL     1       4.162  -8.766   4.003  0.00  0.00    +0.031 A 
ATOM     28  F   UNL     1       1.560 -10.689   5.648  0.00  0.00    -0.205 F 
ENDBRANCH  19  22
ENDBRANCH  18  19
ENDBRANCH  12  14
BRANCH   1  29
ATOM     29  C   UNL     1       1.968  -2.218   0.168  0.00  0.00    +0.097 C 
BRANCH  29  30
ATOM     30  C   UNL     1       1.493  -1.697   1.526  0.00  0.00    -0.059 C 
BRANCH  30  31
ATOM     31  N   UNL     1       1.447  -0.229   1.498  0.00  0.00    +0.380 N 
ATOM     32  H   UNL     1       2.349   0.130   1.222  0.00  0.00    -0.082 HD
BRANCH  31  34
ATOM     33  C   UNL     1       0.478   1.734   0.402  0.00  0.00    -0.017 C 
ATOM     34  C   UNL     1       0.429   0.211   0.535  0.00  0.00    -0.082 C 
ENDBRANCH  31  34
BRANCH  31  35
ATOM     35  C   UNL     1       1.107   0.275   2.835  0.00  0.00    -0.082 C 
ATOM     36  C   UNL     1       2.239  -0.059   3.810  0.00  0.00    -0.017 C 
ENDBRANCH  31  35
ENDBRANCH  30  31
ENDBRANCH  29  30
ENDBRANCH   1  29
TORSDOF 8
