REMARK  Name = ZINC00905909
REMARK  9 active torsions:
REMARK  status: ('A' for Active; 'I' for Inactive)
REMARK    1  A    between atoms: N_9  and  C_10
REMARK    2  A    between atoms: C_10  and  C_11
REMARK    3  A    between atoms: N_13  and  C_14
REMARK    4  A    between atoms: N_13  and  C_21
REMARK    5  A    between atoms: C_14  and  C_15
REMARK    6  A    between atoms: C_21  and  C_23
REMARK    7  A    between atoms: C_21  and  C_35
REMARK    8  A    between atoms: C_26  and  N_29
REMARK    9  A    between atoms: N_37  and  C_38
REMARK                            x       y       z     vdW  Elec       q    Type
REMARK                         _______ _______ _______ _____ _____    ______ ____
ROOT
ATOM      1  C   UNL     1       7.928  -0.405   3.368  0.00  0.00    +0.192 C 
ENDROOT
BRANCH   1   2
ATOM      2  C   UNL     1       8.786  -1.607   3.069  0.00  0.00    -0.018 A 
ATOM      3  C   UNL     1       9.201  -1.853   1.773  0.00  0.00    +0.008 A 
ATOM      4  C   UNL     1       9.987  -2.954   1.496  0.00  0.00    +0.023 A 
ATOM      5  C   UNL     1      10.361  -3.814   2.520  0.00  0.00    +0.030 A 
ATOM      6  C   UNL     1       9.942  -3.564   3.821  0.00  0.00    +0.023 A 
ATOM      7  C   UNL     1       9.160  -2.458   4.092  0.00  0.00    +0.008 A 
BRANCH   5   8
ATOM      8  N   UNL     1      11.155  -4.929   2.243  0.00  0.00    -0.326 N 
ATOM      9  C   UNL     1      11.497  -5.897   3.297  0.00  0.00    +0.133 C 
ATOM     10  C   UNL     1      11.174  -7.305   2.785  0.00  0.00    +0.178 C 
ATOM     11  O   UNL     1      11.803  -7.500   1.516  0.00  0.00    -0.377 OA
ATOM     12  C   UNL     1      11.343  -6.614   0.492  0.00  0.00    +0.178 C 
ATOM     13  C   UNL     1      11.671  -5.174   0.886  0.00  0.00    +0.133 C 
ENDBRANCH   5   8
ENDBRANCH   1   2
BRANCH   1  14
ATOM     14  C   UNL     1       8.798   0.822   3.463  0.00  0.00    +0.238 C 
ATOM     15  O   UNL     1       8.549   1.796   2.785  0.00  0.00    -0.273 OA
ATOM     16  N   UNL     1       9.853   0.837   4.301  0.00  0.00    -0.311 N 
ATOM     17  H   UNL     1      10.052   0.058   4.844  0.00  0.00    +0.149 HD
BRANCH  16  18
ATOM     18  C   UNL     1      10.699   2.029   4.394  0.00  0.00    +0.073 C 
ATOM     19  C   UNL     1      11.761   1.988   3.293  0.00  0.00    +0.022 C 
ATOM     20  C   UNL     1      12.644   3.233   3.390  0.00  0.00    +0.002 C 
ATOM     21  C   UNL     1      13.328   3.269   4.758  0.00  0.00    +0.000 C 
ATOM     22  C   UNL     1      12.266   3.310   5.859  0.00  0.00    +0.002 C 
ATOM     23  C   UNL     1      11.383   2.064   5.762  0.00  0.00    +0.022 C 
ENDBRANCH  16  18
ENDBRANCH   1  14
BRANCH   1  26
ATOM     24  C   UNL     1       5.827  -0.975   2.273  0.00  0.00    +0.238 C 
ATOM     25  O   UNL     1       5.631  -1.798   3.143  0.00  0.00    -0.274 OA
ATOM     26  N   UNL     1       6.947  -0.225   2.295  0.00  0.00    -0.282 N 
BRANCH  24  27
ATOM     27  C   UNL     1       4.818  -0.791   1.169  0.00  0.00    +0.241 C 
BRANCH  27  36
ATOM     28  C   UNL     1       0.090  -1.617   3.337  0.00  0.00    +0.002 A 
ATOM     29  C   UNL     1       0.855  -0.461   3.424  0.00  0.00    +0.002 A 
ATOM     30  C   UNL     1       2.073  -0.386   2.807  0.00  0.00    +0.029 A 
ATOM     31  C   UNL     1       2.551  -1.474   2.086  0.00  0.00    +0.090 A 
ATOM     32  C   UNL     1       1.781  -2.647   1.994  0.00  0.00    +0.113 A 
ATOM     33  C   UNL     1       0.536  -2.698   2.636  0.00  0.00    +0.032 A 
ATOM     34  N   UNL     1       2.471  -3.532   1.248  0.00  0.00    -0.129 NA
ATOM     35  N   UNL     1       3.590  -3.022   0.870  0.00  0.00    -0.064 NA
ATOM     36  N   UNL     1       3.700  -1.716   1.370  0.00  0.00    -0.235 N 
ENDBRANCH  27  36
ENDBRANCH  24  27
BRANCH  26  37
ATOM     37  C   UNL     1       7.183   0.768   1.245  0.00  0.00    +0.140 C 
BRANCH  37  38
ATOM     38  C   UNL     1       6.468   2.072   1.606  0.00  0.00    +0.136 C 
ATOM     39  C   UNL     1       6.781   3.166   0.554  0.00  0.00    +0.035 C 
ATOM     40  C   UNL     1       5.541   4.088   0.711  0.00  0.00    +0.031 C 
ATOM     41  C   UNL     1       4.421   3.079   1.042  0.00  0.00    +0.160 C 
ATOM     42  O   UNL     1       5.044   1.891   1.550  0.00  0.00    -0.375 OA
ENDBRANCH  37  38
ENDBRANCH  26  37
ENDBRANCH   1  26
TORSDOF 9
