REMARK  Name = ZINC00530764
REMARK  5 active torsions:
REMARK  status: ('A' for Active; 'I' for Inactive)
REMARK    1  A    between atoms: C_5  and  C_7
REMARK    2  A    between atoms: C_7  and  S_8
REMARK    3  A    between atoms: S_8  and  C_9
REMARK    4  A    between atoms: C_12  and  C_15
REMARK    5  A    between atoms: N_13  and  N_14
REMARK                            x       y       z     vdW  Elec       q    Type
REMARK                         _______ _______ _______ _____ _____    ______ ____
ROOT
ATOM      1  C   UNL     1      -3.317  -1.966  -1.395  0.00  0.00    +0.209 A 
ATOM      2  N   UNL     1      -3.817  -2.277  -0.220  0.00  0.00    -0.121 NA
ATOM      3  N   UNL     1      -4.915  -2.929  -0.366  0.00  0.00    -0.127 NA
ATOM      4  C   UNL     1      -5.183  -3.075  -1.643  0.00  0.00    +0.182 A 
ATOM      5  N   UNL     1      -4.170  -2.458  -2.341  0.00  0.00    -0.224 N 
ENDROOT
BRANCH   4   6
ATOM      6  C   UNL     1      -6.354  -3.767  -2.221  0.00  0.00    +0.021 A 
ATOM      7  C   UNL     1      -6.365  -4.115  -3.573  0.00  0.00    +0.013 A 
ATOM      8  C   UNL     1      -7.459  -4.764  -4.106  0.00  0.00    +0.021 A 
ATOM      9  C   UNL     1      -8.550  -5.061  -3.305  0.00  0.00    +0.041 A 
ATOM     10  C   UNL     1      -8.547  -4.713  -1.965  0.00  0.00    +0.021 A 
ATOM     11  C   UNL     1      -7.456  -4.068  -1.419  0.00  0.00    +0.013 A 
ATOM     12 CL   UNL     1      -9.926  -5.872  -3.985  0.00  0.00    -0.084 Cl
ENDBRANCH   4   6
BRANCH   5  13
ATOM     13  N   UNL     1      -4.043  -2.361  -3.697  0.00  0.00    -0.295 N 
ATOM     14  H   UNL     1      -3.529  -3.145  -4.070  0.00  0.00    +0.163 HD
ATOM     15  H   UNL     1      -4.946  -2.278  -4.140  0.00  0.00    +0.163 HD
ENDBRANCH   5  13
BRANCH   1  16
ATOM     16  S   UNL     1      -1.826  -1.075  -1.694  0.00  0.00    -0.080 S 
BRANCH  16  17
ATOM     17  C   UNL     1      -1.292  -0.775   0.010  0.00  0.00    +0.115 C 
BRANCH  17  22
ATOM     18  C   UNL     1       2.396   0.029  -0.021  0.00  0.00    +0.000 A 
ATOM     19  C   UNL     1       2.379   1.412  -0.013  0.00  0.00    +0.003 A 
ATOM     20  C   UNL     1       1.174   2.088   0.002  0.00  0.00    +0.038 A 
ATOM     21  C   UNL     1      -0.017   1.380   0.010  0.00  0.00    +0.127 A 
ATOM     22  C   UNL     1       0.002  -0.004   0.002  0.00  0.00    -0.002 A 
ATOM     23  C   UNL     1       1.209  -0.678  -0.013  0.00  0.00    +0.007 A 
ATOM     24  F   UNL     1      -1.195   2.040   0.019  0.00  0.00    -0.205 F 
ENDBRANCH  17  22
ENDBRANCH  16  17
ENDBRANCH   1  16
TORSDOF 5
