REMARK  Name = ZINC58647254
REMARK  7 active torsions:
REMARK  status: ('A' for Active; 'I' for Inactive)
REMARK    1  A    between atoms: C_1  and  C_2
REMARK    2  A    between atoms: C_2  and  C_3
REMARK    3  A    between atoms: C_6  and  C_9
REMARK    4  A    between atoms: C_9  and  C_11
REMARK    5  A    between atoms: C_9  and  N_16
REMARK    6  A    between atoms: N_16  and  S_17
REMARK    7  A    between atoms: S_17  and  C_20
REMARK                            x       y       z     vdW  Elec       q    Type
REMARK                         _______ _______ _______ _____ _____    ______ ____
ROOT
ATOM      1  S   UNL     1       4.029  -4.142  -5.383  0.00  0.00    +0.059 S 
ATOM      2  O   UNL     1       5.062  -4.898  -4.767  0.00  0.00    -0.153 OA
ATOM      3  O   UNL     1       2.770  -4.707  -5.722  0.00  0.00    -0.153 OA
ENDROOT
BRANCH   1   4
ATOM      4  C   UNL     1       4.704  -3.486  -6.872  0.00  0.00    +0.106 A 
ATOM      5  C   UNL     1       3.860  -3.132  -7.914  0.00  0.00    +0.030 A 
ATOM      6  C   UNL     1       4.370  -2.617  -9.089  0.00  0.00    +0.028 A 
ATOM      7  C   UNL     1       5.739  -2.451  -9.230  0.00  0.00    +0.056 A 
ATOM      8  C   UNL     1       6.596  -2.809  -8.175  0.00  0.00    +0.065 A 
ATOM      9  C   UNL     1       6.068  -3.324  -6.993  0.00  0.00    +0.043 A 
ATOM     10  C   UNL     1       8.046  -2.619  -8.358  0.00  0.00    +0.262 A 
ATOM     11  O   UNL     1       8.830  -2.914  -7.477  0.00  0.00    -0.267 OA
ATOM     12  N   UNL     1       8.481  -2.110  -9.531  0.00  0.00    -0.275 N 
ATOM     13  H   UNL     1       9.432  -1.979  -9.669  0.00  0.00    +0.173 HD
ATOM     14  C   UNL     1       7.623  -1.783 -10.510  0.00  0.00    +0.327 A 
ATOM     15  O   UNL     1       8.068  -1.328 -11.546  0.00  0.00    -0.247 OA
ATOM     16  N   UNL     1       6.293  -1.936 -10.394  0.00  0.00    -0.307 N 
ATOM     17  H   UNL     1       5.714  -1.684 -11.130  0.00  0.00    +0.170 HD
ENDBRANCH   1   4
BRANCH   1  18
ATOM     18  N   UNL     1       3.718  -2.861  -4.381  0.00  0.00    -0.178 NA
ATOM     19  H   UNL     1       4.206  -2.767  -3.547  0.00  0.00    +0.149 HD
BRANCH  18  20
ATOM     20  C   UNL     1       2.707  -1.868  -4.752  0.00  0.00    +0.143 C 
BRANCH  20  24
ATOM     21  C   UNL     1       0.707  -0.490  -1.238  0.00  0.00    -0.048 A 
ATOM     22  C   UNL     1      -0.011  -0.719  -2.397  0.00  0.00    +0.004 A 
ATOM     23  C   UNL     1       0.636  -1.164  -3.534  0.00  0.00    +0.006 A 
ATOM     24  C   UNL     1       2.002  -1.381  -3.513  0.00  0.00    -0.024 A 
ATOM     25  C   UNL     1       2.720  -1.152  -2.354  0.00  0.00    +0.006 A 
ATOM     26  C   UNL     1       2.073  -0.702  -1.218  0.00  0.00    +0.004 A 
BRANCH  21  28
ATOM     27  C   UNL     1      -0.019   1.526   0.010  0.00  0.00    +0.009 C 
ATOM     28  C   UNL     1       0.002  -0.004   0.002  0.00  0.00    +0.032 C 
ENDBRANCH  21  28
ENDBRANCH  20  24
BRANCH  20  29
ATOM     29  C   UNL     1       3.373  -0.705  -5.441  0.00  0.00    +0.013 A 
ATOM     30  C   UNL     1       2.950   0.010  -6.512  0.00  0.00    +0.013 A 
ATOM     31  C   UNL     1       3.734   1.048  -6.977  0.00  0.00    +0.008 A 
ATOM     32  C   UNL     1       4.904   1.321  -6.349  0.00  0.00    +0.045 A 
ATOM     33  S   UNL     1       4.922   0.094  -5.053  0.00  0.00    -0.100 S 
ENDBRANCH  20  29
ENDBRANCH  18  20
ENDBRANCH   1  18
TORSDOF 6
