REMARK  Name = ZINC33937070
REMARK  12 active torsions:
REMARK  status: ('A' for Active; 'I' for Inactive)
REMARK    1  A    between atoms: C_1  and  C_2
REMARK    2  A    between atoms: C_2  and  C_3
REMARK    3  A    between atoms: C_3  and  C_5
REMARK    4  A    between atoms: C_3  and  N_17
REMARK    5  A    between atoms: N_9  and  C_10
REMARK    6  A    between atoms: C_10  and  C_11
REMARK    7  A    between atoms: N_17  and  C_18
REMARK    8  A    between atoms: N_17  and  C_28
REMARK    9  A    between atoms: C_18  and  C_19
REMARK   10  A    between atoms: C_28  and  C_29
REMARK   11  A    between atoms: C_32  and  C_42
REMARK   12  A    between atoms: C_35  and  C_41
REMARK                            x       y       z     vdW  Elec       q    Type
REMARK                         _______ _______ _______ _____ _____    ______ ____
ROOT
ATOM      1  N   UNL     1      -1.800   0.371  -0.956  0.00  0.00    +0.392 N 
ATOM      2  H   UNL     1      -1.235   0.590  -1.763  0.00  0.00    -0.080 HD
ENDROOT
BRANCH   1   3
ATOM      3  C   UNL     1      -1.415  -0.946  -0.431  0.00  0.00    +0.003 C 
BRANCH   3   4
ATOM      4  C   UNL     1       0.065  -1.152  -0.627  0.00  0.00    +0.138 A 
ATOM      5  N   UNL     1       0.947  -0.235  -0.942  0.00  0.00    -0.115 NA
ATOM      6  N   UNL     1       2.101  -0.803  -1.016  0.00  0.00    -0.023 NA
ATOM      7  N   UNL     1       1.978  -2.058  -0.757  0.00  0.00    -0.044 NA
ATOM      8  N   UNL     1       0.737  -2.311  -0.506  0.00  0.00    -0.228 N 
BRANCH   8   9
ATOM      9  C   UNL     1       0.168  -3.616  -0.159  0.00  0.00    +0.178 C 
BRANCH   9  10
ATOM     10  C   UNL     1      -0.253  -4.344  -1.437  0.00  0.00    +0.140 C 
ATOM     11  C   UNL     1      -0.775  -5.764  -1.100  0.00  0.00    +0.035 C 
ATOM     12  C   UNL     1      -1.697  -6.037  -2.319  0.00  0.00    +0.031 C 
ATOM     13  C   UNL     1      -2.260  -4.632  -2.625  0.00  0.00    +0.160 C 
ATOM     14  O   UNL     1      -1.363  -3.671  -2.052  0.00  0.00    -0.375 OA
ENDBRANCH   9  10
ENDBRANCH   8   9
ENDBRANCH   3   4
BRANCH   3  16
ATOM     15  C   UNL     1      -3.266  -1.001   1.247  0.00  0.00    +0.002 C 
ATOM     16  C   UNL     1      -1.747  -1.016   1.061  0.00  0.00    -0.011 C 
ENDBRANCH   3  16
ENDBRANCH   1   3
BRANCH   1  17
ATOM     17  C   UNL     1      -1.591   1.392   0.079  0.00  0.00    -0.041 C 
BRANCH  17  18
ATOM     18  C   UNL     1      -0.114   1.616   0.273  0.00  0.00    -0.060 A 
ATOM     19  C   UNL     1       0.543   1.013   1.330  0.00  0.00    +0.005 A 
ATOM     20  C   UNL     1       1.899   1.215   1.511  0.00  0.00    +0.050 A 
ATOM     21  C   UNL     1       2.603   2.023   0.633  0.00  0.00    +0.166 A 
ATOM     22  C   UNL     1       1.941   2.630  -0.432  0.00  0.00    +0.166 A 
ATOM     23  C   UNL     1       0.584   2.419  -0.611  0.00  0.00    +0.051 A 
ATOM     24  O   UNL     1       2.844   3.367  -1.143  0.00  0.00    -0.453 OA
ATOM     25  C   UNL     1       3.977   3.533  -0.271  0.00  0.00    +0.466 C 
ATOM     26  O   UNL     1       3.920   2.379   0.589  0.00  0.00    -0.453 OA
ENDBRANCH  17  18
ENDBRANCH   1  17
BRANCH   1  27
ATOM     27  C   UNL     1      -3.217   0.349  -1.343  0.00  0.00    -0.036 C 
BRANCH  27  28
ATOM     28  C   UNL     1      -3.559   1.623  -2.072  0.00  0.00    +0.001 A 
ATOM     29  C   UNL     1      -3.529   1.654  -3.427  0.00  0.00    +0.017 A 
ATOM     30  C   UNL     1      -3.867   2.907  -4.105  0.00  0.00    +0.002 A 
ATOM     31  C   UNL     1      -3.854   3.000  -5.501  0.00  0.00    -0.041 A 
ATOM     32  C   UNL     1      -4.175   4.184  -6.103  0.00  0.00    +0.004 A 
ATOM     33  C   UNL     1      -4.513   5.295  -5.343  0.00  0.00    +0.005 A 
ATOM     34  C   UNL     1      -4.532   5.226  -3.966  0.00  0.00    -0.026 A 
ATOM     35  C   UNL     1      -4.210   4.031  -3.331  0.00  0.00    +0.052 A 
ATOM     36  N   UNL     1      -4.221   3.933  -1.956  0.00  0.00    -0.322 N 
ATOM     37  H   UNL     1      -4.458   4.709  -1.423  0.00  0.00    +0.169 HD
ATOM     38  C   UNL     1      -3.915   2.777  -1.342  0.00  0.00    +0.251 A 
ATOM     39  O   UNL     1      -3.941   2.725  -0.124  0.00  0.00    -0.268 OA
ATOM     40  C   UNL     1      -4.900   6.440  -3.153  0.00  0.00    +0.046 C 
ATOM     41  C   UNL     1      -3.487   1.801  -6.337  0.00  0.00    +0.044 C 
ENDBRANCH  27  28
ENDBRANCH   1  27
TORSDOF 9
