REMARK  Name = ZINC39681480
REMARK  3 active torsions:
REMARK  status: ('A' for Active; 'I' for Inactive)
REMARK    1  A    between atoms: C_1  and  N_2
REMARK    2  A    between atoms: C_3  and  C_5
REMARK    3  A    between atoms: C_16  and  C_18
REMARK                            x       y       z     vdW  Elec       q    Type
REMARK                         _______ _______ _______ _____ _____    ______ ____
ROOT
ATOM      1  C   UNL     1      -0.866  -2.839  -0.022  0.00  0.00    +0.100 C 
ATOM      2  C   UNL     1      -0.142  -3.042   1.328  0.00  0.00    +0.121 C 
ATOM      3  N   UNL     1      -1.233  -3.247   2.310  0.00  0.00    -0.296 N 
ATOM      4  C   UNL     1      -2.224  -4.083   1.591  0.00  0.00    +0.115 C 
ATOM      5  C   UNL     1      -2.230  -3.527   0.154  0.00  0.00    -0.004 C 
ATOM      6  C   UNL     1      -3.358  -2.513  -0.014  0.00  0.00    -0.010 C 
ATOM      7  C   UNL     1      -4.705  -3.231   0.108  0.00  0.00    -0.082 C 
ATOM      8  N   UNL     1      -4.801  -4.274  -0.920  0.00  0.00    +0.379 N 
ATOM      9  C   UNL     1      -3.769  -5.294  -0.696  0.00  0.00    -0.082 C 
ATOM     10  C   UNL     1      -2.383  -4.664  -0.852  0.00  0.00    -0.010 C 
ATOM     11  C   UNL     1      -1.308  -2.779   3.572  0.00  0.00    +0.247 C 
ATOM     12  O   UNL     1      -0.471  -1.998   3.981  0.00  0.00    -0.270 OA
ATOM     13  H   UNL     1      -5.712  -4.704  -0.876  0.00  0.00    -0.086 HD
ATOM     14  H   UNL     1      -4.670  -3.860  -1.831  0.00  0.00    -0.086 HD
ENDROOT
BRANCH  11  15
ATOM     15  C   UNL     1      -2.407  -3.216   4.459  0.00  0.00    +0.040 A 
ATOM     16  C   UNL     1      -3.100  -4.396   4.186  0.00  0.00    +0.033 A 
ATOM     17  C   UNL     1      -4.126  -4.798   5.018  0.00  0.00    +0.043 A 
ATOM     18  C   UNL     1      -4.468  -4.034   6.121  0.00  0.00    +0.040 A 
ATOM     19  C   UNL     1      -3.784  -2.862   6.396  0.00  0.00    +0.043 A 
ATOM     20  C   UNL     1      -2.752  -2.452   5.575  0.00  0.00    +0.033 A 
ATOM     21 CL   UNL     1      -4.220  -1.909   7.780  0.00  0.00    -0.083 Cl
ATOM     22 CL   UNL     1      -4.990  -6.266   4.681  0.00  0.00    -0.083 Cl
ENDBRANCH  11  15
BRANCH   1  25
ATOM     23  C   UNL     1      -1.385   0.487  -1.844  0.00  0.00    +0.128 C 
ATOM     24  N   UNL     1      -1.206  -0.941  -1.571  0.00  0.00    -0.318 N 
ATOM     25  C   UNL     1      -1.050  -1.370  -0.303  0.00  0.00    +0.218 C 
ATOM     26  O   UNL     1      -1.060  -0.575   0.613  0.00  0.00    -0.275 OA
ATOM     27  H   UNL     1      -1.198  -1.577  -2.303  0.00  0.00    +0.148 HD
ENDBRANCH   1  25
TORSDOF 2
