REMARK  Name = ZINC63526779
REMARK  5 active torsions:
REMARK  status: ('A' for Active; 'I' for Inactive)
REMARK    1  A    between atoms: C_1  and  O_2
REMARK    2  A    between atoms: O_2  and  C_3
REMARK    3  A    between atoms: C_10  and  C_25
REMARK    4  A    between atoms: C_18  and  C_20
REMARK    5  A    between atoms: C_29  and  N_31
REMARK                            x       y       z     vdW  Elec       q    Type
REMARK                         _______ _______ _______ _____ _____    ______ ____
ROOT
ATOM      1  C   UNL     1       3.581  -0.316  -0.189  0.00  0.00    +0.121 A 
ATOM      2  C   UNL     1       3.843   0.396  -1.373  0.00  0.00    +0.047 A 
ATOM      3  C   UNL     1       3.801  -0.184  -2.592  0.00  0.00    +0.029 A 
ATOM      4  C   UNL     1       3.473  -1.607  -2.712  0.00  0.00    +0.043 A 
ATOM      5  N   UNL     1       3.385  -2.401  -3.754  0.00  0.00    -0.375 N 
ATOM      6  C   UNL     1       2.949  -3.718  -3.299  0.00  0.00    +0.131 C 
ATOM      7  C   UNL     1       3.940  -4.818  -3.696  0.00  0.00    +0.133 C 
ATOM      8  N   UNL     1       3.651  -6.005  -2.876  0.00  0.00    -0.287 N 
ATOM      9  C   UNL     1       3.729  -5.938  -1.412  0.00  0.00    +0.113 C 
ATOM     10  C   UNL     1       2.765  -4.852  -0.900  0.00  0.00    +0.052 C 
ATOM     11  C   UNL     1       2.937  -3.637  -1.781  0.00  0.00    -0.035 C 
ATOM     12  C   UNL     1       3.203  -2.362  -1.463  0.00  0.00    +0.003 A 
ATOM     13  C   UNL     1       3.277  -1.635  -0.190  0.00  0.00    +0.055 A 
ATOM     14  C   UNL     1       3.311  -7.163  -3.474  0.00  0.00    +0.254 C 
ATOM     15  O   UNL     1       3.356  -7.258  -4.687  0.00  0.00    -0.269 OA
ATOM     16  H   UNL     1       3.578  -2.154  -4.672  0.00  0.00    +0.160 HD
ENDROOT
BRANCH   7  17
ATOM     17  C   UNL     1       5.350  -4.351  -3.439  0.00  0.00    -0.022 A 
ATOM     18  C   UNL     1       6.245  -4.248  -4.488  0.00  0.00    +0.007 A 
ATOM     19  C   UNL     1       7.538  -3.819  -4.254  0.00  0.00    +0.022 A 
ATOM     20  C   UNL     1       7.936  -3.493  -2.969  0.00  0.00    +0.071 A 
ATOM     21  C   UNL     1       7.040  -3.596  -1.921  0.00  0.00    +0.145 A 
ATOM     22  C   UNL     1       5.745  -4.020  -2.157  0.00  0.00    +0.039 A 
ATOM     23 CL   UNL     1       9.560  -2.954  -2.674  0.00  0.00    -0.081 Cl
BRANCH  21  24
ATOM     24  N   UNL     1       7.465  -3.247  -0.546  0.00  0.00    +0.058 N 
ATOM     25  O   UNL     1       6.682  -3.338   0.370  0.00  0.00    -0.126 OA
ATOM     26  O   UNL     1       8.596  -2.872  -0.341  0.00  0.00    -0.126 OA
ENDBRANCH  21  24
ENDBRANCH   7  17
BRANCH  14  27
ATOM     27  C   UNL     1       2.886  -8.309  -2.665  0.00  0.00    +0.074 A 
ATOM     28  C   UNL     1       3.058  -9.663  -2.909  0.00  0.00    +0.021 A 
ATOM     29  C   UNL     1       2.545 -10.511  -1.957  0.00  0.00    +0.008 A 
ATOM     30  C   UNL     1       1.923  -9.986  -0.873  0.00  0.00    +0.046 A 
ATOM     31  S   UNL     1       2.021  -8.325  -1.106  0.00  0.00    -0.092 S 
ENDBRANCH  14  27
BRANCH   1  33
ATOM     32  C   UNL     1       3.965   1.734   0.954  0.00  0.00    +0.277 C 
ATOM     33  O   UNL     1       3.641   0.343   0.999  0.00  0.00    -0.495 OA
ENDBRANCH   1  33
TORSDOF 4
