REMARK  Name = ZINC09483327
REMARK  6 active torsions:
REMARK  status: ('A' for Active; 'I' for Inactive)
REMARK    1  A    between atoms: C_1  and  C_2
REMARK    2  A    between atoms: C_2  and  C_29
REMARK    3  A    between atoms: C_6  and  C_21
REMARK    4  A    between atoms: N_8  and  C_16
REMARK    5  A    between atoms: C_16  and  C_17
REMARK    6  A    between atoms: N_19  and  C_20
REMARK                            x       y       z     vdW  Elec       q    Type
REMARK                         _______ _______ _______ _____ _____    ______ ____
ROOT
ATOM      1  C   UNL     1       3.338   1.840  -1.975  0.00  0.00    +0.011 C 
ATOM      2  C   UNL     1       2.822   3.191  -1.476  0.00  0.00    -0.023 C 
ATOM      3  C   UNL     1       1.340   3.079  -1.117  0.00  0.00    +0.058 C 
ATOM      4  C   UNL     1       1.153   2.062  -0.018  0.00  0.00    +0.017 C 
ATOM      5  C   UNL     1       2.095   1.862   0.938  0.00  0.00    +0.040 C 
ATOM      6  C   UNL     1       2.043   0.907   2.127  0.00  0.00    +0.175 C 
ATOM      7  N   UNL     1       0.794   0.180   2.192  0.00  0.00    -0.306 N 
ATOM      8  C   UNL     1       0.512  -0.639   1.104  0.00  0.00    +0.052 A 
ATOM      9  C   UNL     1       0.651  -2.021   1.180  0.00  0.00    +0.025 A 
ATOM     10  C   UNL     1       0.248  -2.783   0.093  0.00  0.00    +0.002 A 
ATOM     11  C   UNL     1      -0.275  -2.178  -1.035  0.00  0.00    +0.002 A 
ATOM     12  C   UNL     1      -0.388  -0.797  -1.103  0.00  0.00    +0.025 A 
ATOM     13  C   UNL     1       0.034  -0.050  -0.011  0.00  0.00    +0.052 A 
ATOM     14  N   UNL     1      -0.009   1.350  -0.018  0.00  0.00    -0.316 N 
ATOM     15  C   UNL     1       3.299   2.603   0.875  0.00  0.00    +0.163 C 
ATOM     16  O   UNL     1       4.139   2.424   1.734  0.00  0.00    -0.292 OA
ATOM     17  C   UNL     1       3.580   3.600  -0.208  0.00  0.00    +0.086 C 
ATOM     18  C   UNL     1       3.015   4.252  -2.561  0.00  0.00    +0.011 C 
ATOM     19  H   UNL     1      -0.863   1.811  -0.026  0.00  0.00    +0.152 HD
ENDROOT
BRANCH   6  20
ATOM     20  C   UNL     1       2.214   1.699   3.398  0.00  0.00    +0.130 A 
ATOM     21  C   UNL     1       3.365   1.858   4.077  0.00  0.00    +0.047 A 
ATOM     22  C   UNL     1       3.071   2.670   5.196  0.00  0.00    +0.041 A 
ATOM     23  C   UNL     1       1.757   2.952   5.139  0.00  0.00    +0.195 A 
ATOM     24  O   UNL     1       1.243   2.361   4.048  0.00  0.00    -0.466 OA
ENDBRANCH   6  20
BRANCH   7  25
ATOM     25  C   UNL     1       0.683  -0.564   3.454  0.00  0.00    +0.201 C 
BRANCH  25  26
ATOM     26  C   UNL     1      -0.751  -0.971   3.673  0.00  0.00    +0.230 C 
ATOM     27  O   UNL     1      -1.583  -0.743   2.821  0.00  0.00    -0.274 OA
ATOM     28  N   UNL     1      -1.109  -1.590   4.816  0.00  0.00    -0.317 N 
ATOM     29  C   UNL     1      -2.504  -1.985   5.029  0.00  0.00    +0.128 C 
ATOM     30  H   UNL     1      -0.444  -1.773   5.497  0.00  0.00    +0.148 HD
ENDBRANCH  25  26
ENDBRANCH   7  25
TORSDOF 3
