REMARK  Name = ZINC59382653
REMARK  5 active torsions:
REMARK  status: ('A' for Active; 'I' for Inactive)
REMARK    1  A    between atoms: C_1  and  C_2
REMARK    2  A    between atoms: C_10  and  O_28
REMARK    3  A    between atoms: N_22  and  N_23
REMARK    4  A    between atoms: C_24  and  O_26
REMARK    5  A    between atoms: O_26  and  C_27
REMARK                            x       y       z     vdW  Elec       q    Type
REMARK                         _______ _______ _______ _____ _____    ______ ____
ROOT
ATOM      1  C   UNL     1      -0.019   1.531   0.011  0.00  0.00    +0.018 C 
ATOM      2  C   UNL     1       0.002  -0.004   0.002  0.00  0.00    +0.011 C 
ATOM      3  C   UNL     1       0.635  -0.460  -1.292  0.00  0.00    +0.013 C 
ATOM      4  C   UNL     1       0.886  -1.964  -1.300  0.00  0.00    +0.009 C 
ATOM      5  C   UNL     1       1.815  -2.314  -0.132  0.00  0.00    +0.023 C 
ATOM      6  C   UNL     1       2.110  -3.793  -0.188  0.00  0.00    -0.041 A 
ATOM      7  C   UNL     1       3.044  -4.228  -1.119  0.00  0.00    +0.008 A 
ATOM      8  C   UNL     1       3.357  -5.567  -1.226  0.00  0.00    +0.046 A 
ATOM      9  C   UNL     1       2.732  -6.486  -0.394  0.00  0.00    +0.117 A 
ATOM     10  C   UNL     1       1.803  -6.050   0.535  0.00  0.00    +0.049 A 
ATOM     11  C   UNL     1       1.491  -4.701   0.641  0.00  0.00    -0.040 A 
ATOM     12  C   UNL     1       0.475  -4.298   1.676  0.00  0.00    +0.036 C 
ATOM     13  C   UNL     1      -0.059  -2.890   1.399  0.00  0.00    +0.009 C 
ATOM     14  C   UNL     1       1.130  -1.958   1.181  0.00  0.00    +0.001 C 
ATOM     15  C   UNL     1       0.749  -0.490   1.253  0.00  0.00    +0.005 C 
ATOM     16  C   UNL     1      -0.313  -0.307   2.371  0.00  0.00    +0.010 C 
ATOM     17  C   UNL     1      -1.675  -0.485   1.670  0.00  0.00    +0.053 C 
ATOM     18  C   UNL     1      -1.414  -0.500   0.176  0.00  0.00    +0.043 C 
ATOM     19  N   UNL     1      -2.227  -0.855  -0.744  0.00  0.00    -0.186 NA
ENDROOT
BRANCH  19  20
ATOM     20  N   UNL     1      -3.515  -1.294  -0.409  0.00  0.00    -0.172 N 
ATOM     21  C   UNL     1      -4.372  -1.668  -1.379  0.00  0.00    +0.420 C 
ATOM     22  O   UNL     1      -5.489  -2.049  -1.089  0.00  0.00    -0.225 OA
ATOM     23  H   UNL     1      -3.790  -1.327   0.520  0.00  0.00    +0.181 HD
BRANCH  21  24
ATOM     24  O   UNL     1      -3.991  -1.622  -2.670  0.00  0.00    -0.453 OA
ATOM     25  C   UNL     1      -4.951  -2.034  -3.646  0.00  0.00    +0.282 C 
ENDBRANCH  21  24
ENDBRANCH  19  20
BRANCH   9  26
ATOM     26  O   UNL     1       3.031  -7.808  -0.492  0.00  0.00    -0.507 OA
ATOM     27  H   UNL     1       3.762  -8.089   0.075  0.00  0.00    +0.292 HD
ENDBRANCH   9  26
TORSDOF 3
