REMARK  Name = ZINC16607058
REMARK  3 active torsions:
REMARK  status: ('A' for Active; 'I' for Inactive)
REMARK    1  A    between atoms: C_1  and  C_2
REMARK    2  A    between atoms: C_3  and  C_28
REMARK    3  A    between atoms: N_30  and  C_31
REMARK                            x       y       z     vdW  Elec       q    Type
REMARK                         _______ _______ _______ _____ _____    ______ ____
ROOT
ATOM      1  C   UNL     1      -1.881   7.477   2.522  0.00  0.00    +0.061 C 
ATOM      2  C   UNL     1      -1.433   6.831   1.236  0.00  0.00    +0.015 C 
ATOM      3  C   UNL     1      -0.425   5.949   1.280  0.00  0.00    +0.054 C 
ATOM      4  C   UNL     1       0.094   5.241   0.059  0.00  0.00    +0.120 C 
ATOM      5  C   UNL     1      -0.232   3.785   0.103  0.00  0.00    -0.016 A 
ATOM      6  C   UNL     1      -1.392   3.066   0.149  0.00  0.00    +0.006 A 
ATOM      7  C   UNL     1      -1.293   1.667   0.178  0.00  0.00    +0.001 A 
ATOM      8  C   UNL     1      -0.110   0.982   0.174  0.00  0.00    +0.008 A 
ATOM      9  C   UNL     1       1.100   1.680   0.128  0.00  0.00    -0.017 A 
ATOM     10  C   UNL     1       0.980   3.095   0.093  0.00  0.00    -0.003 A 
ATOM     11  C   UNL     1       2.129   3.994   0.044  0.00  0.00    +0.027 A 
ATOM     12  C   UNL     1       3.401   3.429   0.028  0.00  0.00    +0.012 A 
ATOM     13  C   UNL     1       3.482   2.033   0.062  0.00  0.00    +0.001 A 
ATOM     14  C   UNL     1       2.409   1.188   0.110  0.00  0.00    +0.008 A 
ATOM     15  C   UNL     1       1.614   5.353   0.022  0.00  0.00    +0.183 C 
ATOM     16  O   UNL     1       2.266   6.375  -0.019  0.00  0.00    -0.290 OA
ATOM     17  C   UNL     1      -0.478   5.885  -1.177  0.00  0.00    +0.044 C 
ATOM     18  C   UNL     1      -1.505   6.795  -1.123  0.00  0.00    +0.048 C 
ATOM     19  N   UNL     1      -2.074   7.172   0.073  0.00  0.00    -0.317 N 
ATOM     20  C   UNL     1      -1.825   7.234  -2.485  0.00  0.00    +0.007 A 
ATOM     21  C   UNL     1      -2.763   8.130  -2.972  0.00  0.00    +0.010 A 
ATOM     22  C   UNL     1      -2.801   8.318  -4.356  0.00  0.00    +0.001 A 
ATOM     23  C   UNL     1      -1.951   7.649  -5.205  0.00  0.00    +0.001 A 
ATOM     24  C   UNL     1      -0.999   6.742  -4.730  0.00  0.00    +0.012 A 
ATOM     25  C   UNL     1      -0.949   6.546  -3.363  0.00  0.00    +0.031 A 
ATOM     26  C   UNL     1      -0.091   5.685  -2.520  0.00  0.00    +0.193 C 
ATOM     27  O   UNL     1       0.786   4.940  -2.913  0.00  0.00    -0.287 OA
ATOM     28  H   UNL     1      -3.019   7.734   0.111  0.00  0.00    +0.152 HD
ENDROOT
BRANCH   3  29
ATOM     29  C   UNL     1       0.177   5.670   2.531  0.00  0.00    +0.247 C 
ATOM     30  O   UNL     1      -0.129   4.664   3.144  0.00  0.00    -0.270 OA
ATOM     31  N   UNL     1       1.089   6.520   3.044  0.00  0.00    -0.282 N 
ATOM     32  H   UNL     1       1.302   7.472   2.535  0.00  0.00    +0.155 HD
BRANCH  31  33
ATOM     33  C   UNL     1       1.766   6.192   4.223  0.00  0.00    +0.034 A 
ATOM     34  C   UNL     1       2.112   7.188   5.127  0.00  0.00    +0.023 A 
ATOM     35  C   UNL     1       2.776   6.859   6.293  0.00  0.00    +0.002 A 
ATOM     36  C   UNL     1       3.105   5.542   6.555  0.00  0.00    +0.000 A 
ATOM     37  C   UNL     1       2.767   4.549   5.654  0.00  0.00    +0.002 A 
ATOM     38  C   UNL     1       2.098   4.870   4.489  0.00  0.00    +0.023 A 
ENDBRANCH  31  33
ENDBRANCH   3  29
TORSDOF 2
