REMARK  Name = ZINC29033386
REMARK  8 active torsions:
REMARK  status: ('A' for Active; 'I' for Inactive)
REMARK    1  A    between atoms: C_1  and  C_2
REMARK    2  A    between atoms: C_4  and  C_35
REMARK    3  A    between atoms: C_8  and  N_34
REMARK    4  A    between atoms: C_9  and  C_11
REMARK    5  A    between atoms: C_11  and  O_13
REMARK    6  A    between atoms: O_13  and  C_14
REMARK    7  A    between atoms: C_14  and  C_15
REMARK    8  A    between atoms: N_17  and  C_18
REMARK                            x       y       z     vdW  Elec       q    Type
REMARK                         _______ _______ _______ _____ _____    ______ ____
ROOT
ATOM      1  C   UNL     1      -3.931  10.432   1.056  0.00  0.00    +0.255 C 
ATOM      2  O   UNL     1      -4.958   9.791   0.981  0.00  0.00    -0.272 OA
ATOM      3  N   UNL     1      -2.754   9.801   1.236  0.00  0.00    -0.283 N 
ATOM      4  H   UNL     1      -1.839  10.384   1.419  0.00  0.00    +0.155 HD
ENDROOT
BRANCH   3   5
ATOM      5  C   UNL     1      -2.696   8.409   1.192  0.00  0.00    +0.034 A 
ATOM      6  C   UNL     1      -1.929   7.717   2.122  0.00  0.00    +0.024 A 
ATOM      7  C   UNL     1      -1.864   6.339   2.087  0.00  0.00    +0.014 A 
ATOM      8  C   UNL     1      -2.570   5.632   1.115  0.00  0.00    +0.033 A 
ATOM      9  C   UNL     1      -3.348   6.328   0.171  0.00  0.00    +0.035 A 
ATOM     10  C   UNL     1      -3.407   7.716   0.215  0.00  0.00    +0.035 A 
ATOM     11  C   UNL     1      -4.099   5.584  -0.863  0.00  0.00    +0.195 C 
ATOM     12  O   UNL     1      -4.772   6.185  -1.677  0.00  0.00    -0.287 OA
ATOM     13  C   UNL     1      -4.031   4.108  -0.903  0.00  0.00    +0.033 A 
ATOM     14  C   UNL     1      -4.735   3.399  -1.872  0.00  0.00    +0.012 A 
ATOM     15  C   UNL     1      -4.665   2.017  -1.903  0.00  0.00    +0.001 A 
ATOM     16  C   UNL     1      -3.900   1.335  -0.975  0.00  0.00    +0.001 A 
ATOM     17  C   UNL     1      -3.199   2.024  -0.001  0.00  0.00    +0.012 A 
ATOM     18  C   UNL     1      -3.253   3.414   0.041  0.00  0.00    +0.033 A 
ATOM     19  C   UNL     1      -2.503   4.159   1.073  0.00  0.00    +0.195 C 
ATOM     20  O   UNL     1      -1.831   3.558   1.889  0.00  0.00    -0.287 OA
ENDBRANCH   3   5
BRANCH   1  21
ATOM     21  C   UNL     1      -3.971  11.935   0.948  0.00  0.00    +0.328 C 
BRANCH  21  22
ATOM     22  O   UNL     1      -5.322  12.363   0.762  0.00  0.00    -0.451 OA
BRANCH  22  23
ATOM     23  C   UNL     1      -5.533  13.691   0.646  0.00  0.00    +0.348 C 
ATOM     24  O   UNL     1      -4.595  14.464   0.702  0.00  0.00    -0.244 OA
BRANCH  23  33
ATOM     25  C   UNL     1      -8.540  18.289  -0.018  0.00  0.00    +0.044 C 
ATOM     26  C   UNL     1      -9.328  17.004  -0.022  0.00  0.00    -0.037 A 
ATOM     27  C   UNL     1     -10.694  17.025  -0.181  0.00  0.00    +0.025 A 
ATOM     28  C   UNL     1     -11.418  15.841  -0.184  0.00  0.00    +0.014 A 
ATOM     29  N   UNL     1     -10.805  14.683  -0.034  0.00  0.00    -0.353 N 
ATOM     30  C   UNL     1      -9.501  14.612   0.122  0.00  0.00    +0.088 A 
ATOM     31  C   UNL     1      -8.674  15.758   0.139  0.00  0.00    +0.030 A 
ATOM     32  C   UNL     1      -7.256  15.495   0.328  0.00  0.00    +0.055 A 
ATOM     33  C   UNL     1      -6.846  14.185   0.459  0.00  0.00    +0.119 A 
ATOM     34  S   UNL     1      -8.367  13.263   0.346  0.00  0.00    -0.062 S 
ATOM     35  C   UNL     1     -12.914  15.880  -0.360  0.00  0.00    +0.063 C 
ATOM     36  H   UNL     1     -11.386  13.749  -0.036  0.00  0.00    +0.166 HD
BRANCH  32  37
ATOM     37  N   UNL     1      -6.338  16.534   0.369  0.00  0.00    -0.356 N 
ATOM     38  H   UNL     1      -5.269  16.319   0.512  0.00  0.00    +0.142 HD
ATOM     39  H   UNL     1      -6.680  17.574   0.259  0.00  0.00    +0.142 HD
ENDBRANCH  32  37
ENDBRANCH  23  33
ENDBRANCH  22  23
ENDBRANCH  21  22
ENDBRANCH   1  21
TORSDOF 6
