REMARK  Name = ZINC01638828
REMARK  13 active torsions:
REMARK  status: ('A' for Active; 'I' for Inactive)
REMARK    1  A    between atoms: C_1  and  C_2
REMARK    2  A    between atoms: C_2  and  C_40
REMARK    3  A    between atoms: C_4  and  O_39
REMARK    4  A    between atoms: C_5  and  C_9
REMARK    5  A    between atoms: C_9  and  C_10
REMARK    6  A    between atoms: C_9  and  C_29
REMARK    7  A    between atoms: C_10  and  C_11
REMARK    8  A    between atoms: C_11  and  C_13
REMARK    9  A    between atoms: C_11  and  C_19
REMARK   10  A    between atoms: C_24  and  O_25
REMARK   11  A    between atoms: C_30  and  O_38
REMARK   12  A    between atoms: C_32  and  C_36
REMARK   13  A    between atoms: C_32  and  C_37
REMARK                            x       y       z     vdW  Elec       q    Type
REMARK                         _______ _______ _______ _____ _____    ______ ____
ROOT
ATOM      1  C   UNL     1       0.768   2.891   2.235  0.00  0.00    +0.063 C 
ENDROOT
BRANCH   1   6
ATOM      2  C   UNL     1       0.366  -1.419   2.655  0.00  0.00    +0.012 C 
ATOM      3  C   UNL     1       0.942  -1.273   1.245  0.00  0.00    -0.021 C 
ATOM      4  C   UNL     1       2.286  -0.544   1.312  0.00  0.00    +0.080 C 
ATOM      5  C   UNL     1       2.081   0.845   1.857  0.00  0.00    +0.102 C 
ATOM      6  C   UNL     1       0.923   1.503   1.669  0.00  0.00    +0.040 C 
ATOM      7  C   UNL     1      -0.141   0.934   0.955  0.00  0.00    +0.163 C 
ATOM      8  O   UNL     1      -1.167   1.565   0.798  0.00  0.00    -0.292 OA
ATOM      9  C   UNL     1      -0.022  -0.454   0.380  0.00  0.00    +0.086 C 
ATOM     10  C   UNL     1       1.139  -2.656   0.623  0.00  0.00    +0.012 C 
BRANCH   5  11
ATOM     11  O   UNL     1       3.072   1.436   2.550  0.00  0.00    -0.511 OA
ATOM     12  H   UNL     1       2.779   2.347   2.840  0.00  0.00    +0.292 HD
ENDBRANCH   5  11
ENDBRANCH   1   6
BRANCH   1  13
ATOM     13  C   UNL     1       0.991   2.854   3.725  0.00  0.00    +0.040 C 
ATOM     14  C   UNL     1       0.150   2.141   4.495  0.00  0.00    +0.102 C 
ATOM     15  C   UNL     1       0.329   2.071   5.988  0.00  0.00    +0.080 C 
ATOM     16  C   UNL     1       1.813   2.225   6.335  0.00  0.00    -0.021 C 
ATOM     17  C   UNL     1       2.321   3.549   5.758  0.00  0.00    +0.086 C 
ATOM     18  C   UNL     1       2.066   3.569   4.272  0.00  0.00    +0.163 C 
ATOM     19  O   UNL     1       2.798   4.209   3.544  0.00  0.00    -0.292 OA
ATOM     20  C   UNL     1       2.603   1.064   5.729  0.00  0.00    +0.012 C 
ATOM     21  C   UNL     1       1.986   2.228   7.855  0.00  0.00    +0.012 C 
BRANCH  14  22
ATOM     22  O   UNL     1      -0.867   1.472   3.920  0.00  0.00    -0.511 OA
ATOM     23  H   UNL     1      -1.394   0.997   4.624  0.00  0.00    +0.292 HD
ENDBRANCH  14  22
ENDBRANCH   1  13
BRANCH   1  24
ATOM     24  C   UNL     1       1.795   3.823   1.588  0.00  0.00    +0.026 C 
BRANCH  24  25
ATOM     25  C   UNL     1       1.439   4.032   0.115  0.00  0.00    +0.054 C 
BRANCH  25  26
ATOM     26  C   UNL     1       2.231   5.190  -0.434  0.00  0.00    +0.005 A 
ATOM     27  C   UNL     1       3.612   5.163  -0.394  0.00  0.00    +0.057 A 
ATOM     28  C   UNL     1       4.343   6.224  -0.902  0.00  0.00    +0.167 A 
ATOM     29  C   UNL     1       3.684   7.324  -1.445  0.00  0.00    +0.170 A 
ATOM     30  C   UNL     1       2.300   7.351  -1.480  0.00  0.00    +0.095 A 
ATOM     31  C   UNL     1       1.573   6.284  -0.975  0.00  0.00    +0.124 A 
ATOM     32  O   UNL     1       4.617   8.227  -1.867  0.00  0.00    -0.452 OA
ATOM     33  C   UNL     1       5.853   7.493  -1.950  0.00  0.00    +0.466 C 
ATOM     34  O   UNL     1       5.690   6.438  -0.984  0.00  0.00    -0.453 OA
BRANCH  31  35
ATOM     35  O   UNL     1       0.213   6.311  -1.010  0.00  0.00    -0.506 OA
ATOM     36  H   UNL     1      -0.193   6.703  -0.225  0.00  0.00    +0.292 HD
ENDBRANCH  31  35
ENDBRANCH  25  26
BRANCH  25  37
ATOM     37  C   UNL     1       1.769   2.784  -0.663  0.00  0.00    -0.040 A 
ATOM     38  C   UNL     1       0.820   2.214  -1.490  0.00  0.00    +0.004 A 
ATOM     39  C   UNL     1       1.123   1.069  -2.204  0.00  0.00    +0.000 A 
ATOM     40  C   UNL     1       2.375   0.495  -2.091  0.00  0.00    +0.000 A 
ATOM     41  C   UNL     1       3.324   1.065  -1.263  0.00  0.00    +0.000 A 
ATOM     42  C   UNL     1       3.021   2.210  -0.549  0.00  0.00    +0.004 A 
ENDBRANCH  25  37
ENDBRANCH  24  25
ENDBRANCH   1  24
TORSDOF 9
