REMARK  Name = ZINC08826670
REMARK  4 active torsions:
REMARK  status: ('A' for Active; 'I' for Inactive)
REMARK    1  A    between atoms: C_6  and  N_7
REMARK    2  A    between atoms: N_20  and  N_21
REMARK    3  A    between atoms: C_22  and  C_23
REMARK    4  A    between atoms: C_28  and  O_29
REMARK                            x       y       z     vdW  Elec       q    Type
REMARK                         _______ _______ _______ _____ _____    ______ ____
ROOT
ATOM      1  N   UNL     1      -1.143  -0.643  -0.309  0.00  0.00    -0.283 N 
ATOM      2  C   UNL     1      -1.113  -1.995  -0.588  0.00  0.00    +0.225 A 
ATOM      3  N   UNL     1       0.030  -2.669  -0.494  0.00  0.00    -0.179 NA
ATOM      4  C   UNL     1       0.058  -3.970  -0.763  0.00  0.00    +0.241 A 
ATOM      5  N   UNL     1      -1.056  -4.599  -1.125  0.00  0.00    -0.180 NA
ATOM      6  C   UNL     1      -2.199  -3.926  -1.220  0.00  0.00    +0.224 A 
ATOM      7  N   UNL     1      -2.228  -2.625  -0.946  0.00  0.00    -0.181 NA
ATOM      8  N   UNL     1      -3.355  -4.578  -1.596  0.00  0.00    -0.295 N 
ATOM      9  C   UNL     1      -4.630  -3.852  -1.713  0.00  0.00    +0.136 C 
ATOM     10  C   UNL     1      -5.246  -4.175  -3.079  0.00  0.00    +0.179 C 
ATOM     11  O   UNL     1      -5.305  -5.593  -3.246  0.00  0.00    -0.377 OA
ATOM     12  C   UNL     1      -4.028  -6.236  -3.251  0.00  0.00    +0.179 C 
ATOM     13  C   UNL     1      -3.349  -6.018  -1.898  0.00  0.00    +0.136 C 
ATOM     14  N   UNL     1       1.245  -4.670  -0.665  0.00  0.00    -0.205 N 
ATOM     15  H   UNL     1      -1.985  -0.162  -0.328  0.00  0.00    +0.155 HD
ATOM     16  H   UNL     1       2.073  -4.197  -0.488  0.00  0.00    +0.177 HD
ENDROOT
BRANCH   1  22
ATOM     17  C   UNL     1       0.205   1.361  -0.375  0.00  0.00    +0.026 A 
ATOM     18  C   UNL     1       1.375   2.027  -0.068  0.00  0.00    +0.040 A 
ATOM     19  C   UNL     1       2.386   1.372   0.616  0.00  0.00    +0.124 A 
ATOM     20  C   UNL     1       2.227   0.049   0.992  0.00  0.00    +0.040 A 
ATOM     21  C   UNL     1       1.058  -0.621   0.686  0.00  0.00    +0.026 A 
ATOM     22  C   UNL     1       0.043   0.034   0.001  0.00  0.00    +0.034 A 
ATOM     23  F   UNL     1       3.530   2.026   0.915  0.00  0.00    -0.205 F 
ENDBRANCH   1  22
BRANCH  14  24
ATOM     24  N   UNL     1       1.252  -6.062  -0.822  0.00  0.00    -0.187 NA
ATOM     25  C   UNL     1       2.375  -6.712  -0.791  0.00  0.00    +0.142 C 
BRANCH  25  26
ATOM     26  C   UNL     1       2.388  -8.170  -1.008  0.00  0.00    +0.037 A 
ATOM     27  C   UNL     1       3.598  -8.868  -1.014  0.00  0.00    +0.028 A 
ATOM     28  C   UNL     1       3.603 -10.233  -1.218  0.00  0.00    +0.019 A 
ATOM     29  C   UNL     1       2.413 -10.914  -1.415  0.00  0.00    +0.019 A 
ATOM     30  C   UNL     1       1.210 -10.234  -1.411  0.00  0.00    +0.047 A 
ATOM     31  C   UNL     1       1.187  -8.865  -1.202  0.00  0.00    +0.126 A 
ATOM     32 BR   UNL     1       5.241 -11.178  -1.227  0.00  0.00    -0.050 Br
BRANCH  31  33
ATOM     33  O   UNL     1       0.004  -8.197  -1.191  0.00  0.00    -0.506 OA
ATOM     34  H   UNL     1      -0.269  -7.865  -2.058  0.00  0.00    +0.292 HD
ENDBRANCH  31  33
ENDBRANCH  25  26
ENDBRANCH  14  24
TORSDOF 4
