REMARK  Name = ZINC39344903
REMARK  7 active torsions:
REMARK  status: ('A' for Active; 'I' for Inactive)
REMARK    1  A    between atoms: C_10  and  C_12
REMARK    2  A    between atoms: C_12  and  N_13
REMARK    3  A    between atoms: C_14  and  C_16
REMARK    4  A    between atoms: C_18  and  C_32
REMARK    5  A    between atoms: C_20  and  S_22
REMARK    6  A    between atoms: S_22  and  N_25
REMARK    7  A    between atoms: N_25  and  C_26
REMARK                            x       y       z     vdW  Elec       q    Type
REMARK                         _______ _______ _______ _____ _____    ______ ____
ROOT
ATOM      1  C   UNL     1       8.358  -0.782   1.496  0.00  0.00    +0.039 A 
ATOM      2  C   UNL     1       9.402  -0.329   2.305  0.00  0.00    +0.019 A 
ATOM      3  C   UNL     1      10.651  -0.904   2.198  0.00  0.00    -0.017 A 
ATOM      4  C   UNL     1      10.871  -1.926   1.291  0.00  0.00    +0.034 A 
ATOM      5  C   UNL     1       9.841  -2.379   0.487  0.00  0.00    +0.106 A 
ATOM      6  C   UNL     1       8.584  -1.817   0.588  0.00  0.00    +0.041 A 
ENDROOT
BRANCH   3   7
ATOM      7  C   UNL     1      11.780  -0.417   3.070  0.00  0.00    +0.153 C 
ATOM      8  C   UNL     1      11.648  -0.972   4.478  0.00  0.00    +0.025 C 
ATOM      9  C   UNL     1      11.511   0.115   5.240  0.00  0.00    +0.130 C 
ATOM     10  N   UNL     1      11.542   1.237   4.487  0.00  0.00    -0.186 NA
ATOM     11  N   UNL     1      11.690   1.039   3.274  0.00  0.00    -0.298 N 
ATOM     12  H   UNL     1      11.737   1.717   2.583  0.00  0.00    +0.183 HD
ENDBRANCH   3   7
BRANCH   1  14
ATOM     13  N   UNL     1       6.008  -0.613   0.827  0.00  0.00    -0.309 N 
ATOM     14  C   UNL     1       7.016  -0.171   1.606  0.00  0.00    +0.244 C 
ATOM     15  O   UNL     1       6.821   0.731   2.397  0.00  0.00    -0.270 OA
ATOM     16  H   UNL     1       6.164  -1.333   0.195  0.00  0.00    +0.149 HD
BRANCH  13  17
ATOM     17  C   UNL     1       4.679  -0.008   0.936  0.00  0.00    +0.141 C 
BRANCH  17  27
ATOM     18  C   UNL     1      -0.017   1.377   0.010  0.00  0.00    +0.000 A 
ATOM     19  C   UNL     1       1.173   2.081   0.002  0.00  0.00    +0.000 A 
ATOM     20  C   UNL     1       2.375   1.402  -0.015  0.00  0.00    +0.006 A 
ATOM     21  C   UNL     1       2.395   0.016  -0.024  0.00  0.00    -0.014 A 
ATOM     22  C   UNL     1       1.208  -0.686  -0.013  0.00  0.00    -0.040 A 
ATOM     23  C   UNL     1       0.002  -0.004   0.002  0.00  0.00    +0.004 A 
ATOM     24  C   UNL     1       1.189  -2.194  -0.009  0.00  0.00    +0.063 C 
ATOM     25  C   UNL     1       2.555  -2.730  -0.442  0.00  0.00    +0.165 C 
ATOM     26  O   UNL     1       3.568  -2.059   0.316  0.00  0.00    -0.370 OA
ATOM     27  C   UNL     1       3.727  -0.688  -0.050  0.00  0.00    +0.165 C 
ENDBRANCH  17  27
ENDBRANCH  13  17
ENDBRANCH   1  14
BRANCH   5  28
ATOM     28  S   UNL     1      10.131  -3.680  -0.664  0.00  0.00    +0.059 S 
ATOM     29  O   UNL     1       9.147  -3.551  -1.681  0.00  0.00    -0.153 OA
ATOM     30  O   UNL     1      11.524  -3.669  -0.947  0.00  0.00    -0.153 OA
BRANCH  28  31
ATOM     31  N   UNL     1       9.818  -5.106   0.118  0.00  0.00    -0.187 NA
ATOM     32  H   UNL     1      10.535  -5.739   0.277  0.00  0.00    +0.148 HD
BRANCH  31  33
ATOM     33  C   UNL     1       8.458  -5.410   0.571  0.00  0.00    +0.077 C 
ATOM     34  C   UNL     1       8.304  -4.994   2.035  0.00  0.00    +0.020 C 
ATOM     35  C   UNL     1       6.883  -5.311   2.508  0.00  0.00    +0.002 C 
ATOM     36  C   UNL     1       6.625  -6.814   2.374  0.00  0.00    +0.000 C 
ATOM     37  C   UNL     1       6.780  -7.229   0.910  0.00  0.00    +0.002 C 
ATOM     38  C   UNL     1       8.200  -6.912   0.437  0.00  0.00    +0.020 C 
ENDBRANCH  31  33
ENDBRANCH  28  31
ENDBRANCH   5  28
TORSDOF 7
