REMARK  Name = ZINC63985669
REMARK  16 active torsions:
REMARK  status: ('A' for Active; 'I' for Inactive)
REMARK    1  A    between atoms: C_1  and  C_2
REMARK    2  A    between atoms: C_2  and  C_4
REMARK    3  A    between atoms: C_2  and  N_15
REMARK    4  A    between atoms: C_4  and  C_5
REMARK    5  A    between atoms: C_5  and  C_6
REMARK    6  A    between atoms: N_15  and  C_16
REMARK    7  A    between atoms: N_22  and  C_35
REMARK    8  A    between atoms: C_23  and  C_31
REMARK    9  A    between atoms: C_25  and  N_27
REMARK   10  A    between atoms: C_28  and  C_30
REMARK   11  A    between atoms: C_31  and  O_33
REMARK   12  A    between atoms: O_33  and  C_34
REMARK   13  A    between atoms: C_35  and  C_36
REMARK   14  A    between atoms: C_36  and  C_37
REMARK   15  A    between atoms: C_37  and  C_38
REMARK   16  A    between atoms: C_37  and  C_39
REMARK                            x       y       z     vdW  Elec       q    Type
REMARK                         _______ _______ _______ _____ _____    ______ ____
ROOT
ATOM      1  C   UNL     1      -2.102  -0.708  -1.171  0.00  0.00    +0.044 A 
ATOM      2  C   UNL     1      -3.416  -1.174  -1.175  0.00  0.00    +0.033 A 
ATOM      3  C   UNL     1      -4.074  -1.279  -2.385  0.00  0.00    +0.015 A 
ATOM      4  C   UNL     1      -3.427  -0.925  -3.561  0.00  0.00    +0.105 A 
ATOM      5  N   UNL     1      -2.170  -0.484  -3.513  0.00  0.00    -0.348 N 
ATOM      6  C   UNL     1      -1.512  -0.365  -2.378  0.00  0.00    +0.107 A 
ATOM      7  N   UNL     1      -4.252  -1.100  -4.670  0.00  0.00    -0.301 N 
ATOM      8  C   UNL     1      -5.561  -1.608  -4.252  0.00  0.00    +0.208 C 
ATOM      9  C   UNL     1      -5.473  -1.739  -2.722  0.00  0.00    +0.138 C 
ATOM     10  H   UNL     1      -1.727  -0.240  -4.340  0.00  0.00    +0.167 HD
ENDROOT
BRANCH   9  11
ATOM     11  N   UNL     1      -5.665  -3.133  -2.316  0.00  0.00    -0.306 N 
ATOM     12  C   UNL     1      -6.055  -3.421  -1.058  0.00  0.00    +0.210 C 
ATOM     13  O   UNL     1      -6.246  -2.526  -0.263  0.00  0.00    -0.276 OA
ATOM     14  C   UNL     1      -6.252  -4.856  -0.640  0.00  0.00    +0.109 C 
ATOM     15  H   UNL     1      -5.512  -3.849  -2.952  0.00  0.00    +0.149 HD
ENDBRANCH   9  11
BRANCH   1  16
ATOM     16  N   UNL     1      -1.392  -0.584   0.030  0.00  0.00    -0.340 N 
ATOM     17  H   UNL     1      -1.813  -0.827   0.869  0.00  0.00    +0.146 HD
BRANCH  16  19
ATOM     18  C   UNL     1      -0.022   1.442   0.036  0.00  0.00    +0.028 C 
ATOM     19  C   UNL     1      -0.014  -0.088   0.018  0.00  0.00    +0.068 C 
BRANCH  19  20
ATOM     20  C   UNL     1       0.726  -0.608   1.253  0.00  0.00    +0.026 C 
BRANCH  20  21
ATOM     21  C   UNL     1       0.843  -2.131   1.173  0.00  0.00    +0.035 C 
BRANCH  21  22
ATOM     22  C   UNL     1       1.571  -2.643   2.389  0.00  0.00    -0.041 C 
ATOM     23  C   UNL     1       1.018  -3.112   3.530  0.00  0.00    -0.001 A 
ATOM     24  C   UNL     1      -0.374  -3.279   3.966  0.00  0.00    +0.010 A 
ATOM     25  C   UNL     1      -0.620  -3.787   5.195  0.00  0.00    +0.001 A 
ATOM     26  C   UNL     1       0.417  -4.157   6.061  0.00  0.00    +0.002 A 
ATOM     27  C   UNL     1       1.721  -4.034   5.733  0.00  0.00    +0.026 A 
ATOM     28  C   UNL     1       2.096  -3.511   4.464  0.00  0.00    +0.043 A 
ATOM     29  N   UNL     1       3.269  -3.297   3.921  0.00  0.00    -0.380 N 
ATOM     30  C   UNL     1       3.069  -2.743   2.577  0.00  0.00    +0.144 C 
ATOM     31  H   UNL     1       4.127  -3.478   4.336  0.00  0.00    +0.160 HD
ENDBRANCH  21  22
ENDBRANCH  20  21
ENDBRANCH  19  20
ENDBRANCH  16  19
ENDBRANCH   1  16
BRANCH   8  32
ATOM     32  C   UNL     1      -5.825  -2.953  -4.879  0.00  0.00    +0.330 C 
ATOM     33  O   UNL     1      -4.901  -3.643  -5.239  0.00  0.00    -0.249 OA
BRANCH  32  34
ATOM     34  O   UNL     1      -7.086  -3.383  -5.039  0.00  0.00    -0.467 OA
ATOM     35  C   UNL     1      -7.262  -4.667  -5.641  0.00  0.00    +0.280 C 
ENDBRANCH  32  34
ENDBRANCH   8  32
BRANCH   7  36
ATOM     36  C   UNL     1      -3.867  -0.816  -6.054  0.00  0.00    +0.107 C 
BRANCH  36  37
ATOM     37  C   UNL     1      -4.322   0.596  -6.431  0.00  0.00    +0.022 C 
BRANCH  37  38
ATOM     38  C   UNL     1      -4.038   0.845  -7.914  0.00  0.00    -0.016 C 
ATOM     39  C   UNL     1      -4.604   2.206  -8.320  0.00  0.00    +0.007 C 
ATOM     40  C   UNL     1      -2.527   0.829  -8.154  0.00  0.00    +0.007 C 
ENDBRANCH  37  38
ENDBRANCH  36  37
ENDBRANCH   7  36
TORSDOF 11
