REMARK  Name = ZINC45188626
REMARK  9 active torsions:
REMARK  status: ('A' for Active; 'I' for Inactive)
REMARK    1  A    between atoms: C_1  and  O_2
REMARK    2  A    between atoms: O_2  and  C_3
REMARK    3  A    between atoms: C_9  and  C_14
REMARK    4  A    between atoms: C_14  and  C_16
REMARK    5  A    between atoms: C_14  and  O_35
REMARK    6  A    between atoms: C_16  and  N_17
REMARK    7  A    between atoms: C_20  and  N_23
REMARK    8  A    between atoms: N_23  and  C_24
REMARK    9  A    between atoms: C_24  and  C_25
REMARK                            x       y       z     vdW  Elec       q    Type
REMARK                         _______ _______ _______ _____ _____    ______ ____
ROOT
ATOM      1  N   UNL     1      -1.206  -6.253  -0.693  0.00  0.00    +0.381 N 
ATOM      2  C   UNL     1      -1.594  -5.341   0.389  0.00  0.00    -0.080 C 
ATOM      3  C   UNL     1      -2.192  -6.143   1.547  0.00  0.00    -0.034 C 
ATOM      4  C   UNL     1      -3.424  -6.904   1.052  0.00  0.00    -0.075 C 
ATOM      5  C   UNL     1      -3.022  -7.797  -0.126  0.00  0.00    -0.034 C 
ATOM      6  C   UNL     1      -2.394  -6.934  -1.222  0.00  0.00    -0.080 C 
ATOM      7  H   UNL     1      -0.557  -6.939  -0.336  0.00  0.00    -0.082 HD
ENDROOT
BRANCH   4   8
ATOM      8  N   UNL     1      -3.958  -7.735   2.139  0.00  0.00    +0.384 N 
ATOM      9  H   UNL     1      -3.284  -8.447   2.380  0.00  0.00    -0.085 HD
ATOM     10  H   UNL     1      -4.140  -7.157   2.946  0.00  0.00    -0.085 HD
BRANCH   8  11
ATOM     11  C   UNL     1      -5.207  -8.372   1.700  0.00  0.00    -0.026 C 
BRANCH  11  12
ATOM     12  C   UNL     1      -5.755  -9.225   2.816  0.00  0.00    +0.028 A 
ATOM     13  C   UNL     1      -6.709  -8.702   3.667  0.00  0.00    +0.070 A 
ATOM     14  C   UNL     1      -7.206  -9.500   4.691  0.00  0.00    +0.165 A 
ATOM     15  C   UNL     1      -6.721 -10.800   4.817  0.00  0.00    +0.180 A 
ATOM     16  C   UNL     1      -5.763 -11.249   3.925  0.00  0.00    +0.160 A 
ATOM     17  N   UNL     1      -5.320 -10.461   2.962  0.00  0.00    -0.258 NA
ATOM     18  O   UNL     1      -7.181 -11.621   5.798  0.00  0.00    -0.483 OA
ATOM     19  C   UNL     1      -7.867 -10.994   6.889  0.00  0.00    +0.270 C 
ATOM     20  C   UNL     1      -8.868  -9.984   6.313  0.00  0.00    +0.270 C 
ATOM     21  O   UNL     1      -8.142  -9.017   5.545  0.00  0.00    -0.485 OA
ENDBRANCH  11  12
ENDBRANCH   8  11
ENDBRANCH   4   8
BRANCH   1  22
ATOM     22  C   UNL     1      -0.562  -5.488  -1.770  0.00  0.00    -0.042 C 
BRANCH  22  23
ATOM     23  C   UNL     1       0.743  -4.879  -1.253  0.00  0.00    +0.131 C 
BRANCH  23  30
ATOM     24  C   UNL     1       0.606  -0.607  -1.056  0.00  0.00    +0.121 A 
ATOM     25  C   UNL     1       1.175   0.176  -2.065  0.00  0.00    +0.048 A 
ATOM     26  C   UNL     1       1.785  -0.398  -3.136  0.00  0.00    +0.032 A 
ATOM     27  C   UNL     1       1.850  -1.800  -3.237  0.00  0.00    +0.072 A 
ATOM     28  C   UNL     1       1.274  -2.593  -2.213  0.00  0.00    +0.012 A 
ATOM     29  C   UNL     1       0.655  -1.971  -1.118  0.00  0.00    +0.056 A 
ATOM     30  C   UNL     1       1.341  -3.995  -2.317  0.00  0.00    +0.025 A 
ATOM     31  C   UNL     1       1.963  -4.532  -3.410  0.00  0.00    +0.148 A 
ATOM     32  C   UNL     1       2.510  -3.693  -4.381  0.00  0.00    +0.150 A 
ATOM     33  N   UNL     1       2.445  -2.388  -4.279  0.00  0.00    -0.252 NA
ATOM     34  F   UNL     1       2.050  -5.873  -3.548  0.00  0.00    -0.204 F 
BRANCH  24  36
ATOM     35  C   UNL     1      -0.017   1.425   0.010  0.00  0.00    +0.277 C 
ATOM     36  O   UNL     1       0.002  -0.004   0.002  0.00  0.00    -0.495 OA
ENDBRANCH  24  36
ENDBRANCH  23  30
BRANCH  23  37
ATOM     37  O   UNL     1       1.662  -5.925  -0.932  0.00  0.00    -0.389 OA
ATOM     38  H   UNL     1       1.889  -6.493  -1.681  0.00  0.00    +0.210 HD
ENDBRANCH  23  37
ENDBRANCH  22  23
ENDBRANCH   1  22
TORSDOF 8
