REMARK  Name = ZINC52829654
REMARK  10 active torsions:
REMARK  status: ('A' for Active; 'I' for Inactive)
REMARK    1  A    between atoms: C_1  and  C_2
REMARK    2  A    between atoms: C_2  and  C_3
REMARK    3  A    between atoms: C_2  and  C_4
REMARK    4  A    between atoms: C_4  and  C_6
REMARK    5  A    between atoms: C_4  and  N_13
REMARK    6  A    between atoms: N_8  and  C_9
REMARK    7  A    between atoms: C_9  and  C_10
REMARK    8  A    between atoms: C_9  and  C_11
REMARK    9  A    between atoms: C_9  and  C_12
REMARK   10  A    between atoms: C_17  and  C_20
REMARK                            x       y       z     vdW  Elec       q    Type
REMARK                         _______ _______ _______ _____ _____    ______ ____
ROOT
ATOM      1  N   UNL     1       2.025  -0.002   1.732  0.00  0.00    +0.388 N 
ATOM      2  C   UNL     1       2.107  -0.534   3.097  0.00  0.00    -0.078 C 
ATOM      3  C   UNL     1       3.418  -0.083   3.746  0.00  0.00    -0.018 C 
ATOM      4  C   UNL     1       3.459   1.447   3.789  0.00  0.00    +0.009 C 
ATOM      5  C   UNL     1       3.297   1.993   2.368  0.00  0.00    +0.059 C 
ATOM      6  C   UNL     1       1.991   1.465   1.770  0.00  0.00    -0.065 C 
ATOM      7  H   UNL     1       2.830  -0.306   1.205  0.00  0.00    -0.081 HD
ENDROOT
BRANCH   5   8
ATOM      8  C   UNL     1       3.260   3.499   2.408  0.00  0.00    +0.220 C 
ATOM      9  O   UNL     1       2.286   4.093   1.996  0.00  0.00    -0.275 OA
ATOM     10  N   UNL     1       4.309   4.186   2.902  0.00  0.00    -0.270 N 
ATOM     11  C   UNL     1       4.241   5.574   3.017  0.00  0.00    +0.125 A 
ATOM     12  C   UNL     1       5.366   6.287   3.415  0.00  0.00    +0.045 A 
ATOM     13  C   UNL     1       5.287   7.664   3.525  0.00  0.00    +0.025 A 
ATOM     14  C   UNL     1       4.078   8.284   3.231  0.00  0.00    +0.059 A 
ATOM     15  C   UNL     1       3.000   7.512   2.841  0.00  0.00    +0.132 A 
ATOM     16  N   UNL     1       3.109   6.200   2.740  0.00  0.00    -0.239 NA
ATOM     17 CL   UNL     1       3.923  10.008   3.353  0.00  0.00    -0.082 Cl
ATOM     18  H   UNL     1       5.110   3.715   3.179  0.00  0.00    +0.156 HD
ENDBRANCH   5   8
BRANCH   1  19
ATOM     19  C   UNL     1       0.803  -0.502   1.087  0.00  0.00    +0.022 C 
BRANCH  19  20
ATOM     20  C   UNL     1       0.755  -2.004   1.196  0.00  0.00    +0.200 C 
ATOM     21  O   UNL     1       1.781  -2.634   1.347  0.00  0.00    -0.278 OA
ATOM     22  N   UNL     1      -0.426  -2.648   1.127  0.00  0.00    -0.312 N 
ATOM     23  H   UNL     1      -1.247  -2.144   1.006  0.00  0.00    +0.149 HD
BRANCH  22  24
ATOM     24  C   UNL     1      -0.473  -4.108   1.233  0.00  0.00    +0.026 C 
ATOM     25  C   UNL     1       0.104  -4.540   2.583  0.00  0.00    +0.031 C 
ATOM     26  C   UNL     1      -1.923  -4.582   1.124  0.00  0.00    +0.031 C 
ATOM     27  C   UNL     1       0.353  -4.728   0.104  0.00  0.00    +0.031 C 
ENDBRANCH  22  24
ENDBRANCH  19  20
BRANCH  19  29
ATOM     28  C   UNL     1       0.088   1.244  -0.551  0.00  0.00    +0.006 C 
ATOM     29  C   UNL     1       0.804  -0.098  -0.389  0.00  0.00    -0.022 C 
ATOM     30  C   UNL     1       2.247   0.031  -0.882  0.00  0.00    +0.006 C 
ENDBRANCH  19  29
ENDBRANCH   1  19
TORSDOF 5
