REMARK  Name = ZINC02291785
REMARK  7 active torsions:
REMARK  status: ('A' for Active; 'I' for Inactive)
REMARK    1  A    between atoms: C_1  and  C_2
REMARK    2  A    between atoms: C_5  and  N_9
REMARK    3  A    between atoms: C_7  and  C_8
REMARK    4  A    between atoms: C_10  and  N_31
REMARK    5  A    between atoms: C_11  and  C_22
REMARK    6  A    between atoms: N_24  and  C_25
REMARK    7  A    between atoms: C_25  and  C_26
REMARK                            x       y       z     vdW  Elec       q    Type
REMARK                         _______ _______ _______ _____ _____    ______ ____
ROOT
ATOM      1  N   UNL     1       0.002  -0.004   0.002  0.00  0.00    -0.280 N 
ATOM      2  C   UNL     1      -0.452  -0.791   1.018  0.00  0.00    +0.117 A 
ATOM      3  C   UNL     1      -0.292  -2.135   0.700  0.00  0.00    +0.104 A 
ATOM      4  C   UNL     1       0.318  -2.178  -0.639  0.00  0.00    +0.123 A 
ATOM      5  C   UNL     1       0.478  -0.778  -1.039  0.00  0.00    +0.166 A 
ATOM      6  N   UNL     1       1.015  -0.496  -2.207  0.00  0.00    -0.225 NA
ATOM      7  C   UNL     1       1.397  -1.487  -3.022  0.00  0.00    +0.092 A 
ATOM      8  C   UNL     1       1.965  -1.194  -4.276  0.00  0.00    +0.030 A 
ATOM      9  C   UNL     1       2.351  -2.208  -5.098  0.00  0.00    +0.002 A 
ATOM     10  C   UNL     1       2.193  -3.539  -4.717  0.00  0.00    +0.002 A 
ATOM     11  C   UNL     1       1.647  -3.861  -3.513  0.00  0.00    +0.030 A 
ATOM     12  C   UNL     1       1.236  -2.841  -2.636  0.00  0.00    +0.090 A 
ATOM     13  N   UNL     1       0.698  -3.146  -1.449  0.00  0.00    -0.241 NA
ENDROOT
BRANCH   1  18
ATOM     14  C   UNL     1      -0.075   5.670   0.032  0.00  0.00    +0.044 C 
ATOM     15  C   UNL     1      -0.054   4.163   0.024  0.00  0.00    -0.047 A 
ATOM     16  C   UNL     1       1.153   3.490   0.009  0.00  0.00    +0.005 A 
ATOM     17  C   UNL     1       1.175   2.109   0.002  0.00  0.00    +0.026 A 
ATOM     18  C   UNL     1      -0.017   1.397   0.010  0.00  0.00    +0.050 A 
ATOM     19  C   UNL     1      -1.228   2.076   0.019  0.00  0.00    +0.030 A 
ATOM     20  C   UNL     1      -1.243   3.457   0.031  0.00  0.00    -0.046 A 
ATOM     21  C   UNL     1      -2.557   4.195   0.047  0.00  0.00    +0.044 C 
ENDBRANCH   1  18
BRANCH   3  22
ATOM     22  C   UNL     1      -0.657  -3.280   1.532  0.00  0.00    +0.250 C 
ATOM     23  O   UNL     1      -1.769  -3.768   1.441  0.00  0.00    -0.270 OA
ATOM     24  N   UNL     1       0.236  -3.795   2.399  0.00  0.00    -0.304 N 
ATOM     25  H   UNL     1       1.122  -3.406   2.470  0.00  0.00    +0.149 HD
BRANCH  24  26
ATOM     26  C   UNL     1      -0.130  -4.943   3.232  0.00  0.00    +0.179 C 
BRANCH  26  27
ATOM     27  C   UNL     1       1.038  -5.321   4.107  0.00  0.00    +0.122 A 
ATOM     28  C   UNL     1       1.287  -4.841   5.338  0.00  0.00    +0.046 A 
ATOM     29  C   UNL     1       2.474  -5.462   5.788  0.00  0.00    +0.041 A 
ATOM     30  C   UNL     1       2.880  -6.285   4.804  0.00  0.00    +0.195 A 
ATOM     31  O   UNL     1       2.003  -6.200   3.791  0.00  0.00    -0.466 OA
ENDBRANCH  26  27
ENDBRANCH  24  26
ENDBRANCH   3  22
BRANCH   2  32
ATOM     32  N   UNL     1      -0.990  -0.323   2.189  0.00  0.00    -0.343 N 
ATOM     33  H   UNL     1      -1.069   0.632   2.339  0.00  0.00    +0.144 HD
ATOM     34  H   UNL     1      -1.292  -0.947   2.867  0.00  0.00    +0.144 HD
ENDBRANCH   2  32
TORSDOF 5
