REMARK  Name = ZINC09451528
REMARK  10 active torsions:
REMARK  status: ('A' for Active; 'I' for Inactive)
REMARK    1  A    between atoms: C_1  and  C_2
REMARK    2  A    between atoms: C_2  and  C_3
REMARK    3  A    between atoms: C_12  and  O_15
REMARK    4  A    between atoms: C_13  and  C_14
REMARK    5  A    between atoms: O_15  and  C_16
REMARK    6  A    between atoms: C_16  and  C_17
REMARK    7  A    between atoms: N_19  and  C_20
REMARK    8  A    between atoms: C_20  and  C_21
REMARK    9  A    between atoms: C_24  and  S_27
REMARK   10  A    between atoms: S_27  and  N_30
REMARK                            x       y       z     vdW  Elec       q    Type
REMARK                         _______ _______ _______ _____ _____    ______ ____
ROOT
ATOM      1  C   UNL     1      -2.788  -6.136   4.233  0.00  0.00    +0.251 C 
ATOM      2  O   UNL     1      -3.972  -6.390   4.164  0.00  0.00    -0.272 OA
ATOM      3  N   UNL     1      -1.933  -7.043   4.745  0.00  0.00    -0.308 N 
ATOM      4  H   UNL     1      -0.986  -6.840   4.800  0.00  0.00    +0.149 HD
ENDROOT
BRANCH   1   5
ATOM      5  C   UNL     1      -2.273  -4.806   3.746  0.00  0.00    +0.324 C 
BRANCH   5   6
ATOM      6  O   UNL     1      -3.363  -4.025   3.252  0.00  0.00    -0.482 OA
BRANCH   6  16
ATOM      7  C   UNL     1      -2.143   1.058   1.278  0.00  0.00    -0.030 A 
ATOM      8  C   UNL     1      -3.167   1.810   0.799  0.00  0.00    +0.096 A 
ATOM      9  C   UNL     1      -4.482   1.299   0.820  0.00  0.00    +0.337 A 
ATOM     10  O   UNL     1      -5.391   1.984   0.387  0.00  0.00    -0.245 OA
ATOM     11  O   UNL     1      -4.756   0.078   1.304  0.00  0.00    -0.422 OA
ATOM     12  C   UNL     1      -3.784  -0.720   1.795  0.00  0.00    +0.146 A 
ATOM     13  C   UNL     1      -2.448  -0.276   1.799  0.00  0.00    +0.021 A 
ATOM     14  C   UNL     1      -1.437  -1.103   2.300  0.00  0.00    +0.015 A 
ATOM     15  C   UNL     1      -1.749  -2.342   2.780  0.00  0.00    +0.047 A 
ATOM     16  C   UNL     1      -3.069  -2.790   2.773  0.00  0.00    +0.128 A 
ATOM     17  C   UNL     1      -4.084  -1.980   2.291  0.00  0.00    +0.034 A 
ATOM     18  C   UNL     1      -5.508  -2.473   2.289  0.00  0.00    +0.051 C 
BRANCH   7  20
ATOM     19  C   UNL     1      -0.013   1.086   0.008  0.00  0.00    +0.009 C 
ATOM     20  C   UNL     1      -0.729   1.579   1.267  0.00  0.00    +0.033 C 
ENDBRANCH   7  20
ENDBRANCH   6  16
ENDBRANCH   5   6
ENDBRANCH   1   5
BRANCH   3  21
ATOM     21  C   UNL     1      -2.433  -8.336   5.218  0.00  0.00    +0.139 C 
BRANCH  21  22
ATOM     22  C   UNL     1      -1.284  -9.160   5.738  0.00  0.00    -0.030 A 
ATOM     23  C   UNL     1      -0.597 -10.005   4.886  0.00  0.00    +0.007 A 
ATOM     24  C   UNL     1       0.460 -10.757   5.363  0.00  0.00    +0.029 A 
ATOM     25  C   UNL     1       0.825 -10.672   6.693  0.00  0.00    +0.105 A 
ATOM     26  C   UNL     1       0.135  -9.831   7.547  0.00  0.00    +0.029 A 
ATOM     27  C   UNL     1      -0.919  -9.075   7.069  0.00  0.00    +0.007 A 
BRANCH  25  28
ATOM     28  S   UNL     1       2.170 -11.634   7.302  0.00  0.00    +0.056 S 
ATOM     29  O   UNL     1       2.997 -11.929   6.184  0.00  0.00    -0.153 OA
ATOM     30  O   UNL     1       2.659 -10.964   8.456  0.00  0.00    -0.153 OA
BRANCH  28  31
ATOM     31  N   UNL     1       1.544 -13.077   7.821  0.00  0.00    -0.204 NA
ATOM     32  H   UNL     1       0.591 -13.245   7.751  0.00  0.00    +0.144 HD
ATOM     33  H   UNL     1       2.130 -13.753   8.195  0.00  0.00    +0.144 HD
ENDBRANCH  28  31
ENDBRANCH  25  28
ENDBRANCH  21  22
ENDBRANCH   3  21
TORSDOF 8
