REMARK  Name = ZINC12881981
REMARK  6 active torsions:
REMARK  status: ('A' for Active; 'I' for Inactive)
REMARK    1  A    between atoms: C_1  and  C_2
REMARK    2  A    between atoms: C_17  and  C_19
REMARK    3  A    between atoms: C_19  and  C_20
REMARK    4  A    between atoms: C_20  and  C_21
REMARK    5  A    between atoms: N_26  and  C_29
REMARK    6  A    between atoms: C_29  and  C_30
REMARK                            x       y       z     vdW  Elec       q    Type
REMARK                         _______ _______ _______ _____ _____    ______ ____
ROOT
ATOM      1  C   UNL     1       6.725   4.651   9.422  0.00  0.00    +0.044 C 
ATOM      2  C   UNL     1       7.326   4.771   8.046  0.00  0.00    -0.049 A 
ATOM      3  C   UNL     1       6.510   4.986   6.949  0.00  0.00    +0.008 A 
ATOM      4  C   UNL     1       7.060   5.097   5.691  0.00  0.00    -0.026 A 
ATOM      5  C   UNL     1       8.436   4.997   5.507  0.00  0.00    +0.054 A 
ATOM      6  C   UNL     1       9.251   4.781   6.617  0.00  0.00    +0.063 A 
ATOM      7  C   UNL     1       8.694   4.669   7.875  0.00  0.00    +0.025 A 
ATOM      8 CL   UNL     1      10.970   4.651   6.415  0.00  0.00    -0.082 Cl
ATOM      9  N   UNL     1       8.753   5.142   4.154  0.00  0.00    -0.285 N 
ATOM     10  C   UNL     1       7.659   5.338   3.394  0.00  0.00    +0.211 C 
ATOM     11  O   UNL     1       7.631   5.496   2.192  0.00  0.00    -0.277 OA
ATOM     12  C   UNL     1       6.478   5.323   4.325  0.00  0.00    +0.050 C 
ATOM     13  C   UNL     1       5.480   4.221   3.950  0.00  0.00    +0.088 C 
ATOM     14  C   UNL     1       4.087   4.830   4.271  0.00  0.00    +0.073 C 
ATOM     15  C   UNL     1       4.387   6.242   4.816  0.00  0.00    -0.057 C 
ATOM     16  C   UNL     1       3.436   4.951   2.912  0.00  0.00    +0.224 C 
ATOM     17  O   UNL     1       2.328   5.395   2.704  0.00  0.00    -0.275 OA
ATOM     18  N   UNL     1       4.273   4.488   1.976  0.00  0.00    -0.237 N 
ATOM     19  C   UNL     1       5.448   4.055   2.447  0.00  0.00    +0.225 C 
ATOM     20  O   UNL     1       6.347   3.600   1.773  0.00  0.00    -0.275 OA
ATOM     21  H   UNL     1       9.657   5.106   3.804  0.00  0.00    +0.155 HD
ATOM     22  N   UNL     1       5.712   6.556   4.275  0.00  0.00    +0.394 N 
ATOM     23  H   UNL     1       5.630   6.884   3.305  0.00  0.00    -0.083 HD
ATOM     24  H   UNL     1       6.166   7.279   4.844  0.00  0.00    -0.083 HD
ENDROOT
BRANCH  15  25
ATOM     25  C   UNL     1       3.334   7.238   4.327  0.00  0.00    -0.006 C 
BRANCH  25  26
ATOM     26  C   UNL     1       3.625   8.619   4.919  0.00  0.00    +0.094 C 
BRANCH  26  27
ATOM     27  C   UNL     1       2.588   9.601   4.438  0.00  0.00    +0.210 C 
ATOM     28  O   UNL     1       1.703   9.232   3.695  0.00  0.00    -0.276 OA
ATOM     29  N   UNL     1       2.643  10.888   4.833  0.00  0.00    -0.329 N 
ATOM     30  H   UNL     1       3.351  11.182   5.428  0.00  0.00    +0.145 HD
ATOM     31  H   UNL     1       1.975  11.520   4.524  0.00  0.00    +0.145 HD
ENDBRANCH  26  27
ENDBRANCH  25  26
ENDBRANCH  15  25
BRANCH  18  32
ATOM     32  C   UNL     1       3.932   4.464   0.552  0.00  0.00    +0.151 C 
BRANCH  32  33
ATOM     33  C   UNL     1       3.274   3.151   0.215  0.00  0.00    -0.026 A 
ATOM     34  C   UNL     1       4.045   2.076  -0.187  0.00  0.00    +0.009 A 
ATOM     35  C   UNL     1       3.445   0.870  -0.498  0.00  0.00    +0.050 A 
ATOM     36  C   UNL     1       2.069   0.735  -0.406  0.00  0.00    +0.166 A 
ATOM     37  C   UNL     1       1.293   1.818  -0.001  0.00  0.00    +0.167 A 
ATOM     38  C   UNL     1       1.900   3.024   0.309  0.00  0.00    +0.054 A 
ATOM     39  O   UNL     1      -0.018   1.436   0.010  0.00  0.00    -0.453 OA
ATOM     40  C   UNL     1       0.002  -0.004   0.002  0.00  0.00    +0.466 C 
ATOM     41  O   UNL     1       1.245  -0.326  -0.649  0.00  0.00    -0.453 OA
ENDBRANCH  32  33
ENDBRANCH  18  32
TORSDOF 5
