REMARK  Name = ZINC39598913
REMARK  7 active torsions:
REMARK  status: ('A' for Active; 'I' for Inactive)
REMARK    1  A    between atoms: C_1  and  O_2
REMARK    2  A    between atoms: O_2  and  C_3
REMARK    3  A    between atoms: C_9  and  C_12
REMARK    4  A    between atoms: C_12  and  C_13
REMARK    5  A    between atoms: C_13  and  N_14
REMARK    6  A    between atoms: C_15  and  C_17
REMARK    7  A    between atoms: C_28  and  C_30
REMARK                            x       y       z     vdW  Elec       q    Type
REMARK                         _______ _______ _______ _____ _____    ______ ____
ROOT
ATOM      1  C   UNL     1       0.715  -8.460   2.543  0.00  0.00    +0.100 C 
ATOM      2  C   UNL     1       1.958  -8.193   1.665  0.00  0.00    +0.121 C 
ATOM      3  N   UNL     1       2.994  -7.725   2.616  0.00  0.00    -0.296 N 
ATOM      4  C   UNL     1       2.803  -8.573   3.817  0.00  0.00    +0.115 C 
ATOM      5  C   UNL     1       1.274  -8.713   3.954  0.00  0.00    -0.004 C 
ATOM      6  C   UNL     1       0.911 -10.119   4.421  0.00  0.00    -0.010 C 
ATOM      7  C   UNL     1       1.427 -10.326   5.848  0.00  0.00    -0.082 C 
ATOM      8  N   UNL     1       0.828  -9.323   6.737  0.00  0.00    +0.379 N 
ATOM      9  C   UNL     1       1.258  -7.978   6.336  0.00  0.00    -0.082 C 
ATOM     10  C   UNL     1       0.735  -7.672   4.930  0.00  0.00    -0.010 C 
ATOM     11  C   UNL     1       3.904  -6.748   2.431  0.00  0.00    +0.248 C 
ATOM     12  O   UNL     1       3.873  -6.072   1.421  0.00  0.00    -0.270 OA
ATOM     13  H   UNL     1      -0.177  -9.384   6.682  0.00  0.00    -0.086 HD
ATOM     14  H   UNL     1       1.122  -9.499   7.687  0.00  0.00    -0.086 HD
ENDROOT
BRANCH  11  15
ATOM     15  C   UNL     1       4.939  -6.500   3.454  0.00  0.00    +0.055 A 
ATOM     16  C   UNL     1       5.481  -7.565   4.176  0.00  0.00    +0.016 A 
ATOM     17  C   UNL     1       6.447  -7.327   5.131  0.00  0.00    +0.021 A 
ATOM     18  C   UNL     1       6.881  -6.034   5.375  0.00  0.00    +0.042 A 
ATOM     19  C   UNL     1       6.348  -4.973   4.664  0.00  0.00    +0.040 A 
ATOM     20  C   UNL     1       5.385  -5.199   3.701  0.00  0.00    +0.054 A 
ATOM     21 CL   UNL     1       4.722  -3.868   2.804  0.00  0.00    -0.083 Cl
ATOM     22 CL   UNL     1       8.097  -5.744   6.579  0.00  0.00    -0.083 Cl
ENDBRANCH  11  15
BRANCH   1  24
ATOM     23  N   UNL     1      -1.524  -7.418   2.687  0.00  0.00    -0.315 N 
ATOM     24  C   UNL     1      -0.194  -7.258   2.546  0.00  0.00    +0.218 C 
ATOM     25  O   UNL     1       0.273  -6.145   2.423  0.00  0.00    -0.275 OA
ATOM     26  H   UNL     1      -1.898  -8.308   2.786  0.00  0.00    +0.149 HD
BRANCH  23  27
ATOM     27  C   UNL     1      -2.407  -6.249   2.690  0.00  0.00    +0.109 C 
BRANCH  27  28
ATOM     28  C   UNL     1      -3.857  -6.705   2.863  0.00  0.00    +0.056 C 
BRANCH  28  35
ATOM     29  C   UNL     1      -5.888  -4.199  -0.556  0.00  0.00    +0.121 A 
ATOM     30  C   UNL     1      -6.660  -3.150  -0.064  0.00  0.00    +0.047 A 
ATOM     31  C   UNL     1      -6.768  -2.934   1.292  0.00  0.00    +0.030 A 
ATOM     32  C   UNL     1      -6.103  -3.768   2.184  0.00  0.00    +0.047 A 
ATOM     33  N   UNL     1      -6.018  -3.807   3.560  0.00  0.00    -0.360 N 
ATOM     34  C   UNL     1      -5.217  -4.846   3.946  0.00  0.00    +0.087 A 
ATOM     35  C   UNL     1      -4.765  -5.503   2.866  0.00  0.00    -0.021 A 
ATOM     36  C   UNL     1      -5.322  -4.829   1.691  0.00  0.00    +0.006 A 
ATOM     37  C   UNL     1      -5.224  -5.041   0.314  0.00  0.00    +0.056 A 
ATOM     38  H   UNL     1      -6.459  -3.189   4.163  0.00  0.00    +0.165 HD
BRANCH  29  40
ATOM     39  C   UNL     1      -6.508  -3.494  -2.741  0.00  0.00    +0.277 C 
ATOM     40  O   UNL     1      -5.792  -4.399  -1.897  0.00  0.00    -0.495 OA
ENDBRANCH  29  40
ENDBRANCH  28  35
ENDBRANCH  27  28
ENDBRANCH  23  27
ENDBRANCH   1  24
TORSDOF 6
