REMARK  Name = ZINC39530615
REMARK  9 active torsions:
REMARK  status: ('A' for Active; 'I' for Inactive)
REMARK    1  A    between atoms: C_1  and  S_2
REMARK    2  A    between atoms: S_2  and  C_3
REMARK    3  A    between atoms: N_6  and  C_10
REMARK    4  A    between atoms: C_13  and  S_26
REMARK    5  A    between atoms: C_15  and  S_16
REMARK    6  A    between atoms: S_16  and  O_19
REMARK    7  A    between atoms: O_19  and  C_20
REMARK    8  A    between atoms: S_26  and  O_29
REMARK    9  A    between atoms: O_29  and  C_30
REMARK                            x       y       z     vdW  Elec       q    Type
REMARK                         _______ _______ _______ _____ _____    ______ ____
ROOT
ATOM      1  C   UNL     1      -4.270  -3.148  -1.022  0.00  0.00    +0.059 A 
ATOM      2  C   UNL     1      -4.742  -3.666   0.178  0.00  0.00    +0.027 A 
ATOM      3  C   UNL     1      -5.200  -4.967   0.234  0.00  0.00    +0.032 A 
ATOM      4  C   UNL     1      -5.190  -5.755  -0.903  0.00  0.00    +0.130 A 
ATOM      5  C   UNL     1      -4.721  -5.243  -2.099  0.00  0.00    +0.063 A 
ATOM      6  C   UNL     1      -4.267  -3.940  -2.163  0.00  0.00    +0.151 A 
ENDROOT
BRANCH   1   9
ATOM      7  C   UNL     1      -2.315  -0.402   0.211  0.00  0.00    +0.129 C 
ATOM      8  C   UNL     1      -2.391  -1.518  -0.835  0.00  0.00    +0.134 C 
ATOM      9  N   UNL     1      -3.806  -1.832  -1.083  0.00  0.00    -0.325 N 
ATOM     10  C   UNL     1      -4.720  -0.723  -1.396  0.00  0.00    +0.120 C 
ATOM     11  C   UNL     1      -4.553   0.362  -0.327  0.00  0.00    +0.101 C 
ATOM     12  N   UNL     1      -3.135   0.735  -0.228  0.00  0.00    -0.302 NA
ATOM     13  H   UNL     1      -3.011   1.528   0.382  0.00  0.00    +0.123 HD
BRANCH   7  15
ATOM     14  C   UNL     1      -0.693   1.944   0.408  0.00  0.00    +0.086 C 
ATOM     15  S   UNL     1      -0.593   0.133   0.403  0.00  0.00    -0.144 S 
ENDBRANCH   7  15
ENDBRANCH   1   9
BRANCH   6  16
ATOM     16  S   UNL     1      -3.677  -3.286  -3.689  0.00  0.00    +0.153 S 
ATOM     17  O   UNL     1      -4.815  -2.808  -4.393  0.00  0.00    -0.131 OA
ATOM     18  O   UNL     1      -2.571  -2.452  -3.373  0.00  0.00    -0.131 OA
BRANCH  16  19
ATOM     19  O   UNL     1      -3.125  -4.453  -4.495  0.00  0.00    -0.342 OA
BRANCH  19  20
ATOM     20  C   UNL     1      -1.912  -4.894  -4.070  0.00  0.00    +0.157 A 
ATOM     21  C   UNL     1      -0.753  -4.273  -4.512  0.00  0.00    +0.048 A 
ATOM     22  C   UNL     1       0.479  -4.723  -4.078  0.00  0.00    +0.004 A 
ATOM     23  C   UNL     1       0.557  -5.792  -3.204  0.00  0.00    +0.000 A 
ATOM     24  C   UNL     1      -0.596  -6.413  -2.764  0.00  0.00    +0.004 A 
ATOM     25  C   UNL     1      -1.831  -5.963  -3.190  0.00  0.00    +0.048 A 
ENDBRANCH  19  20
ENDBRANCH  16  19
ENDBRANCH   6  16
BRANCH   4  26
ATOM     26  S   UNL     1      -5.775  -7.415  -0.827  0.00  0.00    +0.151 S 
ATOM     27  O   UNL     1      -5.153  -8.114  -1.896  0.00  0.00    -0.131 OA
ATOM     28  O   UNL     1      -5.651  -7.828   0.527  0.00  0.00    -0.131 OA
BRANCH  26  29
ATOM     29  O   UNL     1      -7.265  -7.382  -1.137  0.00  0.00    -0.342 OA
BRANCH  29  30
ATOM     30  C   UNL     1      -7.552  -7.188  -2.451  0.00  0.00    +0.157 A 
ATOM     31  C   UNL     1      -7.703  -5.902  -2.947  0.00  0.00    +0.048 A 
ATOM     32  C   UNL     1      -7.995  -5.708  -4.283  0.00  0.00    +0.004 A 
ATOM     33  C   UNL     1      -8.136  -6.795  -5.126  0.00  0.00    +0.000 A 
ATOM     34  C   UNL     1      -7.986  -8.078  -4.634  0.00  0.00    +0.004 A 
ATOM     35  C   UNL     1      -7.689  -8.277  -3.300  0.00  0.00    +0.048 A 
ENDBRANCH  29  30
ENDBRANCH  26  29
ENDBRANCH   4  26
TORSDOF 8
