REMARK  Name = ZINC63619725
REMARK  7 active torsions:
REMARK  status: ('A' for Active; 'I' for Inactive)
REMARK    1  A    between atoms: C_1  and  O_2
REMARK    2  A    between atoms: O_2  and  C_3
REMARK    3  A    between atoms: C_6  and  C_9
REMARK    4  A    between atoms: C_13  and  S_23
REMARK    5  A    between atoms: N_15  and  C_16
REMARK    6  A    between atoms: S_23  and  C_24
REMARK    7  A    between atoms: C_24  and  C_25
REMARK                            x       y       z     vdW  Elec       q    Type
REMARK                         _______ _______ _______ _____ _____    ______ ____
ROOT
ATOM      1  C   UNL     1      -5.013  -2.365   0.255  0.00  0.00    +0.188 C 
ATOM      2  N   UNL     1      -6.005  -1.780   1.187  0.00  0.00    -0.230 NA
ATOM      3  N   UNL     1      -6.848  -2.918   1.584  0.00  0.00    -0.226 NA
ATOM      4  C   UNL     1      -5.874  -4.036   1.688  0.00  0.00    +0.217 C 
ATOM      5  N   UNL     1      -4.931  -3.801   0.574  0.00  0.00    -0.284 N 
ATOM      6  H   UNL     1      -5.549  -1.370   1.988  0.00  0.00    +0.143 HD
ATOM      7  H   UNL     1      -7.548  -3.112   0.883  0.00  0.00    +0.143 HD
ENDROOT
BRANCH   5   8
ATOM      8  C   UNL     1      -4.121  -4.752  -0.052  0.00  0.00    +0.033 A 
ATOM      9  C   UNL     1      -3.361  -4.398  -1.160  0.00  0.00    +0.024 A 
ATOM     10  C   UNL     1      -2.561  -5.339  -1.776  0.00  0.00    +0.022 A 
ATOM     11  C   UNL     1      -2.516  -6.635  -1.292  0.00  0.00    +0.041 A 
ATOM     12  C   UNL     1      -3.272  -6.991  -0.189  0.00  0.00    +0.022 A 
ATOM     13  C   UNL     1      -4.069  -6.052   0.435  0.00  0.00    +0.024 A 
ATOM     14 CL   UNL     1      -1.510  -7.816  -2.071  0.00  0.00    -0.084 Cl
ENDBRANCH   5   8
BRANCH   1  18
ATOM     15  C   UNL     1      -1.202  -0.517   0.824  0.00  0.00    +0.120 A 
ATOM     16  C   UNL     1      -1.847  -0.418  -0.401  0.00  0.00    +0.046 A 
ATOM     17  C   UNL     1      -3.078  -1.017  -0.583  0.00  0.00    +0.010 A 
ATOM     18  C   UNL     1      -3.669  -1.713   0.455  0.00  0.00    -0.011 A 
ATOM     19  C   UNL     1      -3.030  -1.813   1.677  0.00  0.00    +0.010 A 
ATOM     20  C   UNL     1      -1.795  -1.221   1.862  0.00  0.00    +0.046 A 
BRANCH  15  22
ATOM     21  C   UNL     1       0.559   0.779  -0.108  0.00  0.00    +0.277 C 
ATOM     22  O   UNL     1       0.010   0.071   1.004  0.00  0.00    -0.495 OA
ENDBRANCH  15  22
ENDBRANCH   1  18
BRANCH   4  23
ATOM     23  S   UNL     1      -5.008  -3.978   3.280  0.00  0.00    -0.118 S 
BRANCH  23  24
ATOM     24  C   UNL     1      -6.247  -4.553   4.474  0.00  0.00    +0.119 C 
BRANCH  24  25
ATOM     25  C   UNL     1      -5.614  -4.640   5.864  0.00  0.00    +0.184 C 
ATOM     26  N   UNL     1      -5.057  -3.337   6.247  0.00  0.00    -0.363 N 
ATOM     27  C   UNL     1      -3.778  -3.496   6.429  0.00  0.00    +0.060 A 
ATOM     28  C   UNL     1      -2.701  -2.574   6.816  0.00  0.00    +0.027 A 
ATOM     29  C   UNL     1      -1.439  -3.034   6.928  0.00  0.00    +0.002 A 
ATOM     30  C   UNL     1      -1.098  -4.377   6.688  0.00  0.00    +0.002 A 
ATOM     31  C   UNL     1      -2.008  -5.305   6.328  0.00  0.00    +0.027 A 
ATOM     32  C   UNL     1      -3.417  -4.918   6.175  0.00  0.00    +0.060 A 
ATOM     33  N   UNL     1      -4.487  -5.582   5.847  0.00  0.00    -0.363 N 
ATOM     34  H   UNL     1      -5.552  -2.508   6.347  0.00  0.00    +0.162 HD
ATOM     35  H   UNL     1      -4.532  -6.527   5.630  0.00  0.00    +0.162 HD
ENDBRANCH  24  25
ENDBRANCH  23  24
ENDBRANCH   4  23
TORSDOF 6
