REMARK  Name = ZINC63138451
REMARK  8 active torsions:
REMARK  status: ('A' for Active; 'I' for Inactive)
REMARK    1  A    between atoms: C_1  and  O_2
REMARK    2  A    between atoms: O_2  and  C_3
REMARK    3  A    between atoms: C_6  and  C_11
REMARK    4  A    between atoms: C_8  and  O_9
REMARK    5  A    between atoms: O_9  and  C_10
REMARK    6  A    between atoms: N_30  and  C_33
REMARK    7  A    between atoms: C_33  and  C_34
REMARK    8  A    between atoms: C_34  and  C_35
REMARK                            x       y       z     vdW  Elec       q    Type
REMARK                         _______ _______ _______ _____ _____    ______ ____
ROOT
ATOM      1  C   UNL     1      -4.987  -2.627   0.035  0.00  0.00    +0.134 C 
ATOM      2  C   UNL     1      -5.505  -2.739   1.472  0.00  0.00    +0.131 C 
ATOM      3  C   UNL     1      -6.954  -3.199   1.381  0.00  0.00    -0.034 C 
ATOM      4  C   UNL     1      -7.043  -4.304   2.112  0.00  0.00    -0.001 A 
ATOM      5  C   UNL     1      -8.191  -5.156   2.463  0.00  0.00    +0.010 A 
ATOM      6  C   UNL     1      -7.918  -6.240   3.237  0.00  0.00    +0.001 A 
ATOM      7  C   UNL     1      -6.634  -6.558   3.690  0.00  0.00    +0.002 A 
ATOM      8  C   UNL     1      -5.523  -5.828   3.421  0.00  0.00    +0.026 A 
ATOM      9  C   UNL     1      -5.683  -4.660   2.619  0.00  0.00    +0.043 A 
ATOM     10  N   UNL     1      -4.791  -3.768   2.231  0.00  0.00    -0.375 N 
ATOM     11  C   UNL     1      -7.974  -2.492   0.522  0.00  0.00    +0.065 C 
ATOM     12  C   UNL     1      -7.339  -2.331  -0.871  0.00  0.00    +0.167 C 
ATOM     13  N   UNL     1      -5.972  -1.838  -0.739  0.00  0.00    -0.279 N 
ATOM     14  C   UNL     1      -5.561  -0.689  -1.289  0.00  0.00    +0.234 C 
ATOM     15  O   UNL     1      -4.410  -0.356  -1.103  0.00  0.00    -0.274 OA
ATOM     16  C   UNL     1      -6.419   0.211  -2.114  0.00  0.00    +0.203 C 
ATOM     17  N   UNL     1      -7.769  -0.305  -2.267  0.00  0.00    -0.291 N 
ATOM     18  C   UNL     1      -8.192  -1.440  -1.712  0.00  0.00    +0.237 C 
ATOM     19  O   UNL     1      -9.342  -1.773  -1.906  0.00  0.00    -0.274 OA
ATOM     20  H   UNL     1      -3.838  -3.784   2.407  0.00  0.00    +0.160 HD
ENDROOT
BRANCH   1  24
ATOM     21  C   UNL     1      -1.200  -0.640   0.015  0.00  0.00    +0.162 A 
ATOM     22  C   UNL     1      -2.155  -0.308   0.962  0.00  0.00    +0.050 A 
ATOM     23  C   UNL     1      -3.378  -0.952   0.966  0.00  0.00    +0.009 A 
ATOM     24  C   UNL     1      -3.652  -1.928   0.026  0.00  0.00    -0.021 A 
ATOM     25  C   UNL     1      -2.704  -2.264  -0.922  0.00  0.00    +0.055 A 
ATOM     26  C   UNL     1      -1.478  -1.619  -0.935  0.00  0.00    +0.162 A 
BRANCH  21  28
ATOM     27  C   UNL     1       0.219   0.986   1.014  0.00  0.00    +0.277 C 
ATOM     28  O   UNL     1       0.004  -0.008   0.009  0.00  0.00    -0.491 OA
ENDBRANCH  21  28
BRANCH  26  29
ATOM     29  O   UNL     1      -0.546  -1.945  -1.870  0.00  0.00    -0.491 OA
ATOM     30  C   UNL     1      -0.900  -2.958  -2.813  0.00  0.00    +0.277 C 
ENDBRANCH  26  29
ENDBRANCH   1  24
BRANCH  17  31
ATOM     31  C   UNL     1      -8.719   0.468  -3.071  0.00  0.00    +0.113 C 
BRANCH  31  32
ATOM     32  C   UNL     1      -8.639   0.013  -4.530  0.00  0.00    +0.054 C 
BRANCH  32  33
ATOM     33  C   UNL     1      -9.616   0.808  -5.358  0.00  0.00    -0.046 A 
ATOM     34  C   UNL     1     -10.912   0.354  -5.522  0.00  0.00    +0.006 A 
ATOM     35  C   UNL     1     -11.808   1.082  -6.281  0.00  0.00    +0.038 A 
ATOM     36  C   UNL     1     -11.409   2.267  -6.877  0.00  0.00    +0.123 A 
ATOM     37  C   UNL     1     -10.111   2.720  -6.711  0.00  0.00    +0.038 A 
ATOM     38  C   UNL     1      -9.217   1.993  -5.948  0.00  0.00    +0.006 A 
ATOM     39  F   UNL     1     -12.284   2.979  -7.619  0.00  0.00    -0.205 F 
ENDBRANCH  32  33
ENDBRANCH  31  32
ENDBRANCH  17  31
TORSDOF 6
