REMARK  Name = ZINC17368547
REMARK  8 active torsions:
REMARK  status: ('A' for Active; 'I' for Inactive)
REMARK    1  A    between atoms: C_1  and  C_2
REMARK    2  A    between atoms: C_2  and  C_3
REMARK    3  A    between atoms: C_2  and  C_4
REMARK    4  A    between atoms: C_6  and  C_14
REMARK    5  A    between atoms: C_19  and  C_22
REMARK    6  A    between atoms: C_25  and  C_27
REMARK    7  A    between atoms: C_27  and  N_28
REMARK    8  A    between atoms: C_29  and  C_31
REMARK                            x       y       z     vdW  Elec       q    Type
REMARK                         _______ _______ _______ _____ _____    ______ ____
ROOT
ATOM      1  C   UNL     1       3.651   2.175  -0.020  0.00  0.00    +0.250 C 
ATOM      2  O   UNL     1       4.715   1.591   0.058  0.00  0.00    -0.270 OA
ATOM      3  N   UNL     1       3.626   3.519  -0.114  0.00  0.00    -0.261 N 
ATOM      4  C   UNL     1       4.814   4.236  -0.121  0.00  0.00    +0.165 A 
ATOM      5  N   UNL     1       5.002   5.540  -0.210  0.00  0.00    -0.224 NA
ATOM      6  C   UNL     1       6.220   6.063  -0.197  0.00  0.00    +0.087 A 
ATOM      7  C   UNL     1       7.304   5.232  -0.101  0.00  0.00    +0.077 A 
ATOM      8  S   UNL     1       6.496   3.639  -0.020  0.00  0.00    -0.060 S 
ATOM      9  H   UNL     1       2.778   3.985  -0.177  0.00  0.00    +0.157 HD
ENDROOT
BRANCH   1  12
ATOM     10  C   UNL     1      -0.015   1.305   0.027  0.00  0.00    +0.045 A 
ATOM     11  C   UNL     1       1.157   2.057   0.020  0.00  0.00    +0.037 A 
ATOM     12  C   UNL     1       2.386   1.411  -0.013  0.00  0.00    +0.048 A 
ATOM     13  C   UNL     1       2.386  -0.008  -0.039  0.00  0.00    +0.013 A 
ATOM     14  C   UNL     1       3.582  -0.736  -0.074  0.00  0.00    +0.011 A 
ATOM     15  C   UNL     1       3.541  -2.098  -0.100  0.00  0.00    +0.001 A 
ATOM     16  C   UNL     1       2.324  -2.776  -0.090  0.00  0.00    +0.002 A 
ATOM     17  C   UNL     1       1.144  -2.100  -0.057  0.00  0.00    +0.028 A 
ATOM     18  C   UNL     1       1.146  -0.693  -0.030  0.00  0.00    +0.072 A 
ATOM     19  N   UNL     1       0.002  -0.004   0.002  0.00  0.00    -0.251 NA
BRANCH  10  21
ATOM     20  C   UNL     1      -1.714   2.345   1.505  0.00  0.00    +0.014 C 
ATOM     21  C   UNL     1      -1.342   2.019   0.057  0.00  0.00    +0.032 C 
ATOM     22  C   UNL     1      -1.242   3.317  -0.748  0.00  0.00    +0.014 C 
ENDBRANCH  10  21
ENDBRANCH   1  12
BRANCH   6  23
ATOM     23  C   UNL     1       6.406   7.527  -0.291  0.00  0.00    +0.038 A 
ATOM     24  C   UNL     1       5.461   8.511  -0.399  0.00  0.00    +0.018 A 
ATOM     25  C   UNL     1       5.877   9.824  -0.469  0.00  0.00    +0.013 A 
ATOM     26  C   UNL     1       7.205  10.099  -0.441  0.00  0.00    +0.007 A 
ATOM     27  S   UNL     1       7.922   8.470  -0.304  0.00  0.00    -0.090 S 
BRANCH  26  28
ATOM     28  C   UNL     1       7.898  11.435  -0.510  0.00  0.00    +0.146 C 
BRANCH  28  29
ATOM     29  N   UNL     1       8.074  11.964   0.845  0.00  0.00    -0.311 N 
ATOM     30  C   UNL     1       8.674  13.157   1.030  0.00  0.00    +0.210 C 
ATOM     31  O   UNL     1       9.068  13.792   0.075  0.00  0.00    -0.276 OA
ATOM     32  C   UNL     1       8.855  13.700   2.424  0.00  0.00    +0.109 C 
ATOM     33  H   UNL     1       7.758  11.456   1.609  0.00  0.00    +0.149 HD
ENDBRANCH  28  29
ENDBRANCH  26  28
ENDBRANCH   6  23
TORSDOF 5
