REMARK  Name = ZINC53631464
REMARK  8 active torsions:
REMARK  status: ('A' for Active; 'I' for Inactive)
REMARK    1  A    between atoms: C_8  and  N_11
REMARK    2  A    between atoms: C_15  and  N_16
REMARK    3  A    between atoms: N_16  and  C_17
REMARK    4  A    between atoms: C_17  and  C_18
REMARK    5  A    between atoms: C_18  and  C_19
REMARK    6  A    between atoms: C_25  and  C_27
REMARK    7  A    between atoms: C_27  and  S_28
REMARK    8  A    between atoms: S_28  and  C_29
REMARK                            x       y       z     vdW  Elec       q    Type
REMARK                         _______ _______ _______ _____ _____    ______ ____
ROOT
ATOM      1  N   UNL     1       2.931  -3.450  -1.252  0.00  0.00    -0.158 N 
ATOM      2  C   UNL     1       3.245  -4.761  -1.274  0.00  0.00    +0.271 C 
ATOM      3  O   UNL     1       3.387  -5.498  -0.313  0.00  0.00    -0.268 OA
ATOM      4  C   UNL     1       3.382  -5.122  -2.691  0.00  0.00    +0.076 C 
ATOM      5  C   UNL     1       3.697  -6.363  -3.218  0.00  0.00    +0.082 C 
ATOM      6  C   UNL     1       3.112  -3.878  -3.427  0.00  0.00    +0.083 C 
ATOM      7  N   UNL     1       2.853  -2.954  -2.553  0.00  0.00    -0.178 NA
ENDROOT
BRANCH   1  15
ATOM      8  C   UNL     1      -0.017   1.371   0.010  0.00  0.00    +0.002 A 
ATOM      9  C   UNL     1       1.157   2.102   0.002  0.00  0.00    +0.001 A 
ATOM     10  C   UNL     1       2.367   1.427  -0.013  0.00  0.00    +0.016 A 
ATOM     11  C   UNL     1       2.384   0.051  -0.020  0.00  0.00    +0.032 A 
ATOM     12  C   UNL     1       1.215  -0.716  -0.013  0.00  0.00    +0.043 A 
ATOM     13  C   UNL     1       0.002  -0.004   0.002  0.00  0.00    +0.024 A 
ATOM     14  N   UNL     1       1.341  -2.104  -0.022  0.00  0.00    -0.315 N 
ATOM     15  C   UNL     1       2.700  -2.663  -0.039  0.00  0.00    +0.249 C 
ATOM     16  S   UNL     1       3.714  -1.130  -0.039  0.00  0.00    -0.080 S 
ATOM     17  H   UNL     1       0.560  -2.680  -0.018  0.00  0.00    +0.149 HD
ENDBRANCH   1  15
BRANCH   5  18
ATOM     18  N   UNL     1       3.784  -6.525  -4.554  0.00  0.00    -0.349 N 
ATOM     19  H   UNL     1       3.625  -5.773  -5.146  0.00  0.00    +0.146 HD
BRANCH  18  20
ATOM     20  C   UNL     1       4.117  -7.838  -5.113  0.00  0.00    +0.107 C 
BRANCH  20  21
ATOM     21  C   UNL     1       4.150  -7.749  -6.640  0.00  0.00    +0.073 C 
BRANCH  21  22
ATOM     22  C   UNL     1       4.493  -9.100  -7.214  0.00  0.00    +0.035 A 
ATOM     23  H   UNL     1       4.004 -11.998  -8.259  0.00  0.00    +0.166 HD
ATOM     24  C   UNL     1       3.623 -10.097  -7.465  0.00  0.00    +0.105 A 
ATOM     25  N   UNL     1       4.350 -11.136  -7.980  0.00  0.00    -0.352 N 
ATOM     26  C   UNL     1       5.640 -10.738  -8.024  0.00  0.00    +0.171 A 
ATOM     27  N   UNL     1       5.717  -9.517  -7.570  0.00  0.00    -0.350 N 
ATOM     28  H   UNL     1       6.531  -8.995  -7.498  0.00  0.00    +0.166 HD
ENDBRANCH  21  22
ENDBRANCH  20  21
ENDBRANCH  18  20
ENDBRANCH   5  18
BRANCH   6  29
ATOM     29  C   UNL     1       3.126  -3.709  -4.924  0.00  0.00    +0.132 C 
BRANCH  29  30
ATOM     30  S   UNL     1       2.729  -1.988  -5.342  0.00  0.00    -0.119 S 
BRANCH  30  31
ATOM     31  C   UNL     1       2.785  -1.954  -7.103  0.00  0.00    +0.008 A 
ATOM     32  C   UNL     1       3.082  -3.111  -7.813  0.00  0.00    +0.016 A 
ATOM     33  C   UNL     1       3.125  -3.080  -9.193  0.00  0.00    +0.021 A 
ATOM     34  C   UNL     1       2.873  -1.899  -9.868  0.00  0.00    +0.041 A 
ATOM     35  C   UNL     1       2.577  -0.745  -9.164  0.00  0.00    +0.021 A 
ATOM     36  C   UNL     1       2.527  -0.770  -7.784  0.00  0.00    +0.016 A 
ATOM     37 CL   UNL     1       2.928  -1.864 -11.603  0.00  0.00    -0.084 Cl
ENDBRANCH  30  31
ENDBRANCH  29  30
ENDBRANCH   6  29
TORSDOF 8
