REMARK  Name = ZINC66187036
REMARK  7 active torsions:
REMARK  status: ('A' for Active; 'I' for Inactive)
REMARK    1  A    between atoms: C_1  and  N_2
REMARK    2  A    between atoms: N_2  and  C_3
REMARK    3  A    between atoms: N_6  and  C_9
REMARK    4  A    between atoms: N_17  and  C_18
REMARK    5  A    between atoms: C_18  and  C_19
REMARK    6  A    between atoms: C_19  and  C_20
REMARK    7  A    between atoms: N_22  and  C_23
REMARK                            x       y       z     vdW  Elec       q    Type
REMARK                         _______ _______ _______ _____ _____    ______ ____
ROOT
ATOM      1  C   UNL     1      -0.018   1.461   0.010  0.00  0.00    +0.134 C 
ATOM      2  N   UNL     1       0.002  -0.004   0.002  0.00  0.00    -0.286 N 
ATOM      3  C   UNL     1       0.000  -0.672  -1.169  0.00  0.00    +0.302 C 
ATOM      4  O   UNL     1       0.017  -1.887  -1.175  0.00  0.00    -0.253 OA
ATOM      5  N   UNL     1      -0.020   0.009  -2.332  0.00  0.00    -0.299 N 
ATOM      6  H   UNL     1      -0.033   0.978  -2.327  0.00  0.00    +0.150 HD
ENDROOT
BRANCH   2   7
ATOM      7  C   UNL     1       0.024  -0.743   1.267  0.00  0.00    +0.074 C 
ATOM      8  C   UNL     1      -1.218  -0.388   2.089  0.00  0.00    +0.004 C 
ATOM      9  C   UNL     1      -1.149  -1.102   3.441  0.00  0.00    -0.077 C 
ATOM     10  N   UNL     1       0.056  -0.675   4.163  0.00  0.00    +0.382 N 
ATOM     11  C   UNL     1       1.253  -1.076   3.414  0.00  0.00    -0.077 C 
ATOM     12  C   UNL     1       1.276  -0.362   2.061  0.00  0.00    +0.004 C 
ATOM     13  H   UNL     1       0.046   0.328   4.267  0.00  0.00    -0.081 HD
BRANCH  10  14
ATOM     14  C   UNL     1       0.077  -1.303   5.491  0.00  0.00    -0.064 C 
ATOM     15  C   UNL     1      -1.161  -0.870   6.282  0.00  0.00    +0.013 C 
ATOM     16  C   UNL     1      -1.090  -1.465   7.691  0.00  0.00    +0.158 C 
ATOM     17  O   UNL     1       0.117  -1.038   8.327  0.00  0.00    -0.380 OA
ATOM     18  C   UNL     1       1.308  -1.455   7.657  0.00  0.00    +0.158 C 
ATOM     19  C   UNL     1       1.334  -0.860   6.247  0.00  0.00    +0.013 C 
ENDBRANCH  10  14
ENDBRANCH   2   7
BRANCH   5  20
ATOM     20  C   UNL     1      -0.022  -0.717  -3.605  0.00  0.00    +0.115 C 
BRANCH  20  21
ATOM     21  C   UNL     1      -0.047   0.283  -4.762  0.00  0.00    +0.114 C 
BRANCH  21  22
ATOM     22  C   UNL     1      -0.049  -0.463  -6.072  0.00  0.00    +0.215 C 
ATOM     23  O   UNL     1      -0.033  -1.676  -6.078  0.00  0.00    -0.276 OA
ATOM     24  N   UNL     1      -0.070   0.217  -7.235  0.00  0.00    -0.312 N 
ATOM     25  H   UNL     1      -0.083   1.187  -7.230  0.00  0.00    +0.149 HD
BRANCH  24  26
ATOM     26  C   UNL     1      -0.072  -0.509  -8.508  0.00  0.00    +0.073 C 
ATOM     27  C   UNL     1       1.366  -0.851  -8.902  0.00  0.00    +0.022 C 
ATOM     28  C   UNL     1       1.364  -1.609 -10.231  0.00  0.00    +0.002 C 
ATOM     29  C   UNL     1       0.732  -0.734 -11.316  0.00  0.00    +0.000 C 
ATOM     30  C   UNL     1      -0.706  -0.392 -10.921  0.00  0.00    +0.002 C 
ATOM     31  C   UNL     1      -0.704   0.366  -9.592  0.00  0.00    +0.022 C 
ENDBRANCH  24  26
ENDBRANCH  21  22
ENDBRANCH  20  21
ENDBRANCH   5  20
TORSDOF 6
